
 OpenBabel09122512423D

119126  0  0  0  0  0  0  0  0999 V2000
   13.1340    1.5940   -2.9826 C   0  0  0  0  0  0  0  0  0  0  0  0
   12.5740    0.6070   -1.9604 C   0  0  1  0  0  0  0  0  0  0  0  0
   11.1735    0.7578   -1.8467 O   0  0  0  0  0  0  0  0  0  0  0  0
   10.6521    0.0430   -0.7164 C   0  0  1  0  0  0  0  0  0  0  0  0
    9.3480   -0.4074   -1.0623 O   0  0  0  0  0  0  0  0  0  0  0  0
    8.3161    0.3007   -0.3907 C   0  0  1  0  0  0  0  0  0  0  0  0
    7.7442    1.4082   -1.2982 C   0  0  1  0  0  0  0  0  0  0  0  0
    7.3912    0.9340   -2.5810 O   0  0  0  0  0  0  0  0  0  0  0  0
    6.5553    2.0652   -0.5809 C   0  0  0  0  0  0  0  0  0  0  0  0
    5.5415    0.9992   -0.1299 C   0  0  2  0  0  0  0  0  0  0  0  0
    4.5108    1.6511    0.5978 O   0  0  0  0  0  0  0  0  0  0  0  0
    3.2729    0.9586    0.5015 C   0  0  1  0  0  0  0  0  0  0  0  0
    2.8327    0.4518    1.8813 C   0  0  1  0  0  0  0  0  0  0  0  0
    2.8155    1.4927    2.8335 O   0  0  0  0  0  0  0  0  0  0  0  0
    1.4697   -0.2448    1.7052 C   0  0  0  0  0  0  0  0  0  0  0  0
    0.4483    0.6529    0.9647 C   0  0  2  0  0  0  0  0  0  0  0  0
   -0.6371   -0.1877    0.6265 O   0  0  0  0  0  0  0  0  0  0  0  0
   -1.9166    0.3469    0.9134 C   0  0  1  0  0  0  0  0  0  0  0  0
   -2.7638    0.3137   -0.3867 C   0  0  0  0  0  0  0  0  0  0  0  0
   -3.4434   -1.0461   -0.5701 C   0  0  0  0  0  0  0  0  0  0  0  0
   -4.4497   -1.3837    0.6006 C   0  0  1  0  0  0  0  0  0  0  0  0
   -4.3570   -2.9311    0.7746 C   0  0  0  0  0  0  0  0  0  0  0  0
   -4.0197   -0.7144    1.9865 C   0  0  2  0  0  0  0  0  0  0  0  0
   -4.7927    0.5857    2.2725 C   0  0  0  0  0  0  0  0  0  0  0  0
   -6.3136    0.3214    2.3930 C   0  0  0  0  0  0  0  0  0  0  0  0
   -6.7895   -0.9104    1.5562 C   0  0  2  0  0  0  0  0  0  0  0  0
   -5.9725   -1.0438    0.2604 C   0  0  1  0  0  0  0  0  0  0  0  0
   -6.2819    0.1534   -0.7040 C   0  0  0  0  0  0  0  0  0  0  0  0
   -7.7164    0.7390   -0.5524 C   0  0  0  0  0  0  0  0  0  0  0  0
   -8.7872   -0.2968   -0.1138 C   0  0  2  0  0  0  0  0  0  0  0  0
   -9.0133   -1.3003   -1.2900 C   0  0  0  0  0  0  0  0  0  0  0  0
  -10.1245    0.4277    0.3066 C   0  0  1  0  0  0  0  0  0  0  0  0
  -11.1754    0.7334   -0.7572 C   0  0  0  0  0  0  0  0  0  0  0  0
  -12.4504    0.3505   -0.7349 C   0  0  0  0  0  0  0  0  0  0  0  0
  -13.0584    0.9040   -1.9151 C   0  0  0  0  0  0  0  0  0  0  0  0
  -14.2233    0.7567   -2.2434 O   0  0  0  0  0  0  0  0  0  0  0  0
  -12.1708    1.6203   -2.6219 O   0  0  0  0  0  0  0  0  0  0  0  0
  -10.9444    1.5930   -1.9835 C   0  0  0  0  0  0  0  0  0  0  0  0
  -10.5916   -0.3099    1.5923 C   0  0  1  0  0  0  0  0  0  0  0  0
  -11.1314   -1.6002    1.3933 O   0  0  0  0  0  0  0  0  0  0  0  0
   -9.2568   -0.4452    2.3191 C   0  0  0  0  0  0  0  0  0  0  0  0
   -8.3258   -1.0270    1.2282 C   0  0  2  0  0  0  0  0  0  0  0  0
   -8.6224   -2.4045    1.0867 O   0  0  0  0  0  0  0  0  0  0  0  0
   -2.4994   -0.5306    2.0487 C   0  0  0  0  0  0  0  0  0  0  0  0
    0.9768    1.1524   -0.2554 O   0  0  0  0  0  0  0  0  0  0  0  0
    2.1749    1.8856   -0.0626 C   0  0  2  0  0  0  0  0  0  0  0  0
    2.5965    2.4611   -1.4154 C   0  0  0  0  0  0  0  0  0  0  0  0
    6.1617    0.0453    0.7230 O   0  0  0  0  0  0  0  0  0  0  0  0
    7.1860   -0.6688    0.0438 C   0  0  2  0  0  0  0  0  0  0  0  0
    7.7359   -1.7319    0.9978 C   0  0  0  0  0  0  0  0  0  0  0  0
   11.4833   -1.2144   -0.3083 C   0  0  0  0  0  0  0  0  0  0  0  0
   11.9927   -1.8610   -1.5992 C   0  0  2  0  0  0  0  0  0  0  0  0
   12.6009   -3.1132   -1.3993 O   0  0  0  0  0  0  0  0  0  0  0  0
   12.9357   -0.8627   -2.3302 C   0  0  2  0  0  0  0  0  0  0  0  0
   14.2925   -1.0985   -2.0378 O   0  0  0  0  0  0  0  0  0  0  0  0
   12.8744    2.6317   -2.6844 H   0  0  0  0  0  0  0  0  0  0  0  0
   12.7070    1.3935   -3.9880 H   0  0  0  0  0  0  0  0  0  0  0  0
   14.2405    1.5071   -3.0334 H   0  0  0  0  0  0  0  0  0  0  0  0
   13.0294    0.8842   -0.9796 H   0  0  0  0  0  0  0  0  0  0  0  0
   10.6663    0.7137    0.1714 H   0  0  0  0  0  0  0  0  0  0  0  0
    8.6491    0.7784    0.5612 H   0  0  0  0  0  0  0  0  0  0  0  0
    8.5295    2.1788   -1.4609 H   0  0  0  0  0  0  0  0  0  0  0  0
    6.7659    0.1730   -2.4999 H   0  0  0  0  0  0  0  0  0  0  0  0
    6.0756    2.8187   -1.2425 H   0  0  0  0  0  0  0  0  0  0  0  0
    6.9301    2.5872    0.3269 H   0  0  0  0  0  0  0  0  0  0  0  0
    5.1465    0.5156   -1.0545 H   0  0  0  0  0  0  0  0  0  0  0  0
    3.3134    0.0668   -0.1698 H   0  0  0  0  0  0  0  0  0  0  0  0
    3.5587   -0.3052    2.2507 H   0  0  0  0  0  0  0  0  0  0  0  0
    1.9369    1.9467    2.8261 H   0  0  0  0  0  0  0  0  0  0  0  0
    1.0664   -0.5866    2.6835 H   0  0  0  0  0  0  0  0  0  0  0  0
    1.6398   -1.1468    1.0760 H   0  0  0  0  0  0  0  0  0  0  0  0
    0.1617    1.5011    1.6251 H   0  0  0  0  0  0  0  0  0  0  0  0
   -1.9058    1.4216    1.2090 H   0  0  0  0  0  0  0  0  0  0  0  0
   -2.1168    0.5768   -1.2516 H   0  0  0  0  0  0  0  0  0  0  0  0
   -3.5297    1.0980   -0.3610 H   0  0  0  0  0  0  0  0  0  0  0  0
   -2.5896   -1.7609   -0.5776 H   0  0  0  0  0  0  0  0  0  0  0  0
   -3.9371   -1.1531   -1.5588 H   0  0  0  0  0  0  0  0  0  0  0  0
   -3.3281   -3.2545    1.0375 H   0  0  0  0  0  0  0  0  0  0  0  0
   -4.6312   -3.4470   -0.1724 H   0  0  0  0  0  0  0  0  0  0  0  0
   -5.0312   -3.3040    1.5710 H   0  0  0  0  0  0  0  0  0  0  0  0
   -4.3023   -1.3856    2.8298 H   0  0  0  0  0  0  0  0  0  0  0  0
   -4.6190    1.2963    1.4503 H   0  0  0  0  0  0  0  0  0  0  0  0
   -4.4432    1.0932    3.1974 H   0  0  0  0  0  0  0  0  0  0  0  0
   -6.8109    1.2789    2.1583 H   0  0  0  0  0  0  0  0  0  0  0  0
   -6.5768    0.0911    3.4494 H   0  0  0  0  0  0  0  0  0  0  0  0
   -6.5443   -1.7789    2.2047 H   0  0  0  0  0  0  0  0  0  0  0  0
   -6.3737   -1.9257   -0.2784 H   0  0  0  0  0  0  0  0  0  0  0  0
   -6.1187   -0.2104   -1.7415 H   0  0  0  0  0  0  0  0  0  0  0  0
   -5.6204    1.0200   -0.5588 H   0  0  0  0  0  0  0  0  0  0  0  0
   -8.0016    1.3057   -1.4641 H   0  0  0  0  0  0  0  0  0  0  0  0
   -7.6674    1.5003    0.2460 H   0  0  0  0  0  0  0  0  0  0  0  0
   -9.3304   -0.7819   -2.2114 H   0  0  0  0  0  0  0  0  0  0  0  0
   -9.7907   -2.0524   -1.0585 H   0  0  0  0  0  0  0  0  0  0  0  0
   -8.0961   -1.8539   -1.5577 H   0  0  0  0  0  0  0  0  0  0  0  0
   -9.8447    1.4358    0.6933 H   0  0  0  0  0  0  0  0  0  0  0  0
  -12.9498   -0.2444    0.0168 H   0  0  0  0  0  0  0  0  0  0  0  0
  -10.6467    2.6205   -1.6863 H   0  0  0  0  0  0  0  0  0  0  0  0
  -10.1806    1.1692   -2.6619 H   0  0  0  0  0  0  0  0  0  0  0  0
  -11.3281    0.2913    2.1684 H   0  0  0  0  0  0  0  0  0  0  0  0
  -11.3590   -1.7334    0.4435 H   0  0  0  0  0  0  0  0  0  0  0  0
   -9.2978   -1.0415    3.2558 H   0  0  0  0  0  0  0  0  0  0  0  0
   -8.9344    0.5814    2.5976 H   0  0  0  0  0  0  0  0  0  0  0  0
   -8.5469   -2.8394    1.9767 H   0  0  0  0  0  0  0  0  0  0  0  0
   -2.0880   -1.5574    1.9348 H   0  0  0  0  0  0  0  0  0  0  0  0
   -2.1417   -0.1687    3.0366 H   0  0  0  0  0  0  0  0  0  0  0  0
    1.9992    2.7579    0.6096 H   0  0  0  0  0  0  0  0  0  0  0  0
    2.7857    1.6436   -2.1433 H   0  0  0  0  0  0  0  0  0  0  0  0
    3.5163    3.0744   -1.3105 H   0  0  0  0  0  0  0  0  0  0  0  0
    1.7909    3.1153   -1.8112 H   0  0  0  0  0  0  0  0  0  0  0  0
    6.7575   -1.2235   -0.8203 H   0  0  0  0  0  0  0  0  0  0  0  0
    8.1842   -1.2558    1.8963 H   0  0  0  0  0  0  0  0  0  0  0  0
    8.5068   -2.3484    0.4907 H   0  0  0  0  0  0  0  0  0  0  0  0
    6.9163   -2.4063    1.3249 H   0  0  0  0  0  0  0  0  0  0  0  0
   10.8632   -1.9000    0.3070 H   0  0  0  0  0  0  0  0  0  0  0  0
   12.3645   -0.9272    0.3062 H   0  0  0  0  0  0  0  0  0  0  0  0
   11.0857   -2.0284   -2.2226 H   0  0  0  0  0  0  0  0  0  0  0  0
   13.2033   -3.0379   -0.6143 H   0  0  0  0  0  0  0  0  0  0  0  0
   12.7924   -1.0568   -3.4162 H   0  0  0  0  0  0  0  0  0  0  0  0
   14.4137   -0.9999   -1.0573 H   0  0  0  0  0  0  0  0  0  0  0  0
  1 56  1  0  0  0  0
  1 57  1  0  0  0  0
  1 58  1  0  0  0  0
  2  1  1  0  0  0  0
  2  3  1  0  0  0  0
  2 59  1  1  0  0  0
  3  4  1  0  0  0  0
  4  5  1  0  0  0  0
  4 51  1  0  0  0  0
  4 60  1  1  0  0  0
  6  5  1  0  0  0  0
  6  7  1  0  0  0  0
  6 61  1  1  0  0  0
  7  8  1  0  0  0  0
  7  9  1  0  0  0  0
  7 62  1  6  0  0  0
  8 63  1  0  0  0  0
  9 10  1  0  0  0  0
  9 64  1  0  0  0  0
  9 65  1  0  0  0  0
 10 11  1  0  0  0  0
 10 48  1  0  0  0  0
 10 66  1  6  0  0  0
 12 11  1  0  0  0  0
 12 13  1  0  0  0  0
 12 67  1  6  0  0  0
 13 14  1  0  0  0  0
 13 15  1  0  0  0  0
 13 68  1  1  0  0  0
 14 69  1  0  0  0  0
 15 16  1  0  0  0  0
 15 70  1  0  0  0  0
 15 71  1  0  0  0  0
 16 17  1  0  0  0  0
 16 45  1  0  0  0  0
 16 72  1  1  0  0  0
 18 17  1  0  0  0  0
 18 19  1  0  0  0  0
 18 73  1  1  0  0  0
 19 20  1  0  0  0  0
 19 74  1  0  0  0  0
 19 75  1  0  0  0  0
 20 21  1  0  0  0  0
 20 76  1  0  0  0  0
 20 77  1  0  0  0  0
 21 22  1  1  0  0  0
 21 23  1  0  0  0  0
 22 78  1  0  0  0  0
 22 79  1  0  0  0  0
 22 80  1  0  0  0  0
 23 24  1  0  0  0  0
 23 44  1  0  0  0  0
 23 81  1  1  0  0  0
 24 25  1  0  0  0  0
 24 82  1  0  0  0  0
 24 83  1  0  0  0  0
 25 84  1  0  0  0  0
 25 85  1  0  0  0  0
 26 25  1  0  0  0  0
 26 27  1  0  0  0  0
 26 86  1  1  0  0  0
 27 28  1  0  0  0  0
 27 21  1  0  0  0  0
 27 87  1  6  0  0  0
 28 29  1  0  0  0  0
 28 88  1  0  0  0  0
 28 89  1  0  0  0  0
 29 30  1  0  0  0  0
 29 90  1  0  0  0  0
 29 91  1  0  0  0  0
 30 31  1  6  0  0  0
 30 32  1  0  0  0  0
 31 92  1  0  0  0  0
 31 93  1  0  0  0  0
 31 94  1  0  0  0  0
 32 33  1  0  0  0  0
 32 39  1  0  0  0  0
 32 95  1  1  0  0  0
 33 34  2  0  0  0  0
 34 35  1  0  0  0  0
 34 96  1  0  0  0  0
 35 36  2  0  0  0  0
 35 37  1  0  0  0  0
 37 38  1  0  0  0  0
 38 33  1  0  0  0  0
 38 97  1  0  0  0  0
 38 98  1  0  0  0  0
 39 40  1  0  0  0  0
 39 41  1  0  0  0  0
 39 99  1  1  0  0  0
 40100  1  0  0  0  0
 41 42  1  0  0  0  0
 41101  1  0  0  0  0
 41102  1  0  0  0  0
 42 43  1  6  0  0  0
 42 30  1  0  0  0  0
 42 26  1  0  0  0  0
 43103  1  0  0  0  0
 44 18  1  0  0  0  0
 44104  1  0  0  0  0
 44105  1  0  0  0  0
 45 46  1  0  0  0  0
 46 47  1  0  0  0  0
 46 12  1  0  0  0  0
 46106  1  1  0  0  0
 47107  1  0  0  0  0
 47108  1  0  0  0  0
 47109  1  0  0  0  0
 48 49  1  0  0  0  0
 49 50  1  0  0  0  0
 49  6  1  0  0  0  0
 49110  1  6  0  0  0
 50111  1  0  0  0  0
 50112  1  0  0  0  0
 50113  1  0  0  0  0
 51 52  1  0  0  0  0
 51114  1  0  0  0  0
 51115  1  0  0  0  0
 52 53  1  0  0  0  0
 52 54  1  0  0  0  0
 52116  1  6  0  0  0
 53117  1  0  0  0  0
 54 55  1  0  0  0  0
 54  2  1  0  0  0  0
 54118  1  6  0  0  0
 55119  1  0  0  0  0
M  END
>  <IDENTIFIER>
CNP0213332.7

>  <Energy>
1736.01

$$$$
