
 OpenBabel09112505453D

117123  0  0  0  0  0  0  0  0999 V2000
   -7.5734    1.4324   -2.2538 C   0  0  0  0  0  0  0  0  0  0  0  0
   -8.0503    0.4675   -1.1795 C   0  0  0  0  0  0  0  0  0  0  0  0
   -7.2059   -0.1655   -0.2869 C   0  0  0  0  0  0  0  0  0  0  0  0
   -5.7027   -0.0361   -0.2897 C   0  0  0  0  0  0  0  0  0  0  0  0
   -5.0322   -0.1913   -1.4548 C   0  0  0  0  0  0  0  0  0  0  0  0
   -3.5336   -0.2532   -1.6013 C   0  0  0  0  0  0  0  0  0  0  0  0
   -2.7233    0.0025   -0.3016 C   0  0  2  0  0  0  0  0  0  0  0  0
   -1.1498   -0.2899   -0.4366 C   0  0  1  0  0  0  0  0  0  0  0  0
   -0.8639   -1.7534   -0.9151 C   0  0  0  0  0  0  0  0  0  0  0  0
   -0.5448    0.6733   -1.5061 C   0  0  0  0  0  0  0  0  0  0  0  0
    0.9970    0.6342   -1.5562 C   0  0  0  0  0  0  0  0  0  0  0  0
    1.6245    1.0103   -0.2018 C   0  0  2  0  0  0  0  0  0  0  0  0
    3.0440    0.9034   -0.3084 O   0  0  0  0  0  0  0  0  0  0  0  0
    3.7223    2.1459   -0.4102 C   0  0  1  0  0  0  0  0  0  0  0  0
    4.5025    2.3329    0.7785 O   0  0  0  0  0  0  0  0  0  0  0  0
    5.9177    2.2944    0.5906 C   0  0  0  0  0  0  0  0  0  0  0  0
    6.3655    1.0867   -0.2574 C   0  0  2  0  0  0  0  0  0  0  0  0
    7.7801    1.1138   -0.4026 O   0  0  0  0  0  0  0  0  0  0  0  0
    8.4318   -0.0782    0.0052 C   0  0  2  0  0  0  0  0  0  0  0  0
    9.1187    0.2120    1.2304 O   0  0  0  0  0  0  0  0  0  0  0  0
   10.3646   -0.4615    1.4524 C   0  0  2  0  0  0  0  0  0  0  0  0
   11.5602    0.4656    1.1517 C   0  0  0  0  0  0  0  0  0  0  0  0
   11.4919    1.6175    1.9484 O   0  0  0  0  0  0  0  0  0  0  0  0
   10.4435   -1.8544    0.7571 C   0  0  1  0  0  0  0  0  0  0  0  0
    9.4989   -2.7464    1.3180 O   0  0  0  0  0  0  0  0  0  0  0  0
   10.1970   -1.7552   -0.7697 C   0  0  2  0  0  0  0  0  0  0  0  0
   11.3876   -1.8014   -1.5179 O   0  0  0  0  0  0  0  0  0  0  0  0
    9.3816   -0.4986   -1.1396 C   0  0  1  0  0  0  0  0  0  0  0  0
    8.7082   -0.6858   -2.3585 O   0  0  0  0  0  0  0  0  0  0  0  0
    5.6764    1.1045   -1.6514 C   0  0  2  0  0  0  0  0  0  0  0  0
    6.5851    1.3063   -2.7059 O   0  0  0  0  0  0  0  0  0  0  0  0
    4.5579    2.1690   -1.7101 C   0  0  1  0  0  0  0  0  0  0  0  0
    3.7645    2.0373   -2.8626 O   0  0  0  0  0  0  0  0  0  0  0  0
    1.1140    0.1208    0.9860 C   0  0  0  0  0  0  0  0  0  0  0  0
    1.7804   -1.2816    0.9908 C   0  0  0  0  0  0  0  0  0  0  0  0
    1.5896    0.8127    2.2976 C   0  0  0  0  0  0  0  0  0  0  0  0
   -0.4769    0.0920    0.9459 C   0  0  2  0  0  0  0  0  0  0  0  0
   -1.1459   -0.6953    2.1039 C   0  0  0  0  0  0  0  0  0  0  0  0
   -2.6273   -0.2949    2.2256 C   0  0  0  0  0  0  0  0  0  0  0  0
   -3.4850   -0.5933    0.9544 C   0  0  2  0  0  0  0  0  0  0  0  0
   -3.6761   -2.1344    0.8666 C   0  0  0  0  0  0  0  0  0  0  0  0
   -4.9449    0.1224    1.0434 C   0  0  1  0  0  0  0  0  0  0  0  0
   -4.8560    1.6726    1.2535 C   0  0  0  0  0  0  0  0  0  0  0  0
   -5.8326   -0.3859    2.2470 C   0  0  0  0  0  0  0  0  0  0  0  0
   -6.8000   -1.5094    1.8550 C   0  0  0  0  0  0  0  0  0  0  0  0
   -7.8523   -1.0263    0.8183 C   0  0  2  0  0  0  0  0  0  0  0  0
   -8.4485   -2.3153    0.2257 C   0  0  0  0  0  0  0  0  0  0  0  0
   -8.2882   -2.5898   -0.9551 O   0  0  0  0  0  0  0  0  0  0  0  0
   -9.0991   -3.2080    1.0063 O   0  0  0  0  0  0  0  0  0  0  0  0
   -8.9836   -0.1770    1.4941 C   0  0  0  0  0  0  0  0  0  0  0  0
   -9.8675    0.6195    0.4935 C   0  0  0  0  0  0  0  0  0  0  0  0
   -9.5676    0.2760   -0.9777 C   0  0  1  0  0  0  0  0  0  0  0  0
  -10.4606    1.1115   -1.9100 C   0  0  0  0  0  0  0  0  0  0  0  0
   -6.4915    1.6384   -2.2552 H   0  0  0  0  0  0  0  0  0  0  0  0
   -8.0393    2.4247   -2.0908 H   0  0  0  0  0  0  0  0  0  0  0  0
   -7.8649    1.0520   -3.2548 H   0  0  0  0  0  0  0  0  0  0  0  0
   -5.5892   -0.3841   -2.3672 H   0  0  0  0  0  0  0  0  0  0  0  0
   -3.2129    0.4577   -2.3902 H   0  0  0  0  0  0  0  0  0  0  0  0
   -3.3689   -1.2801   -1.9689 H   0  0  0  0  0  0  0  0  0  0  0  0
   -2.7440    1.0911   -0.1425 H   0  0  0  0  0  0  0  0  0  0  0  0
   -1.4188   -2.0076   -1.8337 H   0  0  0  0  0  0  0  0  0  0  0  0
   -1.0284   -2.5272   -0.1625 H   0  0  0  0  0  0  0  0  0  0  0  0
    0.1580   -1.9272   -1.2463 H   0  0  0  0  0  0  0  0  0  0  0  0
   -0.8362    1.7209   -1.2690 H   0  0  0  0  0  0  0  0  0  0  0  0
   -0.9389    0.4387   -2.5173 H   0  0  0  0  0  0  0  0  0  0  0  0
    1.3213    1.3717   -2.3180 H   0  0  0  0  0  0  0  0  0  0  0  0
    1.3770   -0.3485   -1.8894 H   0  0  0  0  0  0  0  0  0  0  0  0
    1.2681    2.0454    0.0159 H   0  0  0  0  0  0  0  0  0  0  0  0
    3.0409    3.0221   -0.4959 H   0  0  0  0  0  0  0  0  0  0  0  0
    6.3960    2.2064    1.5891 H   0  0  0  0  0  0  0  0  0  0  0  0
    6.2703    3.2525    0.1508 H   0  0  0  0  0  0  0  0  0  0  0  0
    5.9760    0.2139    0.3183 H   0  0  0  0  0  0  0  0  0  0  0  0
    7.7347   -0.9299    0.1715 H   0  0  0  0  0  0  0  0  0  0  0  0
   10.4312   -0.6742    2.5418 H   0  0  0  0  0  0  0  0  0  0  0  0
   11.6518    0.7582    0.0889 H   0  0  0  0  0  0  0  0  0  0  0  0
   12.5026   -0.0668    1.4015 H   0  0  0  0  0  0  0  0  0  0  0  0
   10.8636    2.2394    1.4965 H   0  0  0  0  0  0  0  0  0  0  0  0
   11.4320   -2.3237    0.9536 H   0  0  0  0  0  0  0  0  0  0  0  0
    8.7695   -2.2517    1.7711 H   0  0  0  0  0  0  0  0  0  0  0  0
    9.6274   -2.6725   -1.0407 H   0  0  0  0  0  0  0  0  0  0  0  0
   11.9994   -1.1081   -1.1641 H   0  0  0  0  0  0  0  0  0  0  0  0
   10.0649    0.3603   -1.2786 H   0  0  0  0  0  0  0  0  0  0  0  0
    8.0010   -1.3654   -2.2054 H   0  0  0  0  0  0  0  0  0  0  0  0
    5.2409    0.0903   -1.7895 H   0  0  0  0  0  0  0  0  0  0  0  0
    7.0034    2.1973   -2.5750 H   0  0  0  0  0  0  0  0  0  0  0  0
    5.0354    3.1720   -1.7614 H   0  0  0  0  0  0  0  0  0  0  0  0
    3.5206    1.0810   -2.9575 H   0  0  0  0  0  0  0  0  0  0  0  0
    2.8781   -1.1843    1.1356 H   0  0  0  0  0  0  0  0  0  0  0  0
    1.6801   -1.8522    0.0664 H   0  0  0  0  0  0  0  0  0  0  0  0
    1.3964   -1.8955    1.8322 H   0  0  0  0  0  0  0  0  0  0  0  0
    2.6946    0.9251    2.3087 H   0  0  0  0  0  0  0  0  0  0  0  0
    1.3333    0.2313    3.2047 H   0  0  0  0  0  0  0  0  0  0  0  0
    1.1483    1.8280    2.3974 H   0  0  0  0  0  0  0  0  0  0  0  0
   -0.7475    1.1608    1.1180 H   0  0  0  0  0  0  0  0  0  0  0  0
   -0.6950   -0.4221    3.0752 H   0  0  0  0  0  0  0  0  0  0  0  0
   -1.0158   -1.7883    1.9862 H   0  0  0  0  0  0  0  0  0  0  0  0
   -2.6135    0.7911    2.4335 H   0  0  0  0  0  0  0  0  0  0  0  0
   -3.0509   -0.7928    3.1210 H   0  0  0  0  0  0  0  0  0  0  0  0
   -4.1494   -2.5124    1.7922 H   0  0  0  0  0  0  0  0  0  0  0  0
   -2.7540   -2.7100    0.8386 H   0  0  0  0  0  0  0  0  0  0  0  0
   -4.2898   -2.4317   -0.0076 H   0  0  0  0  0  0  0  0  0  0  0  0
   -4.3861    1.9482    2.2169 H   0  0  0  0  0  0  0  0  0  0  0  0
   -5.8779    2.1131    1.2770 H   0  0  0  0  0  0  0  0  0  0  0  0
   -4.3575    2.2196    0.4325 H   0  0  0  0  0  0  0  0  0  0  0  0
   -6.4765    0.4229    2.6444 H   0  0  0  0  0  0  0  0  0  0  0  0
   -5.2087   -0.6752    3.1114 H   0  0  0  0  0  0  0  0  0  0  0  0
   -7.3149   -1.9058    2.7572 H   0  0  0  0  0  0  0  0  0  0  0  0
   -6.2248   -2.3456    1.4241 H   0  0  0  0  0  0  0  0  0  0  0  0
   -9.2248   -3.0790    1.9557 H   0  0  0  0  0  0  0  0  0  0  0  0
   -8.5738    0.5767    2.1952 H   0  0  0  0  0  0  0  0  0  0  0  0
   -9.6184   -0.8321    2.1270 H   0  0  0  0  0  0  0  0  0  0  0  0
   -9.6269    1.7008    0.6182 H   0  0  0  0  0  0  0  0  0  0  0  0
  -10.9426    0.4999    0.7496 H   0  0  0  0  0  0  0  0  0  0  0  0
   -9.8536   -0.7730   -1.1711 H   0  0  0  0  0  0  0  0  0  0  0  0
  -10.2944    2.1992   -1.7634 H   0  0  0  0  0  0  0  0  0  0  0  0
  -11.5301    0.8975   -1.6970 H   0  0  0  0  0  0  0  0  0  0  0  0
  -10.2670    0.8460   -2.9705 H   0  0  0  0  0  0  0  0  0  0  0  0
  1  2  1  0  0  0  0
  1 54  1  0  0  0  0
  1 55  1  0  0  0  0
  1 56  1  0  0  0  0
  2  3  2  0  0  0  0
  3  4  1  0  0  0  0
  4  5  2  0  0  0  0
  5  6  1  0  0  0  0
  5 57  1  0  0  0  0
  6 58  1  0  0  0  0
  6 59  1  0  0  0  0
  7  6  1  0  0  0  0
  7  8  1  0  0  0  0
  7 60  1  1  0  0  0
  8  9  1  6  0  0  0
  8 10  1  0  0  0  0
  9 61  1  0  0  0  0
  9 62  1  0  0  0  0
  9 63  1  0  0  0  0
 10 11  1  0  0  0  0
 10 64  1  0  0  0  0
 10 65  1  0  0  0  0
 11 12  1  0  0  0  0
 11 66  1  0  0  0  0
 11 67  1  0  0  0  0
 12 13  1  0  0  0  0
 12 34  1  0  0  0  0
 12 68  1  1  0  0  0
 14 13  1  0  0  0  0
 14 15  1  0  0  0  0
 14 69  1  6  0  0  0
 15 16  1  0  0  0  0
 16 17  1  0  0  0  0
 16 70  1  0  0  0  0
 16 71  1  0  0  0  0
 17 18  1  0  0  0  0
 17 30  1  0  0  0  0
 17 72  1  1  0  0  0
 19 18  1  0  0  0  0
 19 20  1  0  0  0  0
 19 73  1  1  0  0  0
 20 21  1  0  0  0  0
 21 22  1  0  0  0  0
 21 24  1  0  0  0  0
 21 74  1  1  0  0  0
 22 23  1  0  0  0  0
 22 75  1  0  0  0  0
 22 76  1  0  0  0  0
 23 77  1  0  0  0  0
 24 25  1  0  0  0  0
 24 26  1  0  0  0  0
 24 78  1  1  0  0  0
 25 79  1  0  0  0  0
 26 27  1  0  0  0  0
 26 28  1  0  0  0  0
 26 80  1  6  0  0  0
 27 81  1  0  0  0  0
 28 29  1  0  0  0  0
 28 19  1  0  0  0  0
 28 82  1  6  0  0  0
 29 83  1  0  0  0  0
 30 31  1  0  0  0  0
 30 32  1  0  0  0  0
 30 84  1  6  0  0  0
 31 85  1  0  0  0  0
 32 33  1  0  0  0  0
 32 14  1  0  0  0  0
 32 86  1  6  0  0  0
 33 87  1  0  0  0  0
 34 35  1  0  0  0  0
 34 36  1  0  0  0  0
 34 37  1  0  0  0  0
 35 88  1  0  0  0  0
 35 89  1  0  0  0  0
 35 90  1  0  0  0  0
 36 91  1  0  0  0  0
 36 92  1  0  0  0  0
 36 93  1  0  0  0  0
 37 38  1  0  0  0  0
 37  8  1  0  0  0  0
 37 94  1  1  0  0  0
 38 39  1  0  0  0  0
 38 95  1  0  0  0  0
 38 96  1  0  0  0  0
 39 40  1  0  0  0  0
 39 97  1  0  0  0  0
 39 98  1  0  0  0  0
 40 41  1  6  0  0  0
 40 42  1  0  0  0  0
 40  7  1  0  0  0  0
 41 99  1  0  0  0  0
 41100  1  0  0  0  0
 41101  1  0  0  0  0
 42 43  1  1  0  0  0
 42 44  1  0  0  0  0
 42  4  1  0  0  0  0
 43102  1  0  0  0  0
 43103  1  0  0  0  0
 43104  1  0  0  0  0
 44 45  1  0  0  0  0
 44105  1  0  0  0  0
 44106  1  0  0  0  0
 45 46  1  0  0  0  0
 45107  1  0  0  0  0
 45108  1  0  0  0  0
 46 47  1  6  0  0  0
 46 50  1  0  0  0  0
 46  3  1  0  0  0  0
 47 48  2  0  0  0  0
 47 49  1  0  0  0  0
 49109  1  0  0  0  0
 50 51  1  0  0  0  0
 50110  1  0  0  0  0
 50111  1  0  0  0  0
 51 52  1  0  0  0  0
 51112  1  0  0  0  0
 51113  1  0  0  0  0
 52 53  1  0  0  0  0
 52  2  1  0  0  0  0
 52114  1  6  0  0  0
 53115  1  0  0  0  0
 53116  1  0  0  0  0
 53117  1  0  0  0  0
M  END
>  <IDENTIFIER>
CNP0155189.1

>  <Energy>
1600.44

$$$$
