
 OpenBabel09072520163D

 90 97  0  0  0  0  0  0  0  0999 V2000
   11.0938   -2.2102    0.3032 C   0  0  0  0  0  0  0  0  0  0  0  0
   10.3732   -0.9421   -0.1575 C   0  0  1  0  0  0  0  0  0  0  0  0
    8.9742   -1.2115   -0.2367 O   0  0  0  0  0  0  0  0  0  0  0  0
    8.1267   -0.0562   -0.2712 C   0  0  1  0  0  0  0  0  0  0  0  0
    7.4846    0.0245    0.9867 O   0  0  0  0  0  0  0  0  0  0  0  0
    6.0692    0.1990    1.0073 C   0  0  1  0  0  0  0  0  0  0  0  0
    5.7877    0.5408    2.4923 C   0  0  0  0  0  0  0  0  0  0  0  0
    5.5723    1.4009    0.1519 C   0  0  0  0  0  0  0  0  0  0  0  0
    4.1141    1.2148   -0.0766 C   0  0  0  0  0  0  0  0  0  0  0  0
    3.3151    1.8940    0.5522 O   0  0  0  0  0  0  0  0  0  0  0  0
    3.6835    0.0756   -1.0317 C   0  0  2  0  0  0  0  0  0  0  0  0
    4.0028    0.4323   -2.3643 O   0  0  0  0  0  0  0  0  0  0  0  0
    2.1490   -0.1015   -0.9988 C   0  0  0  0  0  0  0  0  0  0  0  0
    1.5658   -1.3048   -0.7747 C   0  0  0  0  0  0  0  0  0  0  0  0
    2.3890   -2.5219   -0.6228 C   0  0  0  0  0  0  0  0  0  0  0  0
    3.7210   -2.4996   -0.6086 C   0  0  0  0  0  0  0  0  0  0  0  0
    4.5539   -1.2333   -0.6832 C   0  0  1  0  0  0  0  0  0  0  0  0
    5.5241   -1.4089   -1.6907 O   0  0  0  0  0  0  0  0  0  0  0  0
    5.2595   -1.1221    0.7117 C   0  0  0  0  0  0  0  0  0  0  0  0
    0.0725   -1.4416   -0.7248 C   0  0  0  0  0  0  0  0  0  0  0  0
   -0.4319   -2.5333   -0.5036 O   0  0  0  0  0  0  0  0  0  0  0  0
   -0.8013   -0.2616   -0.9433 C   0  0  0  0  0  0  0  0  0  0  0  0
   -2.2113   -0.3524   -0.8713 C   0  0  0  0  0  0  0  0  0  0  0  0
   -3.0087    0.7799   -1.1271 C   0  0  0  0  0  0  0  0  0  0  0  0
   -4.5181    0.7393   -1.0662 C   0  0  2  0  0  0  0  0  0  0  0  0
   -5.0339    0.7384    0.3996 C   0  0  0  0  0  0  0  0  0  0  0  0
   -6.5588    0.8132    0.3015 C   0  0  2  0  0  0  0  0  0  0  0  0
   -7.1534    0.8889    1.5860 O   0  0  0  0  0  0  0  0  0  0  0  0
   -8.5623    0.7734    1.4845 C   0  0  1  0  0  0  0  0  0  0  0  0
   -9.2259    1.9444    0.7402 C   0  0  0  0  0  0  0  0  0  0  0  0
  -10.6876    1.6657    0.7565 C   0  0  0  0  0  0  0  0  0  0  0  0
  -11.4835    2.5051    1.1505 O   0  0  0  0  0  0  0  0  0  0  0  0
  -11.1432    0.2927    0.3265 C   0  0  2  0  0  0  0  0  0  0  0  0
  -11.9692   -0.3965    1.4184 C   0  0  0  0  0  0  0  0  0  0  0  0
  -10.0495   -0.5229   -0.0898 O   0  0  0  0  0  0  0  0  0  0  0  0
   -8.9732   -0.6022    0.8536 C   0  0  1  0  0  0  0  0  0  0  0  0
   -7.8639   -1.2545    0.2502 O   0  0  0  0  0  0  0  0  0  0  0  0
   -7.1143   -0.3652   -0.5546 C   0  0  2  0  0  0  0  0  0  0  0  0
   -5.9572   -1.1568   -1.2363 C   0  0  1  0  0  0  0  0  0  0  0  0
   -6.5106   -2.1766   -2.2316 C   0  0  0  0  0  0  0  0  0  0  0  0
   -5.0451   -0.2942   -1.9061 O   0  0  0  0  0  0  0  0  0  0  0  0
   -2.3858    1.9948   -1.4503 C   0  0  0  0  0  0  0  0  0  0  0  0
   -1.0017    2.0922   -1.4990 C   0  0  0  0  0  0  0  0  0  0  0  0
   -0.2015    0.9707   -1.2432 C   0  0  0  0  0  0  0  0  0  0  0  0
    1.2717    1.0836   -1.2891 C   0  0  0  0  0  0  0  0  0  0  0  0
    1.7714    2.1594   -1.5848 O   0  0  0  0  0  0  0  0  0  0  0  0
    8.8804    1.2756   -0.5544 C   0  0  0  0  0  0  0  0  0  0  0  0
    9.9113    1.5057    0.5489 C   0  0  0  0  0  0  0  0  0  0  0  0
   10.6790    0.2374    0.7553 C   0  0  0  0  0  0  0  0  0  0  0  0
   11.4863    0.1569    1.6698 O   0  0  0  0  0  0  0  0  0  0  0  0
   10.8781   -3.0427   -0.3990 H   0  0  0  0  0  0  0  0  0  0  0  0
   10.7437   -2.5008    1.3176 H   0  0  0  0  0  0  0  0  0  0  0  0
   12.1923   -2.0463    0.3300 H   0  0  0  0  0  0  0  0  0  0  0  0
   10.7367   -0.6993   -1.1803 H   0  0  0  0  0  0  0  0  0  0  0  0
    7.4287   -0.2017   -1.1084 H   0  0  0  0  0  0  0  0  0  0  0  0
    6.3487    1.4506    2.7972 H   0  0  0  0  0  0  0  0  0  0  0  0
    6.1183   -0.2950    3.1482 H   0  0  0  0  0  0  0  0  0  0  0  0
    4.7079    0.7258    2.6798 H   0  0  0  0  0  0  0  0  0  0  0  0
    6.0115    1.4473   -0.8622 H   0  0  0  0  0  0  0  0  0  0  0  0
    5.8186    2.3631    0.6535 H   0  0  0  0  0  0  0  0  0  0  0  0
    3.9495    1.4168   -2.4784 H   0  0  0  0  0  0  0  0  0  0  0  0
    1.8987   -3.4855   -0.5196 H   0  0  0  0  0  0  0  0  0  0  0  0
    4.2404   -3.4452   -0.4730 H   0  0  0  0  0  0  0  0  0  0  0  0
    6.0801   -2.2007   -1.4627 H   0  0  0  0  0  0  0  0  0  0  0  0
    5.8657   -2.0162    0.9791 H   0  0  0  0  0  0  0  0  0  0  0  0
    4.3884   -1.1404    1.4088 H   0  0  0  0  0  0  0  0  0  0  0  0
   -2.6874   -1.2958   -0.6330 H   0  0  0  0  0  0  0  0  0  0  0  0
   -4.8905    1.6972   -1.4952 H   0  0  0  0  0  0  0  0  0  0  0  0
   -4.6470    1.6290    0.9421 H   0  0  0  0  0  0  0  0  0  0  0  0
   -4.7064   -0.1671    0.9553 H   0  0  0  0  0  0  0  0  0  0  0  0
   -6.7420    1.7710   -0.2355 H   0  0  0  0  0  0  0  0  0  0  0  0
   -8.9751    0.8076    2.5185 H   0  0  0  0  0  0  0  0  0  0  0  0
   -8.9131    1.9697   -0.3232 H   0  0  0  0  0  0  0  0  0  0  0  0
   -8.9892    2.9242    1.2084 H   0  0  0  0  0  0  0  0  0  0  0  0
  -11.8064    0.4316   -0.5541 H   0  0  0  0  0  0  0  0  0  0  0  0
  -11.3762   -0.5340    2.3459 H   0  0  0  0  0  0  0  0  0  0  0  0
  -12.3155   -1.3872    1.0566 H   0  0  0  0  0  0  0  0  0  0  0  0
  -12.8625    0.2175    1.6640 H   0  0  0  0  0  0  0  0  0  0  0  0
   -9.2633   -1.2766    1.6880 H   0  0  0  0  0  0  0  0  0  0  0  0
   -7.7686    0.0587   -1.3522 H   0  0  0  0  0  0  0  0  0  0  0  0
   -5.3965   -1.7423   -0.4725 H   0  0  0  0  0  0  0  0  0  0  0  0
   -7.0705   -1.6633   -3.0416 H   0  0  0  0  0  0  0  0  0  0  0  0
   -7.1891   -2.8919   -1.7191 H   0  0  0  0  0  0  0  0  0  0  0  0
   -5.6747   -2.7519   -2.6831 H   0  0  0  0  0  0  0  0  0  0  0  0
   -2.9725    2.8829   -1.6507 H   0  0  0  0  0  0  0  0  0  0  0  0
   -0.5583    3.0510   -1.7364 H   0  0  0  0  0  0  0  0  0  0  0  0
    8.1969    2.1471   -0.6082 H   0  0  0  0  0  0  0  0  0  0  0  0
    9.3907    1.1928   -1.5394 H   0  0  0  0  0  0  0  0  0  0  0  0
    9.3761    1.7388    1.4953 H   0  0  0  0  0  0  0  0  0  0  0  0
   10.5796    2.3573    0.3000 H   0  0  0  0  0  0  0  0  0  0  0  0
  1 51  1  0  0  0  0
  1 52  1  0  0  0  0
  1 53  1  0  0  0  0
  2  1  1  0  0  0  0
  2  3  1  0  0  0  0
  2 54  1  6  0  0  0
  3  4  1  0  0  0  0
  4  5  1  0  0  0  0
  4 47  1  0  0  0  0
  4 55  1  6  0  0  0
  6  5  1  6  0  0  0
  6  7  1  0  0  0  0
  6  8  1  0  0  0  0
  7 56  1  0  0  0  0
  7 57  1  0  0  0  0
  7 58  1  0  0  0  0
  8  9  1  0  0  0  0
  8 59  1  0  0  0  0
  8 60  1  0  0  0  0
  9 10  2  0  0  0  0
  9 11  1  0  0  0  0
 11 12  1  6  0  0  0
 11 13  1  0  0  0  0
 12 61  1  0  0  0  0
 13 14  2  0  0  0  0
 14 15  1  0  0  0  0
 14 20  1  0  0  0  0
 15 16  2  0  0  0  0
 15 62  1  0  0  0  0
 16 17  1  0  0  0  0
 16 63  1  0  0  0  0
 17 18  1  6  0  0  0
 17 19  1  0  0  0  0
 17 11  1  0  0  0  0
 18 64  1  0  0  0  0
 19  6  1  0  0  0  0
 19 65  1  0  0  0  0
 19 66  1  0  0  0  0
 20 21  2  0  0  0  0
 20 22  1  0  0  0  0
 22 23  2  0  0  0  0
 23 24  1  0  0  0  0
 23 67  1  0  0  0  0
 24 42  2  0  0  0  0
 25 24  1  0  0  0  0
 25 26  1  0  0  0  0
 25 68  1  6  0  0  0
 26 69  1  0  0  0  0
 26 70  1  0  0  0  0
 27 26  1  0  0  0  0
 27 28  1  0  0  0  0
 27 71  1  6  0  0  0
 28 29  1  0  0  0  0
 29 30  1  0  0  0  0
 29 72  1  1  0  0  0
 30 31  1  0  0  0  0
 30 73  1  0  0  0  0
 30 74  1  0  0  0  0
 31 32  2  0  0  0  0
 31 33  1  0  0  0  0
 33 34  1  0  0  0  0
 33 35  1  0  0  0  0
 33 75  1  6  0  0  0
 34 76  1  0  0  0  0
 34 77  1  0  0  0  0
 34 78  1  0  0  0  0
 36 35  1  0  0  0  0
 36 37  1  0  0  0  0
 36 29  1  0  0  0  0
 36 79  1  1  0  0  0
 38 37  1  0  0  0  0
 38 39  1  0  0  0  0
 38 27  1  0  0  0  0
 38 80  1  6  0  0  0
 39 40  1  0  0  0  0
 39 41  1  0  0  0  0
 39 81  1  1  0  0  0
 40 82  1  0  0  0  0
 40 83  1  0  0  0  0
 40 84  1  0  0  0  0
 41 25  1  0  0  0  0
 42 43  1  0  0  0  0
 42 85  1  0  0  0  0
 43 44  2  0  0  0  0
 43 86  1  0  0  0  0
 44 45  1  0  0  0  0
 44 22  1  0  0  0  0
 45 46  2  0  0  0  0
 45 13  1  0  0  0  0
 47 48  1  0  0  0  0
 47 87  1  0  0  0  0
 47 88  1  0  0  0  0
 48 49  1  0  0  0  0
 48 89  1  0  0  0  0
 48 90  1  0  0  0  0
 49 50  2  0  0  0  0
 49  2  1  0  0  0  0
M  END
>  <IDENTIFIER>
CNP0080817.0

>  <Energy>
1254.21

$$$$
