
 OpenBabel09072508323D

121129  0  0  0  0  0  0  0  0999 V2000
   -1.9896   -3.0611   -0.1653 C   0  0  0  0  0  0  0  0  0  0  0  0
   -1.2282   -1.8921    0.0460 O   0  0  0  0  0  0  0  0  0  0  0  0
   -1.8516   -0.7670   -0.5624 C   0  0  2  0  0  0  0  0  0  0  0  0
   -0.8095   -0.0384   -1.3851 C   0  0  0  0  0  0  0  0  0  0  0  0
    0.3736    0.3868   -0.4668 C   0  0  2  0  0  0  0  0  0  0  0  0
    1.3774   -0.6256   -0.4726 O   0  0  0  0  0  0  0  0  0  0  0  0
    2.6821   -0.0631   -0.5991 C   0  0  1  0  0  0  0  0  0  0  0  0
    3.6461   -0.5472    0.5315 C   0  0  0  0  0  0  0  0  0  0  0  0
    4.5139   -1.6944    0.0508 C   0  0  0  0  0  0  0  0  0  0  0  0
    5.4423   -1.3210   -1.1901 C   0  0  1  0  0  0  0  0  0  0  0  0
    5.5576   -2.6600   -1.9819 C   0  0  0  0  0  0  0  0  0  0  0  0
    4.7298   -0.2239   -2.1173 C   0  0  2  0  0  0  0  0  0  0  0  0
    5.0437    1.2736   -1.7904 C   0  0  0  0  0  0  0  0  0  0  0  0
    6.5160    1.5636   -1.7622 C   0  0  0  0  0  0  0  0  0  0  0  0
    7.1419    0.6483   -0.7247 C   0  0  2  0  0  0  0  0  0  0  0  0
    7.3936    1.0811    0.5844 O   0  0  0  0  0  0  0  0  0  0  0  0
    8.4950    1.1034   -0.3353 C   0  0  2  0  0  0  0  0  0  0  0  0
    9.0733    2.5053   -0.2632 C   0  0  0  0  0  0  0  0  0  0  0  0
   10.3125    2.2508    0.5218 C   0  0  0  0  0  0  0  0  0  0  0  0
   10.6136    0.9476    0.6584 C   0  0  0  0  0  0  0  0  0  0  0  0
   11.8604    0.4720    1.3387 C   0  0  0  0  0  0  0  0  0  0  0  0
   12.7841    1.2637    1.8820 C   0  0  0  0  0  0  0  0  0  0  0  0
   13.7995    0.3918    2.4134 C   0  0  0  0  0  0  0  0  0  0  0  0
   14.8130    0.7579    2.9831 O   0  0  0  0  0  0  0  0  0  0  0  0
   13.4906   -0.8976    2.2004 O   0  0  0  0  0  0  0  0  0  0  0  0
   12.2835   -0.9699    1.5320 C   0  0  0  0  0  0  0  0  0  0  0  0
    9.6002    0.0755   -0.0715 C   0  0  2  0  0  0  0  0  0  0  0  0
   10.2515   -0.3802   -1.3991 C   0  0  0  0  0  0  0  0  0  0  0  0
    9.0454   -1.1144    0.7412 C   0  0  0  0  0  0  0  0  0  0  0  0
    7.6780   -1.6805    0.2433 C   0  0  0  0  0  0  0  0  0  0  0  0
    6.9483   -0.8687   -0.8831 C   0  0  1  0  0  0  0  0  0  0  0  0
    3.2025   -0.3869   -2.0324 C   0  0  0  0  0  0  0  0  0  0  0  0
    0.0199    0.6113    0.9018 O   0  0  0  0  0  0  0  0  0  0  0  0
   -1.2709    1.1622    1.0689 C   0  0  1  0  0  0  0  0  0  0  0  0
   -1.3032    2.6127    0.5354 C   0  0  0  0  0  0  0  0  0  0  0  0
   -2.3826    0.2037    0.5261 C   0  0  1  0  0  0  0  0  0  0  0  0
   -3.4559    0.9887    0.0119 O   0  0  0  0  0  0  0  0  0  0  0  0
   -4.6388    0.8564    0.7831 C   0  0  2  0  0  0  0  0  0  0  0  0
   -5.4077   -0.1905    0.1802 O   0  0  0  0  0  0  0  0  0  0  0  0
   -6.7878   -0.0531    0.4349 C   0  0  2  0  0  0  0  0  0  0  0  0
   -7.4884   -1.3721    0.0500 C   0  0  0  0  0  0  0  0  0  0  0  0
   -8.7215   -1.5601    0.7155 O   0  0  0  0  0  0  0  0  0  0  0  0
   -9.8280   -0.9981    0.0395 C   0  0  2  0  0  0  0  0  0  0  0  0
  -10.5837   -0.3071    1.0211 O   0  0  0  0  0  0  0  0  0  0  0  0
  -11.6915    0.3671    0.4535 C   0  0  2  0  0  0  0  0  0  0  0  0
  -12.3699    1.1815    1.5643 C   0  0  0  0  0  0  0  0  0  0  0  0
  -11.4741    2.1166    2.1017 O   0  0  0  0  0  0  0  0  0  0  0  0
  -12.6798   -0.6592   -0.1555 C   0  0  1  0  0  0  0  0  0  0  0  0
  -13.8043   -0.0311   -0.7170 O   0  0  0  0  0  0  0  0  0  0  0  0
  -11.9439   -1.5085   -1.2121 C   0  0  2  0  0  0  0  0  0  0  0  0
  -12.7858   -2.5035   -1.7509 O   0  0  0  0  0  0  0  0  0  0  0  0
  -10.6756   -2.1234   -0.5872 C   0  0  1  0  0  0  0  0  0  0  0  0
   -9.9419   -2.8479   -1.5421 O   0  0  0  0  0  0  0  0  0  0  0  0
   -7.3427    1.1986   -0.3358 C   0  0  1  0  0  0  0  0  0  0  0  0
   -8.5335    1.6674    0.2502 O   0  0  0  0  0  0  0  0  0  0  0  0
   -6.2759    2.3385   -0.4117 C   0  0  2  0  0  0  0  0  0  0  0  0
   -5.4937    2.2636   -1.5873 O   0  0  0  0  0  0  0  0  0  0  0  0
   -5.3636    2.2505    0.8157 C   0  0  1  0  0  0  0  0  0  0  0  0
   -6.1559    2.3888    1.9712 O   0  0  0  0  0  0  0  0  0  0  0  0
   -1.5202   -3.8954    0.3944 H   0  0  0  0  0  0  0  0  0  0  0  0
   -1.9908   -3.3398   -1.2425 H   0  0  0  0  0  0  0  0  0  0  0  0
   -3.0261   -2.9465    0.2252 H   0  0  0  0  0  0  0  0  0  0  0  0
   -2.7067   -1.0577   -1.2238 H   0  0  0  0  0  0  0  0  0  0  0  0
   -1.3178    0.8533   -1.8100 H   0  0  0  0  0  0  0  0  0  0  0  0
   -0.4388   -0.6306   -2.2498 H   0  0  0  0  0  0  0  0  0  0  0  0
    0.7295    1.3315   -0.9412 H   0  0  0  0  0  0  0  0  0  0  0  0
    2.6768    1.0348   -0.4231 H   0  0  0  0  0  0  0  0  0  0  0  0
    3.0573   -0.8018    1.4392 H   0  0  0  0  0  0  0  0  0  0  0  0
    4.3582    0.2463    0.8378 H   0  0  0  0  0  0  0  0  0  0  0  0
    3.7596   -2.4578   -0.2489 H   0  0  0  0  0  0  0  0  0  0  0  0
    5.0611   -2.1861    0.8724 H   0  0  0  0  0  0  0  0  0  0  0  0
    4.5669   -3.0447   -2.3010 H   0  0  0  0  0  0  0  0  0  0  0  0
    6.0338   -3.4512   -1.3652 H   0  0  0  0  0  0  0  0  0  0  0  0
    6.1615   -2.5329   -2.9057 H   0  0  0  0  0  0  0  0  0  0  0  0
    5.0837   -0.3806   -3.1609 H   0  0  0  0  0  0  0  0  0  0  0  0
    4.6767    1.6034   -0.8060 H   0  0  0  0  0  0  0  0  0  0  0  0
    4.5605    1.9241   -2.5522 H   0  0  0  0  0  0  0  0  0  0  0  0
    6.6753    2.6392   -1.5295 H   0  0  0  0  0  0  0  0  0  0  0  0
    6.9576    1.3448   -2.7592 H   0  0  0  0  0  0  0  0  0  0  0  0
    8.3984    3.2067    0.2766 H   0  0  0  0  0  0  0  0  0  0  0  0
    9.3382    2.9128   -1.2614 H   0  0  0  0  0  0  0  0  0  0  0  0
   10.9288    3.0612    0.8869 H   0  0  0  0  0  0  0  0  0  0  0  0
   12.7895    2.3425    1.9181 H   0  0  0  0  0  0  0  0  0  0  0  0
   11.5504   -1.5167    2.1603 H   0  0  0  0  0  0  0  0  0  0  0  0
   12.4274   -1.4833    0.5614 H   0  0  0  0  0  0  0  0  0  0  0  0
   11.1210   -1.0360   -1.2092 H   0  0  0  0  0  0  0  0  0  0  0  0
   10.6085    0.5004   -1.9781 H   0  0  0  0  0  0  0  0  0  0  0  0
    9.5694   -0.9462   -2.0531 H   0  0  0  0  0  0  0  0  0  0  0  0
    8.8740   -0.7256    1.7715 H   0  0  0  0  0  0  0  0  0  0  0  0
    9.7797   -1.9374    0.8480 H   0  0  0  0  0  0  0  0  0  0  0  0
    7.0551   -1.6753    1.1577 H   0  0  0  0  0  0  0  0  0  0  0  0
    7.7848   -2.7421   -0.0580 H   0  0  0  0  0  0  0  0  0  0  0  0
    7.4915   -1.0419   -1.8293 H   0  0  0  0  0  0  0  0  0  0  0  0
    2.9583   -1.4391   -2.2881 H   0  0  0  0  0  0  0  0  0  0  0  0
    2.6685    0.2511   -2.7694 H   0  0  0  0  0  0  0  0  0  0  0  0
   -1.4617    1.2797    2.1580 H   0  0  0  0  0  0  0  0  0  0  0  0
   -1.1637    2.6770   -0.5596 H   0  0  0  0  0  0  0  0  0  0  0  0
   -0.4944    3.1993    1.0216 H   0  0  0  0  0  0  0  0  0  0  0  0
   -2.2660    3.0985    0.7894 H   0  0  0  0  0  0  0  0  0  0  0  0
   -2.6979   -0.4959    1.3374 H   0  0  0  0  0  0  0  0  0  0  0  0
   -4.3995    0.6130    1.8446 H   0  0  0  0  0  0  0  0  0  0  0  0
   -6.8992    0.0562    1.5389 H   0  0  0  0  0  0  0  0  0  0  0  0
   -6.8431   -2.1990    0.4176 H   0  0  0  0  0  0  0  0  0  0  0  0
   -7.5430   -1.5221   -1.0521 H   0  0  0  0  0  0  0  0  0  0  0  0
   -9.5234   -0.2973   -0.7695 H   0  0  0  0  0  0  0  0  0  0  0  0
  -11.3470    1.0880   -0.3242 H   0  0  0  0  0  0  0  0  0  0  0  0
  -12.7539    0.5090    2.3685 H   0  0  0  0  0  0  0  0  0  0  0  0
  -13.2434    1.7325    1.1585 H   0  0  0  0  0  0  0  0  0  0  0  0
  -10.9344    1.6402    2.7868 H   0  0  0  0  0  0  0  0  0  0  0  0
  -13.0272   -1.3339    0.6570 H   0  0  0  0  0  0  0  0  0  0  0  0
  -13.4789    0.6093   -1.4046 H   0  0  0  0  0  0  0  0  0  0  0  0
  -11.6329   -0.8351   -2.0461 H   0  0  0  0  0  0  0  0  0  0  0  0
  -13.0531   -3.0969   -1.0068 H   0  0  0  0  0  0  0  0  0  0  0  0
  -10.9773   -2.8244    0.2240 H   0  0  0  0  0  0  0  0  0  0  0  0
   -9.6770   -2.2156   -2.2605 H   0  0  0  0  0  0  0  0  0  0  0  0
   -7.5853    0.9401   -1.3899 H   0  0  0  0  0  0  0  0  0  0  0  0
   -8.3752    1.8241    1.2147 H   0  0  0  0  0  0  0  0  0  0  0  0
   -6.8056    3.3153   -0.4637 H   0  0  0  0  0  0  0  0  0  0  0  0
   -5.3639    1.3143   -1.8421 H   0  0  0  0  0  0  0  0  0  0  0  0
   -4.6233    3.0806    0.8205 H   0  0  0  0  0  0  0  0  0  0  0  0
   -5.5569    2.3044    2.7570 H   0  0  0  0  0  0  0  0  0  0  0  0
  1  2  1  0  0  0  0
  1 60  1  0  0  0  0
  1 61  1  0  0  0  0
  1 62  1  0  0  0  0
  3  2  1  0  0  0  0
  3  4  1  0  0  0  0
  3 63  1  6  0  0  0
  4  5  1  0  0  0  0
  4 64  1  0  0  0  0
  4 65  1  0  0  0  0
  5  6  1  0  0  0  0
  5 33  1  0  0  0  0
  5 66  1  6  0  0  0
  7  6  1  0  0  0  0
  7  8  1  0  0  0  0
  7 67  1  1  0  0  0
  8  9  1  0  0  0  0
  8 68  1  0  0  0  0
  8 69  1  0  0  0  0
  9 10  1  0  0  0  0
  9 70  1  0  0  0  0
  9 71  1  0  0  0  0
 10 11  1  6  0  0  0
 10 12  1  0  0  0  0
 11 72  1  0  0  0  0
 11 73  1  0  0  0  0
 11 74  1  0  0  0  0
 12 13  1  0  0  0  0
 12 32  1  0  0  0  0
 12 75  1  6  0  0  0
 13 14  1  0  0  0  0
 13 76  1  0  0  0  0
 13 77  1  0  0  0  0
 14 78  1  0  0  0  0
 14 79  1  0  0  0  0
 15 14  1  0  0  0  0
 15 16  1  1  0  0  0
 17 16  1  1  0  0  0
 17 18  1  0  0  0  0
 17 15  1  0  0  0  0
 18 19  1  0  0  0  0
 18 80  1  0  0  0  0
 18 81  1  0  0  0  0
 19 20  2  0  0  0  0
 19 82  1  0  0  0  0
 20 21  1  0  0  0  0
 20 27  1  0  0  0  0
 21 22  2  0  0  0  0
 22 23  1  0  0  0  0
 22 83  1  0  0  0  0
 23 24  2  0  0  0  0
 23 25  1  0  0  0  0
 25 26  1  0  0  0  0
 26 21  1  0  0  0  0
 26 84  1  0  0  0  0
 26 85  1  0  0  0  0
 27 28  1  6  0  0  0
 27 29  1  0  0  0  0
 27 17  1  0  0  0  0
 28 86  1  0  0  0  0
 28 87  1  0  0  0  0
 28 88  1  0  0  0  0
 29 30  1  0  0  0  0
 29 89  1  0  0  0  0
 29 90  1  0  0  0  0
 30 91  1  0  0  0  0
 30 92  1  0  0  0  0
 31 30  1  0  0  0  0
 31 10  1  0  0  0  0
 31 15  1  0  0  0  0
 31 93  1  6  0  0  0
 32  7  1  0  0  0  0
 32 94  1  0  0  0  0
 32 95  1  0  0  0  0
 33 34  1  0  0  0  0
 34 35  1  0  0  0  0
 34 36  1  0  0  0  0
 34 96  1  1  0  0  0
 35 97  1  0  0  0  0
 35 98  1  0  0  0  0
 35 99  1  0  0  0  0
 36 37  1  0  0  0  0
 36  3  1  0  0  0  0
 36100  1  1  0  0  0
 38 37  1  0  0  0  0
 38 39  1  0  0  0  0
 38101  1  1  0  0  0
 39 40  1  0  0  0  0
 40 41  1  0  0  0  0
 40 54  1  0  0  0  0
 40102  1  1  0  0  0
 41 42  1  0  0  0  0
 41103  1  0  0  0  0
 41104  1  0  0  0  0
 43 42  1  0  0  0  0
 43 44  1  0  0  0  0
 43105  1  6  0  0  0
 44 45  1  0  0  0  0
 45 46  1  0  0  0  0
 45 48  1  0  0  0  0
 45106  1  6  0  0  0
 46 47  1  0  0  0  0
 46107  1  0  0  0  0
 46108  1  0  0  0  0
 47109  1  0  0  0  0
 48 49  1  0  0  0  0
 48 50  1  0  0  0  0
 48110  1  1  0  0  0
 49111  1  0  0  0  0
 50 51  1  0  0  0  0
 50 52  1  0  0  0  0
 50112  1  6  0  0  0
 51113  1  0  0  0  0
 52 53  1  0  0  0  0
 52 43  1  0  0  0  0
 52114  1  1  0  0  0
 53115  1  0  0  0  0
 54 55  1  0  0  0  0
 54 56  1  0  0  0  0
 54116  1  6  0  0  0
 55117  1  0  0  0  0
 56 57  1  0  0  0  0
 56 58  1  0  0  0  0
 56118  1  1  0  0  0
 57119  1  0  0  0  0
 58 59  1  0  0  0  0
 58 38  1  0  0  0  0
 58120  1  6  0  0  0
 59121  1  0  0  0  0
M  END
>  <IDENTIFIER>
CNP0205250.4

>  <Energy>
3343.12

$$$$
