
 OpenBabel09132508383D

114121  0  0  0  0  0  0  0  0999 V2000
  -12.2623    0.2629    0.5095 C   0  0  0  0  0  0  0  0  0  0  0  0
  -10.9076   -0.3994    0.2259 C   0  0  1  0  0  0  0  0  0  0  0  0
  -10.1547    0.2978   -0.9422 C   0  0  0  0  0  0  0  0  0  0  0  0
   -9.0495    1.2003   -0.3986 C   0  0  0  0  0  0  0  0  0  0  0  0
   -7.9861    0.3132    0.3514 C   0  0  2  0  0  0  0  0  0  0  0  0
   -8.6699   -0.6936    1.2356 N   0  0  0  0  0  0  0  0  0  0  0  0
  -10.0716   -0.3984    1.5288 C   0  0  0  0  0  0  0  0  0  0  0  0
   -7.1484    1.1621    1.1224 O   0  0  0  0  0  0  0  0  0  0  0  0
   -5.9729    0.4119    1.3999 C   0  0  2  0  0  0  0  0  0  0  0  0
   -4.6296    1.1576    1.1443 C   0  0  0  0  0  0  0  0  0  0  0  0
   -3.8839    0.3083    0.0958 C   0  0  1  0  0  0  0  0  0  0  0  0
   -2.3422    0.3589    0.0468 C   0  0  2  0  0  0  0  0  0  0  0  0
   -1.8546    1.7970   -0.2227 C   0  0  0  0  0  0  0  0  0  0  0  0
   -0.4597    1.8917   -0.7895 C   0  0  0  0  0  0  0  0  0  0  0  0
    0.3009    0.8289   -1.1355 C   0  0  0  0  0  0  0  0  0  0  0  0
    1.5588    1.1133   -1.9664 C   0  0  0  0  0  0  0  0  0  0  0  0
    2.5883    0.0099   -1.7475 C   0  0  1  0  0  0  0  0  0  0  0  0
    2.8847    0.0294   -0.3620 O   0  0  0  0  0  0  0  0  0  0  0  0
    4.2542    0.0960   -0.0084 C   0  0  2  0  0  0  0  0  0  0  0  0
    4.5484   -1.1062    0.7108 O   0  0  0  0  0  0  0  0  0  0  0  0
    5.4615   -1.0136    1.8074 C   0  0  2  0  0  0  0  0  0  0  0  0
    4.7399   -1.1735    3.1646 C   0  0  0  0  0  0  0  0  0  0  0  0
    3.8383   -0.1428    3.4319 O   0  0  0  0  0  0  0  0  0  0  0  0
    6.4796    0.1523    1.7024 C   0  0  1  0  0  0  0  0  0  0  0  0
    7.3368   -0.1633    0.6050 O   0  0  0  0  0  0  0  0  0  0  0  0
    8.7154    0.0846    0.8818 C   0  0  2  0  0  0  0  0  0  0  0  0
    9.0610    1.4008    0.4835 O   0  0  0  0  0  0  0  0  0  0  0  0
    9.0190    1.6294   -0.9289 C   0  0  1  0  0  0  0  0  0  0  0  0
    9.8973    2.8602   -1.1996 C   0  0  0  0  0  0  0  0  0  0  0  0
    9.5062    0.4146   -1.8053 C   0  0  2  0  0  0  0  0  0  0  0  0
    8.4427   -0.3798   -2.2922 O   0  0  0  0  0  0  0  0  0  0  0  0
   10.4362   -0.4705   -0.9734 C   0  0  1  0  0  0  0  0  0  0  0  0
   11.5937    0.2397   -0.5874 O   0  0  0  0  0  0  0  0  0  0  0  0
    9.6196   -1.0109    0.2257 C   0  0  1  0  0  0  0  0  0  0  0  0
   10.4492   -1.6738    1.1509 O   0  0  0  0  0  0  0  0  0  0  0  0
    5.8131    1.5243    1.4367 C   0  0  2  0  0  0  0  0  0  0  0  0
    5.7770    2.3435    2.5792 O   0  0  0  0  0  0  0  0  0  0  0  0
    4.4070    1.3796    0.8357 C   0  0  1  0  0  0  0  0  0  0  0  0
    4.0462    2.5358    0.1233 O   0  0  0  0  0  0  0  0  0  0  0  0
    1.9899   -1.3724   -2.1515 C   0  0  0  0  0  0  0  0  0  0  0  0
    0.4297   -1.4431   -2.1208 C   0  0  0  0  0  0  0  0  0  0  0  0
   -0.2085   -0.6236   -0.9690 C   0  0  1  0  0  0  0  0  0  0  0  0
    0.2636   -1.2330    0.3953 C   0  0  0  0  0  0  0  0  0  0  0  0
   -1.7941   -0.6110   -1.0592 C   0  0  1  0  0  0  0  0  0  0  0  0
   -2.4454   -2.0385   -0.9941 C   0  0  0  0  0  0  0  0  0  0  0  0
   -3.9911   -1.9917   -0.8909 C   0  0  0  0  0  0  0  0  0  0  0  0
   -4.4225   -1.1094    0.3081 C   0  0  1  0  0  0  0  0  0  0  0  0
   -3.9099   -1.7659    1.6434 C   0  0  0  0  0  0  0  0  0  0  0  0
   -5.9413   -0.8364    0.5020 C   0  0  2  0  0  0  0  0  0  0  0  0
   -6.9856   -0.4481   -0.5764 C   0  0  2  0  0  0  0  0  0  0  0  0
   -6.5123    0.4564   -1.7392 C   0  0  0  0  0  0  0  0  0  0  0  0
  -12.9011    0.2329   -0.3984 H   0  0  0  0  0  0  0  0  0  0  0  0
  -12.1261    1.3225    0.8155 H   0  0  0  0  0  0  0  0  0  0  0  0
  -12.7913   -0.2810    1.3218 H   0  0  0  0  0  0  0  0  0  0  0  0
  -11.1097   -1.4439   -0.1003 H   0  0  0  0  0  0  0  0  0  0  0  0
  -10.8638    0.8395   -1.6050 H   0  0  0  0  0  0  0  0  0  0  0  0
   -9.6538   -0.4688   -1.5725 H   0  0  0  0  0  0  0  0  0  0  0  0
   -9.5200    1.9230    0.3031 H   0  0  0  0  0  0  0  0  0  0  0  0
   -8.6008    1.8366   -1.1834 H   0  0  0  0  0  0  0  0  0  0  0  0
   -8.1687   -0.8174    2.1454 H   0  0  0  0  0  0  0  0  0  0  0  0
  -10.1135    0.5943    2.0323 H   0  0  0  0  0  0  0  0  0  0  0  0
  -10.4926   -1.1388    2.2438 H   0  0  0  0  0  0  0  0  0  0  0  0
   -5.9891    0.1096    2.4707 H   0  0  0  0  0  0  0  0  0  0  0  0
   -4.0516    1.1081    2.0934 H   0  0  0  0  0  0  0  0  0  0  0  0
   -4.7229    2.2286    0.8648 H   0  0  0  0  0  0  0  0  0  0  0  0
   -4.2124    0.6553   -0.8921 H   0  0  0  0  0  0  0  0  0  0  0  0
   -1.9714    0.0493    1.0356 H   0  0  0  0  0  0  0  0  0  0  0  0
   -1.9608    2.4071    0.6996 H   0  0  0  0  0  0  0  0  0  0  0  0
   -2.4921    2.2546   -1.0104 H   0  0  0  0  0  0  0  0  0  0  0  0
   -0.1031    2.8938   -1.0132 H   0  0  0  0  0  0  0  0  0  0  0  0
    2.0067    2.0930   -1.6903 H   0  0  0  0  0  0  0  0  0  0  0  0
    1.2838    1.1590   -3.0427 H   0  0  0  0  0  0  0  0  0  0  0  0
    3.4851    0.2069   -2.3767 H   0  0  0  0  0  0  0  0  0  0  0  0
    4.9509    0.1553   -0.8747 H   0  0  0  0  0  0  0  0  0  0  0  0
    6.0960   -1.9276    1.7609 H   0  0  0  0  0  0  0  0  0  0  0  0
    5.5076   -1.2190    3.9701 H   0  0  0  0  0  0  0  0  0  0  0  0
    4.1829   -2.1371    3.1467 H   0  0  0  0  0  0  0  0  0  0  0  0
    3.5096   -0.2944    4.3559 H   0  0  0  0  0  0  0  0  0  0  0  0
    7.0345    0.1903    2.6671 H   0  0  0  0  0  0  0  0  0  0  0  0
    8.9403    0.0056    1.9676 H   0  0  0  0  0  0  0  0  0  0  0  0
    8.0011    1.9481   -1.2458 H   0  0  0  0  0  0  0  0  0  0  0  0
   10.9538    2.6853   -0.9165 H   0  0  0  0  0  0  0  0  0  0  0  0
    9.5208    3.7249   -0.6123 H   0  0  0  0  0  0  0  0  0  0  0  0
    9.8596    3.1345   -2.2758 H   0  0  0  0  0  0  0  0  0  0  0  0
   10.0264    0.7944   -2.7120 H   0  0  0  0  0  0  0  0  0  0  0  0
    7.6006   -0.1600   -1.8238 H   0  0  0  0  0  0  0  0  0  0  0  0
   10.7874   -1.3407   -1.5692 H   0  0  0  0  0  0  0  0  0  0  0  0
   11.4202    0.7306    0.2554 H   0  0  0  0  0  0  0  0  0  0  0  0
    8.9203   -1.7854   -0.1608 H   0  0  0  0  0  0  0  0  0  0  0  0
   10.9662   -0.9897    1.6490 H   0  0  0  0  0  0  0  0  0  0  0  0
    6.4709    2.0442    0.7083 H   0  0  0  0  0  0  0  0  0  0  0  0
    5.3415    1.8329    3.3080 H   0  0  0  0  0  0  0  0  0  0  0  0
    3.6735    1.2769    1.6525 H   0  0  0  0  0  0  0  0  0  0  0  0
    4.6070    2.5663   -0.6955 H   0  0  0  0  0  0  0  0  0  0  0  0
    2.4522   -2.1471   -1.5022 H   0  0  0  0  0  0  0  0  0  0  0  0
    2.2795   -1.6249   -3.1950 H   0  0  0  0  0  0  0  0  0  0  0  0
    0.1146   -2.5073   -2.1351 H   0  0  0  0  0  0  0  0  0  0  0  0
    0.0579   -0.9849   -3.0655 H   0  0  0  0  0  0  0  0  0  0  0  0
   -0.1131   -2.2605    0.5420 H   0  0  0  0  0  0  0  0  0  0  0  0
   -0.0162   -0.6166    1.2682 H   0  0  0  0  0  0  0  0  0  0  0  0
    1.3474   -1.3616    0.4821 H   0  0  0  0  0  0  0  0  0  0  0  0
   -2.1053   -0.1869   -2.0422 H   0  0  0  0  0  0  0  0  0  0  0  0
   -2.0768   -2.6141   -0.1343 H   0  0  0  0  0  0  0  0  0  0  0  0
   -2.1656   -2.6257   -1.8934 H   0  0  0  0  0  0  0  0  0  0  0  0
   -4.3997   -3.0202   -0.7889 H   0  0  0  0  0  0  0  0  0  0  0  0
   -4.3744   -1.5793   -1.8397 H   0  0  0  0  0  0  0  0  0  0  0  0
   -4.3609   -2.7747    1.7594 H   0  0  0  0  0  0  0  0  0  0  0  0
   -4.1735   -1.1860    2.5480 H   0  0  0  0  0  0  0  0  0  0  0  0
   -2.8148   -1.8893    1.7010 H   0  0  0  0  0  0  0  0  0  0  0  0
   -6.4065   -1.7094    1.0146 H   0  0  0  0  0  0  0  0  0  0  0  0
   -7.4138   -1.3541   -1.0594 H   0  0  0  0  0  0  0  0  0  0  0  0
   -6.1626    1.4484   -1.3841 H   0  0  0  0  0  0  0  0  0  0  0  0
   -7.3451    0.6239   -2.4519 H   0  0  0  0  0  0  0  0  0  0  0  0
   -5.7383   -0.0301   -2.3547 H   0  0  0  0  0  0  0  0  0  0  0  0
  1 52  1  0  0  0  0
  1 53  1  0  0  0  0
  1 54  1  0  0  0  0
  2  1  1  0  0  0  0
  2  3  1  0  0  0  0
  2 55  1  6  0  0  0
  3  4  1  0  0  0  0
  3 56  1  0  0  0  0
  3 57  1  0  0  0  0
  4 58  1  0  0  0  0
  4 59  1  0  0  0  0
  5  4  1  0  0  0  0
  5  6  1  0  0  0  0
  5  8  1  1  0  0  0
  6  7  1  0  0  0  0
  6 60  1  0  0  0  0
  7  2  1  0  0  0  0
  7 61  1  0  0  0  0
  7 62  1  0  0  0  0
  8  9  1  0  0  0  0
  9 10  1  0  0  0  0
  9 63  1  1  0  0  0
 10 64  1  0  0  0  0
 10 65  1  0  0  0  0
 11 10  1  0  0  0  0
 11 12  1  0  0  0  0
 11 66  1  6  0  0  0
 12 13  1  0  0  0  0
 12 67  1  1  0  0  0
 13 14  1  0  0  0  0
 13 68  1  0  0  0  0
 13 69  1  0  0  0  0
 14 15  2  0  0  0  0
 14 70  1  0  0  0  0
 15 16  1  0  0  0  0
 16 17  1  0  0  0  0
 16 71  1  0  0  0  0
 16 72  1  0  0  0  0
 17 18  1  0  0  0  0
 17 40  1  0  0  0  0
 17 73  1  6  0  0  0
 19 18  1  0  0  0  0
 19 20  1  0  0  0  0
 19 74  1  6  0  0  0
 20 21  1  0  0  0  0
 21 22  1  0  0  0  0
 21 24  1  0  0  0  0
 21 75  1  6  0  0  0
 22 23  1  0  0  0  0
 22 76  1  0  0  0  0
 22 77  1  0  0  0  0
 23 78  1  0  0  0  0
 24 25  1  0  0  0  0
 24 36  1  0  0  0  0
 24 79  1  1  0  0  0
 26 25  1  0  0  0  0
 26 27  1  0  0  0  0
 26 80  1  1  0  0  0
 27 28  1  0  0  0  0
 28 29  1  0  0  0  0
 28 30  1  0  0  0  0
 28 81  1  6  0  0  0
 29 82  1  0  0  0  0
 29 83  1  0  0  0  0
 29 84  1  0  0  0  0
 30 31  1  0  0  0  0
 30 32  1  0  0  0  0
 30 85  1  6  0  0  0
 31 86  1  0  0  0  0
 32 33  1  0  0  0  0
 32 34  1  0  0  0  0
 32 87  1  6  0  0  0
 33 88  1  0  0  0  0
 34 35  1  0  0  0  0
 34 26  1  0  0  0  0
 34 89  1  6  0  0  0
 35 90  1  0  0  0  0
 36 37  1  0  0  0  0
 36 38  1  0  0  0  0
 36 91  1  6  0  0  0
 37 92  1  0  0  0  0
 38 39  1  0  0  0  0
 38 19  1  0  0  0  0
 38 93  1  1  0  0  0
 39 94  1  0  0  0  0
 40 41  1  0  0  0  0
 40 95  1  0  0  0  0
 40 96  1  0  0  0  0
 41 42  1  0  0  0  0
 41 97  1  0  0  0  0
 41 98  1  0  0  0  0
 42 43  1  1  0  0  0
 42 44  1  0  0  0  0
 42 15  1  0  0  0  0
 43 99  1  0  0  0  0
 43100  1  0  0  0  0
 43101  1  0  0  0  0
 44 45  1  0  0  0  0
 44 12  1  0  0  0  0
 44102  1  6  0  0  0
 45 46  1  0  0  0  0
 45103  1  0  0  0  0
 45104  1  0  0  0  0
 46 47  1  0  0  0  0
 46105  1  0  0  0  0
 46106  1  0  0  0  0
 47 48  1  1  0  0  0
 47 49  1  0  0  0  0
 47 11  1  0  0  0  0
 48107  1  0  0  0  0
 48108  1  0  0  0  0
 48109  1  0  0  0  0
 49 50  1  0  0  0  0
 49  9  1  0  0  0  0
 49110  1  1  0  0  0
 50 51  1  0  0  0  0
 50  5  1  0  0  0  0
 50111  1  6  0  0  0
 51112  1  0  0  0  0
 51113  1  0  0  0  0
 51114  1  0  0  0  0
M  END
>  <IDENTIFIER>
CNP0140612.7

>  <Energy>
1853.68

$$$$
