
 OpenBabel09122520593D

115122  0  0  0  0  0  0  0  0999 V2000
  -12.1328    1.6731    0.5729 C   0  0  0  0  0  0  0  0  0  0  0  0
  -11.2511    1.0551   -0.5185 C   0  0  1  0  0  0  0  0  0  0  0  0
  -10.1437    2.0582   -0.9260 C   0  0  0  0  0  0  0  0  0  0  0  0
   -8.9389    1.2934   -1.4591 C   0  0  0  0  0  0  0  0  0  0  0  0
   -8.3078    0.4730   -0.2744 C   0  0  2  0  0  0  0  0  0  0  0  0
   -9.3664   -0.1503    0.5917 N   0  0  0  0  0  0  0  0  0  0  0  0
  -10.6480   -0.3173   -0.1033 C   0  0  0  0  0  0  0  0  0  0  0  0
   -7.5523    1.3702    0.5204 O   0  0  0  0  0  0  0  0  0  0  0  0
   -6.6363    0.5797    1.2567 C   0  0  2  0  0  0  0  0  0  0  0  0
   -5.1843    1.1263    1.2374 C   0  0  0  0  0  0  0  0  0  0  0  0
   -4.3529    0.0341    0.5478 C   0  0  1  0  0  0  0  0  0  0  0  0
   -2.8394   -0.0150    0.8172 C   0  0  2  0  0  0  0  0  0  0  0  0
   -2.2084    1.3231    0.3904 C   0  0  0  0  0  0  0  0  0  0  0  0
   -0.7205    1.2705    0.2419 C   0  0  0  0  0  0  0  0  0  0  0  0
   -0.0079    0.1277    0.2554 C   0  0  0  0  0  0  0  0  0  0  0  0
    1.4645    0.1896   -0.0165 C   0  0  0  0  0  0  0  0  0  0  0  0
    1.8168   -0.5592   -1.3274 C   0  0  1  0  0  0  0  0  0  0  0  0
    3.0773   -1.1978   -1.1388 O   0  0  0  0  0  0  0  0  0  0  0  0
    4.1846   -0.4668   -1.6567 C   0  0  2  0  0  0  0  0  0  0  0  0
    4.8949   -1.3601   -2.5250 O   0  0  0  0  0  0  0  0  0  0  0  0
    6.2747   -1.0635   -2.7838 C   0  0  2  0  0  0  0  0  0  0  0  0
    7.1867   -2.1776   -2.2251 C   0  0  0  0  0  0  0  0  0  0  0  0
    7.1514   -2.2661   -0.8287 O   0  0  0  0  0  0  0  0  0  0  0  0
    6.6705    0.3922   -2.4244 C   0  0  2  0  0  0  0  0  0  0  0  0
    7.9905    0.7272   -2.7685 O   0  0  0  0  0  0  0  0  0  0  0  0
    6.2798    0.8358   -0.9955 C   0  0  2  0  0  0  0  0  0  0  0  0
    7.3505    0.7242   -0.0619 O   0  0  0  0  0  0  0  0  0  0  0  0
    7.9476    1.9783    0.2691 C   0  0  2  0  0  0  0  0  0  0  0  0
    9.2751    2.0368   -0.2543 O   0  0  0  0  0  0  0  0  0  0  0  0
   10.3095    1.4832    0.5703 C   0  0  2  0  0  0  0  0  0  0  0  0
   11.3132    0.7665   -0.3451 C   0  0  0  0  0  0  0  0  0  0  0  0
   11.8428    1.6612   -1.2868 O   0  0  0  0  0  0  0  0  0  0  0  0
    9.7816    0.5062    1.6532 C   0  0  1  0  0  0  0  0  0  0  0  0
   10.8128   -0.0773    2.4103 O   0  0  0  0  0  0  0  0  0  0  0  0
    8.7639    1.2099    2.5763 C   0  0  2  0  0  0  0  0  0  0  0  0
    7.9867    0.2537    3.2529 O   0  0  0  0  0  0  0  0  0  0  0  0
    7.8864    2.2234    1.7948 C   0  0  1  0  0  0  0  0  0  0  0  0
    8.2784    3.5472    2.0844 O   0  0  0  0  0  0  0  0  0  0  0  0
    5.0791    0.0077   -0.4828 C   0  0  1  0  0  0  0  0  0  0  0  0
    4.3754    0.7207    0.5007 O   0  0  0  0  0  0  0  0  0  0  0  0
    0.7412   -1.6206   -1.7187 C   0  0  0  0  0  0  0  0  0  0  0  0
    0.1751   -2.2991   -0.4684 C   0  0  0  0  0  0  0  0  0  0  0  0
   -0.6341   -1.2752    0.4228 C   0  0  1  0  0  0  0  0  0  0  0  0
   -0.4229   -1.7228    1.8972 C   0  0  0  0  0  0  0  0  0  0  0  0
   -2.1785   -1.2020    0.0382 C   0  0  1  0  0  0  0  0  0  0  0  0
   -2.9636   -2.5457    0.2701 C   0  0  0  0  0  0  0  0  0  0  0  0
   -4.4935   -2.4080    0.0246 C   0  0  0  0  0  0  0  0  0  0  0  0
   -5.0866   -1.2636    0.8878 C   0  0  1  0  0  0  0  0  0  0  0  0
   -4.9613   -1.6572    2.4041 C   0  0  0  0  0  0  0  0  0  0  0  0
   -6.5726   -0.8330    0.6479 C   0  0  2  0  0  0  0  0  0  0  0  0
   -7.2685   -0.5940   -0.7230 C   0  0  2  0  0  0  0  0  0  0  0  0
   -6.4246   -0.0454   -1.8998 C   0  0  0  0  0  0  0  0  0  0  0  0
  -12.5745    2.6265    0.2105 H   0  0  0  0  0  0  0  0  0  0  0  0
  -11.5437    1.8779    1.4918 H   0  0  0  0  0  0  0  0  0  0  0  0
  -12.9637    0.9817    0.8280 H   0  0  0  0  0  0  0  0  0  0  0  0
  -11.9044    0.8418   -1.3939 H   0  0  0  0  0  0  0  0  0  0  0  0
   -9.7816    2.6347   -0.0440 H   0  0  0  0  0  0  0  0  0  0  0  0
  -10.5515    2.7904   -1.6553 H   0  0  0  0  0  0  0  0  0  0  0  0
   -8.1881    2.0003   -1.8733 H   0  0  0  0  0  0  0  0  0  0  0  0
   -9.2875    0.6359   -2.2852 H   0  0  0  0  0  0  0  0  0  0  0  0
   -9.5399    0.4334    1.4424 H   0  0  0  0  0  0  0  0  0  0  0  0
  -11.3698   -0.9133    0.4954 H   0  0  0  0  0  0  0  0  0  0  0  0
  -10.4472   -0.9175   -1.0187 H   0  0  0  0  0  0  0  0  0  0  0  0
   -6.9726    0.5309    2.3170 H   0  0  0  0  0  0  0  0  0  0  0  0
   -4.8457    1.1889    2.2951 H   0  0  0  0  0  0  0  0  0  0  0  0
   -5.0657    2.1366    0.7905 H   0  0  0  0  0  0  0  0  0  0  0  0
   -4.4284    0.1937   -0.5313 H   0  0  0  0  0  0  0  0  0  0  0  0
   -2.6810   -0.1497    1.9015 H   0  0  0  0  0  0  0  0  0  0  0  0
   -2.4944    2.1025    1.1282 H   0  0  0  0  0  0  0  0  0  0  0  0
   -2.5870    1.6351   -0.6082 H   0  0  0  0  0  0  0  0  0  0  0  0
   -0.2185    2.2140    0.0454 H   0  0  0  0  0  0  0  0  0  0  0  0
    1.9420   -0.3174    0.8478 H   0  0  0  0  0  0  0  0  0  0  0  0
    1.8671    1.2221   -0.0642 H   0  0  0  0  0  0  0  0  0  0  0  0
    1.8004    0.1324   -2.2016 H   0  0  0  0  0  0  0  0  0  0  0  0
    3.8769    0.4286   -2.2446 H   0  0  0  0  0  0  0  0  0  0  0  0
    6.4037   -1.1298   -3.8878 H   0  0  0  0  0  0  0  0  0  0  0  0
    8.2325   -2.0451   -2.5872 H   0  0  0  0  0  0  0  0  0  0  0  0
    6.8532   -3.1540   -2.6377 H   0  0  0  0  0  0  0  0  0  0  0  0
    7.9594   -1.8036   -0.4864 H   0  0  0  0  0  0  0  0  0  0  0  0
    6.0121    0.9818   -3.1029 H   0  0  0  0  0  0  0  0  0  0  0  0
    8.5936    0.1959   -2.1884 H   0  0  0  0  0  0  0  0  0  0  0  0
    5.9211    1.8810   -1.1347 H   0  0  0  0  0  0  0  0  0  0  0  0
    7.4118    2.8533   -0.1596 H   0  0  0  0  0  0  0  0  0  0  0  0
   10.8502    2.3153    1.0712 H   0  0  0  0  0  0  0  0  0  0  0  0
   10.8330   -0.0989   -0.8581 H   0  0  0  0  0  0  0  0  0  0  0  0
   12.1569    0.3619    0.2527 H   0  0  0  0  0  0  0  0  0  0  0  0
   11.2043    1.6902   -2.0466 H   0  0  0  0  0  0  0  0  0  0  0  0
    9.2672   -0.3101    1.1029 H   0  0  0  0  0  0  0  0  0  0  0  0
   11.3402    0.6620    2.8121 H   0  0  0  0  0  0  0  0  0  0  0  0
    9.3025    1.7949    3.3551 H   0  0  0  0  0  0  0  0  0  0  0  0
    7.4164   -0.1999    2.5794 H   0  0  0  0  0  0  0  0  0  0  0  0
    6.8327    2.1480    2.1434 H   0  0  0  0  0  0  0  0  0  0  0  0
    9.2080    3.6835    1.7726 H   0  0  0  0  0  0  0  0  0  0  0  0
    5.4372   -0.9198   -0.0006 H   0  0  0  0  0  0  0  0  0  0  0  0
    4.0828    1.5766    0.0967 H   0  0  0  0  0  0  0  0  0  0  0  0
    1.1867   -2.3467   -2.4330 H   0  0  0  0  0  0  0  0  0  0  0  0
   -0.1160   -1.1319   -2.2334 H   0  0  0  0  0  0  0  0  0  0  0  0
    1.0715   -2.6858    0.0669 H   0  0  0  0  0  0  0  0  0  0  0  0
   -0.4337   -3.1874   -0.7189 H   0  0  0  0  0  0  0  0  0  0  0  0
   -0.7912   -2.7531    2.0707 H   0  0  0  0  0  0  0  0  0  0  0  0
   -0.8949   -1.0414    2.6287 H   0  0  0  0  0  0  0  0  0  0  0  0
    0.6579   -1.7366    2.1524 H   0  0  0  0  0  0  0  0  0  0  0  0
   -2.2721   -0.9664   -1.0464 H   0  0  0  0  0  0  0  0  0  0  0  0
   -2.8145   -2.9098    1.2988 H   0  0  0  0  0  0  0  0  0  0  0  0
   -2.5817   -3.3430   -0.3977 H   0  0  0  0  0  0  0  0  0  0  0  0
   -5.0078   -3.3689    0.2434 H   0  0  0  0  0  0  0  0  0  0  0  0
   -4.6317   -2.2035   -1.0489 H   0  0  0  0  0  0  0  0  0  0  0  0
   -5.5329   -2.5905    2.5956 H   0  0  0  0  0  0  0  0  0  0  0  0
   -5.3624   -0.8900    3.0934 H   0  0  0  0  0  0  0  0  0  0  0  0
   -3.9238   -1.8294    2.7405 H   0  0  0  0  0  0  0  0  0  0  0  0
   -7.2724   -1.5137    1.1873 H   0  0  0  0  0  0  0  0  0  0  0  0
   -7.7279   -1.5329   -1.1044 H   0  0  0  0  0  0  0  0  0  0  0  0
   -6.0117    0.9626   -1.6896 H   0  0  0  0  0  0  0  0  0  0  0  0
   -7.0596    0.0514   -2.8042 H   0  0  0  0  0  0  0  0  0  0  0  0
   -5.6265   -0.7416   -2.2035 H   0  0  0  0  0  0  0  0  0  0  0  0
  1 53  1  0  0  0  0
  1 54  1  0  0  0  0
  1 55  1  0  0  0  0
  2  1  1  0  0  0  0
  2  3  1  0  0  0  0
  2 56  1  6  0  0  0
  3  4  1  0  0  0  0
  3 57  1  0  0  0  0
  3 58  1  0  0  0  0
  4 59  1  0  0  0  0
  4 60  1  0  0  0  0
  5  4  1  0  0  0  0
  5  6  1  0  0  0  0
  5  8  1  1  0  0  0
  6  7  1  0  0  0  0
  6 61  1  0  0  0  0
  7  2  1  0  0  0  0
  7 62  1  0  0  0  0
  7 63  1  0  0  0  0
  8  9  1  0  0  0  0
  9 10  1  0  0  0  0
  9 64  1  1  0  0  0
 10 65  1  0  0  0  0
 10 66  1  0  0  0  0
 11 10  1  0  0  0  0
 11 12  1  0  0  0  0
 11 67  1  6  0  0  0
 12 13  1  0  0  0  0
 12 68  1  1  0  0  0
 13 14  1  0  0  0  0
 13 69  1  0  0  0  0
 13 70  1  0  0  0  0
 14 15  2  0  0  0  0
 14 71  1  0  0  0  0
 15 16  1  0  0  0  0
 16 17  1  0  0  0  0
 16 72  1  0  0  0  0
 16 73  1  0  0  0  0
 17 18  1  0  0  0  0
 17 41  1  0  0  0  0
 17 74  1  6  0  0  0
 19 18  1  0  0  0  0
 19 20  1  0  0  0  0
 19 75  1  6  0  0  0
 20 21  1  0  0  0  0
 21 22  1  0  0  0  0
 21 24  1  0  0  0  0
 21 76  1  6  0  0  0
 22 23  1  0  0  0  0
 22 77  1  0  0  0  0
 22 78  1  0  0  0  0
 23 79  1  0  0  0  0
 24 25  1  0  0  0  0
 24 26  1  0  0  0  0
 24 80  1  6  0  0  0
 25 81  1  0  0  0  0
 26 27  1  0  0  0  0
 26 39  1  0  0  0  0
 26 82  1  6  0  0  0
 28 27  1  0  0  0  0
 28 29  1  0  0  0  0
 28 83  1  6  0  0  0
 29 30  1  0  0  0  0
 30 31  1  0  0  0  0
 30 33  1  0  0  0  0
 30 84  1  1  0  0  0
 31 32  1  0  0  0  0
 31 85  1  0  0  0  0
 31 86  1  0  0  0  0
 32 87  1  0  0  0  0
 33 34  1  0  0  0  0
 33 35  1  0  0  0  0
 33 88  1  6  0  0  0
 34 89  1  0  0  0  0
 35 36  1  0  0  0  0
 35 37  1  0  0  0  0
 35 90  1  1  0  0  0
 36 91  1  0  0  0  0
 37 38  1  0  0  0  0
 37 28  1  0  0  0  0
 37 92  1  1  0  0  0
 38 93  1  0  0  0  0
 39 40  1  0  0  0  0
 39 19  1  0  0  0  0
 39 94  1  1  0  0  0
 40 95  1  0  0  0  0
 41 42  1  0  0  0  0
 41 96  1  0  0  0  0
 41 97  1  0  0  0  0
 42 43  1  0  0  0  0
 42 98  1  0  0  0  0
 42 99  1  0  0  0  0
 43 44  1  1  0  0  0
 43 45  1  0  0  0  0
 43 15  1  0  0  0  0
 44100  1  0  0  0  0
 44101  1  0  0  0  0
 44102  1  0  0  0  0
 45 46  1  0  0  0  0
 45 12  1  0  0  0  0
 45103  1  6  0  0  0
 46 47  1  0  0  0  0
 46104  1  0  0  0  0
 46105  1  0  0  0  0
 47 48  1  0  0  0  0
 47106  1  0  0  0  0
 47107  1  0  0  0  0
 48 49  1  1  0  0  0
 48 50  1  0  0  0  0
 48 11  1  0  0  0  0
 49108  1  0  0  0  0
 49109  1  0  0  0  0
 49110  1  0  0  0  0
 50 51  1  0  0  0  0
 50  9  1  0  0  0  0
 50111  1  1  0  0  0
 51 52  1  0  0  0  0
 51  5  1  0  0  0  0
 51112  1  6  0  0  0
 52113  1  0  0  0  0
 52114  1  0  0  0  0
 52115  1  0  0  0  0
M  END
>  <IDENTIFIER>
CNP0205219.5

>  <Energy>
1755.64

$$$$
