
 OpenBabel09092510093D

110117  0  0  0  0  0  0  0  0999 V2000
   12.0564   -1.1458   -0.4129 C   0  0  0  0  0  0  0  0  0  0  0  0
   11.2880    0.0837   -0.9080 C   0  0  2  0  0  0  0  0  0  0  0  0
   10.6875    0.8561    0.2920 C   0  0  0  0  0  0  0  0  0  0  0  0
    9.3824    1.5164   -0.1363 C   0  0  0  0  0  0  0  0  0  0  0  0
    8.3913    0.3618   -0.5236 C   0  0  1  0  0  0  0  0  0  0  0  0
    8.9885   -0.6891   -1.3103 O   0  0  0  0  0  0  0  0  0  0  0  0
   10.1889   -0.2827   -1.9387 C   0  0  0  0  0  0  0  0  0  0  0  0
    7.9351   -0.2275    0.6806 O   0  0  0  0  0  0  0  0  0  0  0  0
    6.6385   -0.7235    0.4102 C   0  0  1  0  0  0  0  0  0  0  0  0
    5.5732   -0.2961    1.4247 C   0  0  0  0  0  0  0  0  0  0  0  0
    4.3268   -0.6198    0.6022 C   0  0  1  0  0  0  0  0  0  0  0  0
    2.9129   -0.3430    1.1505 C   0  0  2  0  0  0  0  0  0  0  0  0
    2.7102   -1.0999    2.4744 C   0  0  0  0  0  0  0  0  0  0  0  0
    1.2795   -1.1081    2.9230 C   0  0  0  0  0  0  0  0  0  0  0  0
    0.2378   -0.7930    2.1218 C   0  0  0  0  0  0  0  0  0  0  0  0
   -1.1639   -0.8104    2.7131 C   0  0  0  0  0  0  0  0  0  0  0  0
   -2.1761   -1.5514    1.8066 C   0  0  1  0  0  0  0  0  0  0  0  0
   -3.0624   -0.5967    1.2298 O   0  0  0  0  0  0  0  0  0  0  0  0
   -4.3839   -0.7332    1.7264 C   0  0  2  0  0  0  0  0  0  0  0  0
   -5.0271   -1.7275    0.9155 O   0  0  0  0  0  0  0  0  0  0  0  0
   -6.4081   -1.4913    0.7582 C   0  0  2  0  0  0  0  0  0  0  0  0
   -7.0748   -2.7134    0.1170 C   0  0  0  0  0  0  0  0  0  0  0  0
   -6.5324   -2.9699   -1.1527 O   0  0  0  0  0  0  0  0  0  0  0  0
   -6.6854   -0.1834   -0.0461 C   0  0  1  0  0  0  0  0  0  0  0  0
   -7.9683    0.2785    0.3547 O   0  0  0  0  0  0  0  0  0  0  0  0
   -8.8967    0.3457   -0.7105 C   0  0  2  0  0  0  0  0  0  0  0  0
   -8.9651    1.6653   -1.2310 O   0  0  0  0  0  0  0  0  0  0  0  0
  -10.3423    2.0087   -1.2854 C   0  0  0  0  0  0  0  0  0  0  0  0
  -11.1428    0.7034   -1.2187 C   0  0  2  0  0  0  0  0  0  0  0  0
  -11.0631    0.0100   -2.4469 O   0  0  0  0  0  0  0  0  0  0  0  0
  -12.6143    0.8601   -0.7867 C   0  0  0  0  0  0  0  0  0  0  0  0
  -13.3465    1.5819   -1.7398 O   0  0  0  0  0  0  0  0  0  0  0  0
  -10.2919    0.0124   -0.1846 C   0  0  1  0  0  0  0  0  0  0  0  0
  -10.5463   -1.3619   -0.0244 O   0  0  0  0  0  0  0  0  0  0  0  0
   -5.5971    0.8795    0.2694 C   0  0  1  0  0  0  0  0  0  0  0  0
   -6.0413    2.1897    0.0138 O   0  0  0  0  0  0  0  0  0  0  0  0
   -5.0550    0.6812    1.6899 C   0  0  1  0  0  0  0  0  0  0  0  0
   -6.1026    0.7527    2.6273 O   0  0  0  0  0  0  0  0  0  0  0  0
   -1.4687   -2.3223    0.6793 C   0  0  0  0  0  0  0  0  0  0  0  0
   -0.6452   -1.3558   -0.1965 C   0  0  0  0  0  0  0  0  0  0  0  0
    0.3955   -0.4898    0.6167 C   0  0  1  0  0  0  0  0  0  0  0  0
    0.0506    1.0141    0.4365 C   0  0  0  0  0  0  0  0  0  0  0  0
    1.8611   -0.8377    0.1158 C   0  0  1  0  0  0  0  0  0  0  0  0
    2.1624   -0.3500   -1.3506 C   0  0  0  0  0  0  0  0  0  0  0  0
    3.6454   -0.5498   -1.7713 C   0  0  0  0  0  0  0  0  0  0  0  0
    4.6003    0.0997   -0.7355 C   0  0  1  0  0  0  0  0  0  0  0  0
    4.3325    1.6476   -0.6574 C   0  0  0  0  0  0  0  0  0  0  0  0
    6.1342   -0.2164   -0.9495 C   0  0  1  0  0  0  0  0  0  0  0  0
    7.1243    0.9200   -1.1891 C   0  0  2  0  0  0  0  0  0  0  0  0
    7.2587    1.3328   -2.6595 C   0  0  0  0  0  0  0  0  0  0  0  0
   12.8605   -0.8349    0.2886 H   0  0  0  0  0  0  0  0  0  0  0  0
   12.5271   -1.6712   -1.2709 H   0  0  0  0  0  0  0  0  0  0  0  0
   11.3738   -1.8515    0.1065 H   0  0  0  0  0  0  0  0  0  0  0  0
   12.0036    0.7363   -1.4555 H   0  0  0  0  0  0  0  0  0  0  0  0
   11.4323    1.5735    0.6988 H   0  0  0  0  0  0  0  0  0  0  0  0
   10.4225    0.1563    1.1165 H   0  0  0  0  0  0  0  0  0  0  0  0
    9.5951    2.1975   -0.9884 H   0  0  0  0  0  0  0  0  0  0  0  0
    8.9492    2.1299    0.6832 H   0  0  0  0  0  0  0  0  0  0  0  0
    9.9686    0.5983   -2.5802 H   0  0  0  0  0  0  0  0  0  0  0  0
   10.5476   -1.0583   -2.6488 H   0  0  0  0  0  0  0  0  0  0  0  0
    6.6559   -1.8395    0.3856 H   0  0  0  0  0  0  0  0  0  0  0  0
    5.6351    0.7880    1.6470 H   0  0  0  0  0  0  0  0  0  0  0  0
    5.6556   -0.8587    2.3786 H   0  0  0  0  0  0  0  0  0  0  0  0
    4.3656   -1.7277    0.4362 H   0  0  0  0  0  0  0  0  0  0  0  0
    2.7807    0.7388    1.3444 H   0  0  0  0  0  0  0  0  0  0  0  0
    3.3335   -0.5989    3.2460 H   0  0  0  0  0  0  0  0  0  0  0  0
    3.0317   -2.1619    2.4038 H   0  0  0  0  0  0  0  0  0  0  0  0
    1.1005   -1.3880    3.9574 H   0  0  0  0  0  0  0  0  0  0  0  0
   -1.5159    0.2317    2.8718 H   0  0  0  0  0  0  0  0  0  0  0  0
   -1.1563   -1.2714    3.7256 H   0  0  0  0  0  0  0  0  0  0  0  0
   -2.7009   -2.3229    2.4214 H   0  0  0  0  0  0  0  0  0  0  0  0
   -4.3737   -1.0307    2.8024 H   0  0  0  0  0  0  0  0  0  0  0  0
   -6.8513   -1.4066    1.7778 H   0  0  0  0  0  0  0  0  0  0  0  0
   -8.1773   -2.5747    0.0636 H   0  0  0  0  0  0  0  0  0  0  0  0
   -6.9002   -3.6058    0.7553 H   0  0  0  0  0  0  0  0  0  0  0  0
   -7.1544   -2.5795   -1.8207 H   0  0  0  0  0  0  0  0  0  0  0  0
   -6.5859   -0.3415   -1.1467 H   0  0  0  0  0  0  0  0  0  0  0  0
   -8.6746   -0.3476   -1.5580 H   0  0  0  0  0  0  0  0  0  0  0  0
  -10.5866    2.5954   -2.1959 H   0  0  0  0  0  0  0  0  0  0  0  0
  -10.5612    2.6409   -0.3925 H   0  0  0  0  0  0  0  0  0  0  0  0
  -11.4212    0.6060   -3.1553 H   0  0  0  0  0  0  0  0  0  0  0  0
  -12.6893    1.3535    0.2109 H   0  0  0  0  0  0  0  0  0  0  0  0
  -13.0760   -0.1448   -0.6789 H   0  0  0  0  0  0  0  0  0  0  0  0
  -13.1972    2.5443   -1.5454 H   0  0  0  0  0  0  0  0  0  0  0  0
  -10.4328    0.5237    0.7975 H   0  0  0  0  0  0  0  0  0  0  0  0
  -10.3591   -1.8121   -0.8888 H   0  0  0  0  0  0  0  0  0  0  0  0
   -4.7242    0.6992   -0.3985 H   0  0  0  0  0  0  0  0  0  0  0  0
   -6.7205    2.4218    0.6975 H   0  0  0  0  0  0  0  0  0  0  0  0
   -4.2765    1.4352    1.9590 H   0  0  0  0  0  0  0  0  0  0  0  0
   -6.1983    1.7056    2.8886 H   0  0  0  0  0  0  0  0  0  0  0  0
   -2.2182   -2.8530    0.0530 H   0  0  0  0  0  0  0  0  0  0  0  0
   -0.7922   -3.0859    1.1243 H   0  0  0  0  0  0  0  0  0  0  0  0
   -1.3604   -0.6954   -0.7351 H   0  0  0  0  0  0  0  0  0  0  0  0
   -0.1554   -1.9637   -0.9852 H   0  0  0  0  0  0  0  0  0  0  0  0
    0.0498    1.3149   -0.6294 H   0  0  0  0  0  0  0  0  0  0  0  0
    0.7555    1.6645    0.9927 H   0  0  0  0  0  0  0  0  0  0  0  0
   -0.9724    1.2339    0.8068 H   0  0  0  0  0  0  0  0  0  0  0  0
    1.9744   -1.9474    0.0985 H   0  0  0  0  0  0  0  0  0  0  0  0
    1.9333    0.7194   -1.4655 H   0  0  0  0  0  0  0  0  0  0  0  0
    1.5079   -0.8738   -2.0772 H   0  0  0  0  0  0  0  0  0  0  0  0
    3.8163   -0.1233   -2.7831 H   0  0  0  0  0  0  0  0  0  0  0  0
    3.8496   -1.6422   -1.8304 H   0  0  0  0  0  0  0  0  0  0  0  0
    4.5621    2.1241   -1.6306 H   0  0  0  0  0  0  0  0  0  0  0  0
    4.9090    2.1592    0.1336 H   0  0  0  0  0  0  0  0  0  0  0  0
    3.2905    1.9206   -0.4248 H   0  0  0  0  0  0  0  0  0  0  0  0
    6.3198   -1.0434   -1.6743 H   0  0  0  0  0  0  0  0  0  0  0  0
    6.8582    1.8047   -0.5814 H   0  0  0  0  0  0  0  0  0  0  0  0
    7.5682    0.4678   -3.2829 H   0  0  0  0  0  0  0  0  0  0  0  0
    8.0099    2.1423   -2.7651 H   0  0  0  0  0  0  0  0  0  0  0  0
    6.2921    1.7087   -3.0491 H   0  0  0  0  0  0  0  0  0  0  0  0
  1 51  1  0  0  0  0
  1 52  1  0  0  0  0
  1 53  1  0  0  0  0
  2  1  1  0  0  0  0
  2  3  1  0  0  0  0
  2 54  1  6  0  0  0
  3  4  1  0  0  0  0
  3 55  1  0  0  0  0
  3 56  1  0  0  0  0
  4 57  1  0  0  0  0
  4 58  1  0  0  0  0
  5  4  1  0  0  0  0
  5  6  1  6  0  0  0
  5  8  1  0  0  0  0
  6  7  1  0  0  0  0
  7  2  1  0  0  0  0
  7 59  1  0  0  0  0
  7 60  1  0  0  0  0
  8  9  1  0  0  0  0
  9 10  1  0  0  0  0
  9 61  1  6  0  0  0
 10 62  1  0  0  0  0
 10 63  1  0  0  0  0
 11 10  1  0  0  0  0
 11 12  1  0  0  0  0
 11 64  1  6  0  0  0
 12 13  1  0  0  0  0
 12 65  1  1  0  0  0
 13 14  1  0  0  0  0
 13 66  1  0  0  0  0
 13 67  1  0  0  0  0
 14 15  2  0  0  0  0
 14 68  1  0  0  0  0
 15 16  1  0  0  0  0
 16 17  1  0  0  0  0
 16 69  1  0  0  0  0
 16 70  1  0  0  0  0
 17 18  1  0  0  0  0
 17 39  1  0  0  0  0
 17 71  1  1  0  0  0
 19 18  1  0  0  0  0
 19 20  1  0  0  0  0
 19 72  1  1  0  0  0
 20 21  1  0  0  0  0
 21 22  1  0  0  0  0
 21 24  1  0  0  0  0
 21 73  1  1  0  0  0
 22 23  1  0  0  0  0
 22 74  1  0  0  0  0
 22 75  1  0  0  0  0
 23 76  1  0  0  0  0
 24 25  1  0  0  0  0
 24 35  1  0  0  0  0
 24 77  1  6  0  0  0
 26 25  1  0  0  0  0
 26 27  1  0  0  0  0
 26 78  1  6  0  0  0
 27 28  1  0  0  0  0
 28 29  1  0  0  0  0
 28 79  1  0  0  0  0
 28 80  1  0  0  0  0
 29 30  1  6  0  0  0
 29 31  1  0  0  0  0
 29 33  1  0  0  0  0
 30 81  1  0  0  0  0
 31 32  1  0  0  0  0
 31 82  1  0  0  0  0
 31 83  1  0  0  0  0
 32 84  1  0  0  0  0
 33 34  1  0  0  0  0
 33 26  1  0  0  0  0
 33 85  1  1  0  0  0
 34 86  1  0  0  0  0
 35 36  1  0  0  0  0
 35 37  1  0  0  0  0
 35 87  1  6  0  0  0
 36 88  1  0  0  0  0
 37 38  1  0  0  0  0
 37 19  1  0  0  0  0
 37 89  1  1  0  0  0
 38 90  1  0  0  0  0
 39 40  1  0  0  0  0
 39 91  1  0  0  0  0
 39 92  1  0  0  0  0
 40 41  1  0  0  0  0
 40 93  1  0  0  0  0
 40 94  1  0  0  0  0
 41 42  1  6  0  0  0
 41 43  1  0  0  0  0
 41 15  1  0  0  0  0
 42 95  1  0  0  0  0
 42 96  1  0  0  0  0
 42 97  1  0  0  0  0
 43 44  1  0  0  0  0
 43 12  1  0  0  0  0
 43 98  1  6  0  0  0
 44 45  1  0  0  0  0
 44 99  1  0  0  0  0
 44100  1  0  0  0  0
 45 46  1  0  0  0  0
 45101  1  0  0  0  0
 45102  1  0  0  0  0
 46 47  1  1  0  0  0
 46 48  1  0  0  0  0
 46 11  1  0  0  0  0
 47103  1  0  0  0  0
 47104  1  0  0  0  0
 47105  1  0  0  0  0
 48 49  1  0  0  0  0
 48  9  1  0  0  0  0
 48106  1  6  0  0  0
 49 50  1  0  0  0  0
 49  5  1  0  0  0  0
 49107  1  1  0  0  0
 50108  1  0  0  0  0
 50109  1  0  0  0  0
 50110  1  0  0  0  0
M  END
>  <IDENTIFIER>
CNP0103758.1

>  <Energy>
1601.26

$$$$
