
 OpenBabel09062501313D

109117  0  0  0  0  0  0  0  0999 V2000
   13.2126    0.7665    0.8816 C   0  0  0  0  0  0  0  0  0  0  0  0
   12.2834   -0.2874    1.4863 C   0  0  1  0  0  0  0  0  0  0  0  0
   11.0114   -0.2149    0.8459 O   0  0  0  0  0  0  0  0  0  0  0  0
   10.1277   -1.3080    1.1437 C   0  0  2  0  0  0  0  0  0  0  0  0
    8.8612   -0.7939    1.5318 O   0  0  0  0  0  0  0  0  0  0  0  0
    7.9824   -0.6543    0.4216 C   0  0  2  0  0  0  0  0  0  0  0  0
    7.6772    0.8234    0.1760 C   0  0  0  0  0  0  0  0  0  0  0  0
    6.7068    0.9192   -0.9993 C   0  0  0  0  0  0  0  0  0  0  0  0
    5.4535    0.0645   -0.7221 C   0  0  1  0  0  0  0  0  0  0  0  0
    4.6712    0.0651   -1.9064 O   0  0  0  0  0  0  0  0  0  0  0  0
    3.3738    0.6471   -1.8084 C   0  0  1  0  0  0  0  0  0  0  0  0
    2.7314    0.3542   -3.1790 C   0  0  0  0  0  0  0  0  0  0  0  0
    2.4997   -0.0489   -0.7075 C   0  0  0  0  0  0  0  0  0  0  0  0
    2.1685    0.9397    0.3714 C   0  0  0  0  0  0  0  0  0  0  0  0
    2.5661    0.7599    1.5134 O   0  0  0  0  0  0  0  0  0  0  0  0
    1.3874    2.1991   -0.0308 C   0  0  2  0  0  0  0  0  0  0  0  0
    1.3028    3.1034    1.0575 O   0  0  0  0  0  0  0  0  0  0  0  0
   -0.0509    1.7507   -0.3890 C   0  0  0  0  0  0  0  0  0  0  0  0
   -0.6101    1.9935   -1.6002 C   0  0  0  0  0  0  0  0  0  0  0  0
    0.1303    2.7117   -2.6496 C   0  0  0  0  0  0  0  0  0  0  0  0
    1.3753    3.1340   -2.4824 C   0  0  0  0  0  0  0  0  0  0  0  0
    2.1761    2.9447   -1.2171 C   0  0  1  0  0  0  0  0  0  0  0  0
    2.5178    4.2433   -0.7723 O   0  0  0  0  0  0  0  0  0  0  0  0
    3.5037    2.1968   -1.5684 C   0  0  0  0  0  0  0  0  0  0  0  0
   -2.0009    1.5484   -1.9174 C   0  0  0  0  0  0  0  0  0  0  0  0
   -2.4607    1.7749   -3.0273 O   0  0  0  0  0  0  0  0  0  0  0  0
   -2.8353    0.8638   -0.8919 C   0  0  0  0  0  0  0  0  0  0  0  0
   -2.2601    0.6163    0.3669 C   0  0  0  0  0  0  0  0  0  0  0  0
   -3.0175    0.0037    1.3700 C   0  0  0  0  0  0  0  0  0  0  0  0
   -4.3384   -0.3424    1.1410 C   0  0  0  0  0  0  0  0  0  0  0  0
   -4.9459   -0.1133   -0.1044 C   0  0  0  0  0  0  0  0  0  0  0  0
   -6.4133   -0.4810   -0.2189 C   0  0  2  0  0  0  0  0  0  0  0  0
   -7.2214    0.5913    0.5585 C   0  0  0  0  0  0  0  0  0  0  0  0
   -8.5502    0.0468    1.0806 C   0  0  1  0  0  0  0  0  0  0  0  0
   -9.4694    1.1129    1.2192 O   0  0  0  0  0  0  0  0  0  0  0  0
  -10.8102    0.6680    1.3781 C   0  0  1  0  0  0  0  0  0  0  0  0
  -11.6444    1.1660    0.1974 C   0  0  0  0  0  0  0  0  0  0  0  0
  -13.0271    0.6665    0.4334 C   0  0  0  0  0  0  0  0  0  0  0  0
  -13.9635    1.4414    0.5634 O   0  0  0  0  0  0  0  0  0  0  0  0
  -13.2016   -0.8127    0.6465 C   0  0  1  0  0  0  0  0  0  0  0  0
  -13.0741   -1.6135   -0.6563 C   0  0  0  0  0  0  0  0  0  0  0  0
  -12.3226   -1.2981    1.6634 O   0  0  0  0  0  0  0  0  0  0  0  0
  -10.9636   -0.8851    1.5172 C   0  0  1  0  0  0  0  0  0  0  0  0
  -10.3380   -1.5812    0.4512 O   0  0  0  0  0  0  0  0  0  0  0  0
   -9.0461   -1.0651    0.1350 C   0  0  2  0  0  0  0  0  0  0  0  0
   -7.9910   -2.2133    0.2200 C   0  0  1  0  0  0  0  0  0  0  0  0
   -8.1727   -3.2196   -0.9156 C   0  0  0  0  0  0  0  0  0  0  0  0
   -6.6233   -1.7876    0.2886 O   0  0  0  0  0  0  0  0  0  0  0  0
   -4.1840    0.4894   -1.1429 C   0  0  0  0  0  0  0  0  0  0  0  0
   -4.7159    0.7561   -2.3582 O   0  0  0  0  0  0  0  0  0  0  0  0
   -0.8628    1.0204    0.6413 C   0  0  0  0  0  0  0  0  0  0  0  0
   -0.3767    0.7554    1.7313 O   0  0  0  0  0  0  0  0  0  0  0  0
    5.8087   -1.2837   -0.4516 O   0  0  0  0  0  0  0  0  0  0  0  0
    6.6472   -1.3825    0.6896 C   0  0  1  0  0  0  0  0  0  0  0  0
    6.8816   -2.8646    0.9827 C   0  0  0  0  0  0  0  0  0  0  0  0
   10.6311   -2.2781    2.2403 C   0  0  0  0  0  0  0  0  0  0  0  0
   11.9895   -2.8326    1.8008 C   0  0  0  0  0  0  0  0  0  0  0  0
   12.8609   -1.6882    1.3780 C   0  0  0  0  0  0  0  0  0  0  0  0
   13.9686   -1.9002    0.9069 O   0  0  0  0  0  0  0  0  0  0  0  0
   12.7741    1.7778    1.0187 H   0  0  0  0  0  0  0  0  0  0  0  0
   13.3508    0.5818   -0.2053 H   0  0  0  0  0  0  0  0  0  0  0  0
   14.2034    0.7434    1.3846 H   0  0  0  0  0  0  0  0  0  0  0  0
   12.1569   -0.0326    2.5620 H   0  0  0  0  0  0  0  0  0  0  0  0
   10.0733   -1.9557    0.2379 H   0  0  0  0  0  0  0  0  0  0  0  0
    8.3898   -1.0673   -0.5328 H   0  0  0  0  0  0  0  0  0  0  0  0
    8.6098    1.3814   -0.0583 H   0  0  0  0  0  0  0  0  0  0  0  0
    7.2167    1.2718    1.0843 H   0  0  0  0  0  0  0  0  0  0  0  0
    7.2096    0.5328   -1.9135 H   0  0  0  0  0  0  0  0  0  0  0  0
    6.4321    1.9794   -1.1803 H   0  0  0  0  0  0  0  0  0  0  0  0
    4.9156    0.4749    0.1619 H   0  0  0  0  0  0  0  0  0  0  0  0
    2.7258   -0.7417   -3.3664 H   0  0  0  0  0  0  0  0  0  0  0  0
    3.3140    0.8386   -3.9916 H   0  0  0  0  0  0  0  0  0  0  0  0
    1.6827    0.6904   -3.2422 H   0  0  0  0  0  0  0  0  0  0  0  0
    3.0028   -0.9563   -0.3093 H   0  0  0  0  0  0  0  0  0  0  0  0
    1.5250   -0.3962   -1.1150 H   0  0  0  0  0  0  0  0  0  0  0  0
    1.0601    2.6280    1.8913 H   0  0  0  0  0  0  0  0  0  0  0  0
   -0.3437    2.9069   -3.6069 H   0  0  0  0  0  0  0  0  0  0  0  0
    1.8488    3.6557   -3.3106 H   0  0  0  0  0  0  0  0  0  0  0  0
    3.1043    4.6751   -1.4491 H   0  0  0  0  0  0  0  0  0  0  0  0
    4.1433    2.3516   -0.6758 H   0  0  0  0  0  0  0  0  0  0  0  0
    4.0420    2.6816   -2.4123 H   0  0  0  0  0  0  0  0  0  0  0  0
   -2.5948   -0.1924    2.3476 H   0  0  0  0  0  0  0  0  0  0  0  0
   -4.8993   -0.7942    1.9508 H   0  0  0  0  0  0  0  0  0  0  0  0
   -6.7659   -0.4859   -1.2688 H   0  0  0  0  0  0  0  0  0  0  0  0
   -7.3759    1.4307   -0.1568 H   0  0  0  0  0  0  0  0  0  0  0  0
   -6.6887    1.0083    1.4419 H   0  0  0  0  0  0  0  0  0  0  0  0
   -8.3578   -0.4097    2.0797 H   0  0  0  0  0  0  0  0  0  0  0  0
  -11.2111    1.1238    2.3114 H   0  0  0  0  0  0  0  0  0  0  0  0
  -11.2531    0.7555   -0.7576 H   0  0  0  0  0  0  0  0  0  0  0  0
  -11.6202    2.2762    0.1403 H   0  0  0  0  0  0  0  0  0  0  0  0
  -14.2402   -0.9825    1.0043 H   0  0  0  0  0  0  0  0  0  0  0  0
  -12.0915   -1.4793   -1.1480 H   0  0  0  0  0  0  0  0  0  0  0  0
  -13.8526   -1.2774   -1.3744 H   0  0  0  0  0  0  0  0  0  0  0  0
  -13.2295   -2.6912   -0.4471 H   0  0  0  0  0  0  0  0  0  0  0  0
  -10.4583   -1.1904    2.4607 H   0  0  0  0  0  0  0  0  0  0  0  0
   -9.0927   -0.6319   -0.8897 H   0  0  0  0  0  0  0  0  0  0  0  0
   -8.1818   -2.7373    1.1828 H   0  0  0  0  0  0  0  0  0  0  0  0
   -7.9760   -2.7331   -1.8943 H   0  0  0  0  0  0  0  0  0  0  0  0
   -9.2067   -3.6254   -0.9138 H   0  0  0  0  0  0  0  0  0  0  0  0
   -7.4624   -4.0636   -0.7870 H   0  0  0  0  0  0  0  0  0  0  0  0
   -5.6229    0.5788   -2.6310 H   0  0  0  0  0  0  0  0  0  0  0  0
    6.1390   -0.9557    1.5867 H   0  0  0  0  0  0  0  0  0  0  0  0
    7.3921   -3.3552    0.1269 H   0  0  0  0  0  0  0  0  0  0  0  0
    5.9084   -3.3700    1.1582 H   0  0  0  0  0  0  0  0  0  0  0  0
    7.5010   -2.9876    1.8957 H   0  0  0  0  0  0  0  0  0  0  0  0
    9.9173   -3.1142    2.3982 H   0  0  0  0  0  0  0  0  0  0  0  0
   10.7307   -1.7290    3.2022 H   0  0  0  0  0  0  0  0  0  0  0  0
   11.8403   -3.4903    0.9158 H   0  0  0  0  0  0  0  0  0  0  0  0
   12.4560   -3.4273    2.6136 H   0  0  0  0  0  0  0  0  0  0  0  0
  1 60  1  0  0  0  0
  1 61  1  0  0  0  0
  1 62  1  0  0  0  0
  2  1  1  0  0  0  0
  2  3  1  0  0  0  0
  2 63  1  1  0  0  0
  3  4  1  0  0  0  0
  4  5  1  0  0  0  0
  4 56  1  0  0  0  0
  4 64  1  6  0  0  0
  6  5  1  0  0  0  0
  6  7  1  0  0  0  0
  6 65  1  6  0  0  0
  7  8  1  0  0  0  0
  7 66  1  0  0  0  0
  7 67  1  0  0  0  0
  8  9  1  0  0  0  0
  8 68  1  0  0  0  0
  8 69  1  0  0  0  0
  9 10  1  0  0  0  0
  9 53  1  0  0  0  0
  9 70  1  1  0  0  0
 11 10  1  1  0  0  0
 11 12  1  0  0  0  0
 11 13  1  0  0  0  0
 12 71  1  0  0  0  0
 12 72  1  0  0  0  0
 12 73  1  0  0  0  0
 13 14  1  0  0  0  0
 13 74  1  0  0  0  0
 13 75  1  0  0  0  0
 14 15  2  0  0  0  0
 14 16  1  0  0  0  0
 16 17  1  1  0  0  0
 16 18  1  0  0  0  0
 17 76  1  0  0  0  0
 18 19  2  0  0  0  0
 19 20  1  0  0  0  0
 19 25  1  0  0  0  0
 20 21  2  0  0  0  0
 20 77  1  0  0  0  0
 21 22  1  0  0  0  0
 21 78  1  0  0  0  0
 22 23  1  1  0  0  0
 22 24  1  0  0  0  0
 22 16  1  0  0  0  0
 23 79  1  0  0  0  0
 24 11  1  0  0  0  0
 24 80  1  0  0  0  0
 24 81  1  0  0  0  0
 25 26  2  0  0  0  0
 25 27  1  0  0  0  0
 27 28  2  0  0  0  0
 28 29  1  0  0  0  0
 28 51  1  0  0  0  0
 29 30  2  0  0  0  0
 29 82  1  0  0  0  0
 30 31  1  0  0  0  0
 30 83  1  0  0  0  0
 31 49  2  0  0  0  0
 32 31  1  0  0  0  0
 32 33  1  0  0  0  0
 32 84  1  6  0  0  0
 33 85  1  0  0  0  0
 33 86  1  0  0  0  0
 34 33  1  0  0  0  0
 34 35  1  0  0  0  0
 34 87  1  1  0  0  0
 35 36  1  0  0  0  0
 36 37  1  0  0  0  0
 36 88  1  1  0  0  0
 37 38  1  0  0  0  0
 37 89  1  0  0  0  0
 37 90  1  0  0  0  0
 38 39  2  0  0  0  0
 38 40  1  0  0  0  0
 40 41  1  0  0  0  0
 40 42  1  0  0  0  0
 40 91  1  1  0  0  0
 41 92  1  0  0  0  0
 41 93  1  0  0  0  0
 41 94  1  0  0  0  0
 43 42  1  0  0  0  0
 43 44  1  0  0  0  0
 43 36  1  0  0  0  0
 43 95  1  1  0  0  0
 45 44  1  0  0  0  0
 45 46  1  0  0  0  0
 45 34  1  0  0  0  0
 45 96  1  6  0  0  0
 46 47  1  0  0  0  0
 46 48  1  0  0  0  0
 46 97  1  1  0  0  0
 47 98  1  0  0  0  0
 47 99  1  0  0  0  0
 47100  1  0  0  0  0
 48 32  1  0  0  0  0
 49 50  1  0  0  0  0
 49 27  1  0  0  0  0
 50101  1  0  0  0  0
 51 52  2  0  0  0  0
 51 18  1  0  0  0  0
 53 54  1  0  0  0  0
 54 55  1  0  0  0  0
 54  6  1  0  0  0  0
 54102  1  1  0  0  0
 55103  1  0  0  0  0
 55104  1  0  0  0  0
 55105  1  0  0  0  0
 56 57  1  0  0  0  0
 56106  1  0  0  0  0
 56107  1  0  0  0  0
 57 58  1  0  0  0  0
 57108  1  0  0  0  0
 57109  1  0  0  0  0
 58 59  2  0  0  0  0
 58  2  1  0  0  0  0
M  END
>  <IDENTIFIER>
CNP0160065.2

>  <Energy>
1346.88

$$$$
