
 OpenBabel09092523523D

144151  0  0  0  0  0  0  0  0999 V2000
   13.2867   -0.5547    2.2714 C   0  0  0  0  0  0  0  0  0  0  0  0
   13.3601    0.7450    1.4710 C   0  0  2  0  0  0  0  0  0  0  0  0
   12.0647    1.3575    1.4155 O   0  0  0  0  0  0  0  0  0  0  0  0
   11.4310    1.1696    0.1650 C   0  0  1  0  0  0  0  0  0  0  0  0
   10.0913    1.6413    0.2448 O   0  0  0  0  0  0  0  0  0  0  0  0
    9.1152    0.6276    0.0239 C   0  0  1  0  0  0  0  0  0  0  0  0
    8.1821    0.5387    1.2464 C   0  0  2  0  0  0  0  0  0  0  0  0
    7.3737   -0.6057    1.1388 O   0  0  0  0  0  0  0  0  0  0  0  0
    7.3088    1.8075    1.3215 C   0  0  1  0  0  0  0  0  0  0  0  0
    8.0923    2.9314    1.6601 O   0  0  0  0  0  0  0  0  0  0  0  0
    6.5563    2.0016   -0.0214 C   0  0  2  0  0  0  0  0  0  0  0  0
    5.6762    0.9259   -0.2586 O   0  0  0  0  0  0  0  0  0  0  0  0
    4.3269    1.1987    0.0383 C   0  0  0  0  0  0  0  0  0  0  0  0
    3.5624   -0.1073   -0.2199 C   0  0  1  0  0  0  0  0  0  0  0  0
    2.1899    0.0322    0.1724 O   0  0  0  0  0  0  0  0  0  0  0  0
    1.2527   -0.3591   -0.8237 C   0  0  1  0  0  0  0  0  0  0  0  0
   -0.0277   -0.1336   -0.3482 O   0  0  0  0  0  0  0  0  0  0  0  0
   -0.9186   -1.1378   -0.1065 C   0  0  0  0  0  0  0  0  0  0  0  0
   -0.5875   -2.3050   -0.2740 O   0  0  0  0  0  0  0  0  0  0  0  0
   -2.3395   -0.8094    0.3372 C   0  0  2  0  0  0  0  0  0  0  0  0
   -2.2802    0.0820    1.6104 C   0  0  0  0  0  0  0  0  0  0  0  0
   -1.5197   -0.6287    2.7494 C   0  0  0  0  0  0  0  0  0  0  0  0
   -2.2334   -1.9211    3.2084 C   0  0  0  0  0  0  0  0  0  0  0  0
   -1.2691   -2.7135    4.1286 C   0  0  0  0  0  0  0  0  0  0  0  0
   -3.4596   -1.5488    4.0654 C   0  0  0  0  0  0  0  0  0  0  0  0
   -2.5686   -2.8228    1.9670 C   0  0  0  0  0  0  0  0  0  0  0  0
   -3.1470   -2.1407    0.6704 C   0  0  1  0  0  0  0  0  0  0  0  0
   -4.6628   -1.8831    0.5604 C   0  0  0  0  0  0  0  0  0  0  0  0
   -5.5162   -2.0835    1.5911 C   0  0  0  0  0  0  0  0  0  0  0  0
   -6.9677   -1.6612    1.6088 C   0  0  0  0  0  0  0  0  0  0  0  0
   -7.3623   -0.7472    0.4171 C   0  0  2  0  0  0  0  0  0  0  0  0
   -8.8992   -0.2833    0.4300 C   0  0  1  0  0  0  0  0  0  0  0  0
   -9.8915   -1.4816    0.5825 C   0  0  0  0  0  0  0  0  0  0  0  0
   -9.1189    0.6863    1.6655 C   0  0  0  0  0  0  0  0  0  0  0  0
   -9.8974    1.9950    1.3535 C   0  0  0  0  0  0  0  0  0  0  0  0
  -11.1025    1.7344    0.4403 C   0  0  2  0  0  0  0  0  0  0  0  0
  -11.9632    0.8145    1.0611 O   0  0  0  0  0  0  0  0  0  0  0  0
  -10.6139    1.2366   -0.9849 C   0  0  1  0  0  0  0  0  0  0  0  0
  -11.6961    0.3368   -1.6466 C   0  0  0  0  0  0  0  0  0  0  0  0
  -10.4376    2.4901   -1.9142 C   0  0  0  0  0  0  0  0  0  0  0  0
  -11.6390    3.2041   -2.0689 O   0  0  0  0  0  0  0  0  0  0  0  0
   -9.1814    0.5335   -0.8834 C   0  0  2  0  0  0  0  0  0  0  0  0
   -8.7714   -0.2580   -2.1508 C   0  0  0  0  0  0  0  0  0  0  0  0
   -7.2639   -0.5152   -2.1255 C   0  0  0  0  0  0  0  0  0  0  0  0
   -6.7812   -1.3568   -0.9038 C   0  0  2  0  0  0  0  0  0  0  0  0
   -7.2864   -2.8289   -1.1151 C   0  0  0  0  0  0  0  0  0  0  0  0
   -5.1553   -1.3396   -0.8022 C   0  0  2  0  0  0  0  0  0  0  0  0
   -4.5971   -2.2108   -1.9925 C   0  0  0  0  0  0  0  0  0  0  0  0
   -4.4913    0.0835   -0.8631 C   0  0  0  0  0  0  0  0  0  0  0  0
   -2.9515    0.0046   -0.8500 C   0  0  0  0  0  0  0  0  0  0  0  0
    1.5000    0.4424   -2.1136 C   0  0  2  0  0  0  0  0  0  0  0  0
    0.4788    0.2788   -3.0649 O   0  0  0  0  0  0  0  0  0  0  0  0
    2.8825    0.0621   -2.7126 C   0  0  1  0  0  0  0  0  0  0  0  0
    3.5065    1.1615   -3.3305 O   0  0  0  0  0  0  0  0  0  0  0  0
    3.7872   -0.6522   -1.6737 C   0  0  2  0  0  0  0  0  0  0  0  0
    3.4721   -2.0264   -1.6844 O   0  0  0  0  0  0  0  0  0  0  0  0
    7.4677    2.1079   -1.1139 O   0  0  0  0  0  0  0  0  0  0  0  0
    8.3315    0.9739   -1.2720 C   0  0  2  0  0  0  0  0  0  0  0  0
    7.6391   -0.2433   -1.9306 C   0  0  0  0  0  0  0  0  0  0  0  0
    8.5869   -1.2114   -2.2962 O   0  0  0  0  0  0  0  0  0  0  0  0
   12.1994    1.9287   -0.9512 C   0  0  2  0  0  0  0  0  0  0  0  0
   11.7486    1.4898   -2.2135 O   0  0  0  0  0  0  0  0  0  0  0  0
   13.7392    1.7630   -0.7834 C   0  0  2  0  0  0  0  0  0  0  0  0
   14.4115    1.7693   -2.0217 O   0  0  0  0  0  0  0  0  0  0  0  0
   14.0438    0.5227    0.0738 C   0  0  1  0  0  0  0  0  0  0  0  0
   15.4239    0.2901    0.2131 O   0  0  0  0  0  0  0  0  0  0  0  0
   12.8578   -0.3512    3.2761 H   0  0  0  0  0  0  0  0  0  0  0  0
   14.2984   -0.9921    2.3985 H   0  0  0  0  0  0  0  0  0  0  0  0
   12.6350   -1.2898    1.7518 H   0  0  0  0  0  0  0  0  0  0  0  0
   13.9977    1.4643    2.0282 H   0  0  0  0  0  0  0  0  0  0  0  0
   11.4982    0.0823   -0.0660 H   0  0  0  0  0  0  0  0  0  0  0  0
    9.5587   -0.3841   -0.0999 H   0  0  0  0  0  0  0  0  0  0  0  0
    8.8053    0.4297    2.1646 H   0  0  0  0  0  0  0  0  0  0  0  0
    6.8948   -0.7049    2.0030 H   0  0  0  0  0  0  0  0  0  0  0  0
    6.5601    1.6920    2.1350 H   0  0  0  0  0  0  0  0  0  0  0  0
    8.3836    3.3977    0.8348 H   0  0  0  0  0  0  0  0  0  0  0  0
    6.0046    2.9693    0.0388 H   0  0  0  0  0  0  0  0  0  0  0  0
    3.9306    2.0203   -0.5876 H   0  0  0  0  0  0  0  0  0  0  0  0
    4.2132    1.4697    1.1123 H   0  0  0  0  0  0  0  0  0  0  0  0
    4.0279   -0.8431    0.4739 H   0  0  0  0  0  0  0  0  0  0  0  0
    1.3647   -1.4374   -1.0392 H   0  0  0  0  0  0  0  0  0  0  0  0
   -3.2995    0.3764    1.9341 H   0  0  0  0  0  0  0  0  0  0  0  0
   -1.7309    1.0215    1.3799 H   0  0  0  0  0  0  0  0  0  0  0  0
   -1.3856    0.0605    3.6121 H   0  0  0  0  0  0  0  0  0  0  0  0
   -0.4964   -0.8701    2.3880 H   0  0  0  0  0  0  0  0  0  0  0  0
   -0.9730   -2.1126    5.0150 H   0  0  0  0  0  0  0  0  0  0  0  0
   -0.3358   -2.9828    3.5850 H   0  0  0  0  0  0  0  0  0  0  0  0
   -1.7410   -3.6566    4.4785 H   0  0  0  0  0  0  0  0  0  0  0  0
   -3.1378   -0.9780    4.9640 H   0  0  0  0  0  0  0  0  0  0  0  0
   -3.9705   -2.4676    4.4272 H   0  0  0  0  0  0  0  0  0  0  0  0
   -4.1774   -0.9020    3.5318 H   0  0  0  0  0  0  0  0  0  0  0  0
   -3.1588   -3.7201    2.2521 H   0  0  0  0  0  0  0  0  0  0  0  0
   -1.5901   -3.2342    1.6475 H   0  0  0  0  0  0  0  0  0  0  0  0
   -2.9767   -2.9018   -0.1137 H   0  0  0  0  0  0  0  0  0  0  0  0
   -5.1750   -2.5488    2.4959 H   0  0  0  0  0  0  0  0  0  0  0  0
   -7.1522   -1.0956    2.5461 H   0  0  0  0  0  0  0  0  0  0  0  0
   -7.5630   -2.5926    1.6547 H   0  0  0  0  0  0  0  0  0  0  0  0
   -6.8121    0.2062    0.5307 H   0  0  0  0  0  0  0  0  0  0  0  0
   -9.6591   -2.0919    1.4752 H   0  0  0  0  0  0  0  0  0  0  0  0
   -9.9756   -2.1337   -0.2898 H   0  0  0  0  0  0  0  0  0  0  0  0
  -10.9203   -1.1641    0.7605 H   0  0  0  0  0  0  0  0  0  0  0  0
   -8.1591    1.0385    2.1006 H   0  0  0  0  0  0  0  0  0  0  0  0
   -9.6201    0.1297    2.4879 H   0  0  0  0  0  0  0  0  0  0  0  0
   -9.2318    2.7207    0.8383 H   0  0  0  0  0  0  0  0  0  0  0  0
  -10.2047    2.4707    2.3096 H   0  0  0  0  0  0  0  0  0  0  0  0
  -11.6931    2.6690    0.3074 H   0  0  0  0  0  0  0  0  0  0  0  0
  -12.3256    1.2523    1.8757 H   0  0  0  0  0  0  0  0  0  0  0  0
  -12.6693    0.8691   -1.6993 H   0  0  0  0  0  0  0  0  0  0  0  0
  -11.8717   -0.6047   -1.0998 H   0  0  0  0  0  0  0  0  0  0  0  0
  -11.4102    0.0659   -2.6849 H   0  0  0  0  0  0  0  0  0  0  0  0
  -10.0439    2.2100   -2.9164 H   0  0  0  0  0  0  0  0  0  0  0  0
   -9.6854    3.1886   -1.4906 H   0  0  0  0  0  0  0  0  0  0  0  0
  -12.0453    2.9169   -2.9284 H   0  0  0  0  0  0  0  0  0  0  0  0
   -8.4579    1.3786   -0.8168 H   0  0  0  0  0  0  0  0  0  0  0  0
   -8.9621    0.3396   -3.0633 H   0  0  0  0  0  0  0  0  0  0  0  0
   -9.3509   -1.1957   -2.2578 H   0  0  0  0  0  0  0  0  0  0  0  0
   -6.8120    0.4925   -2.1092 H   0  0  0  0  0  0  0  0  0  0  0  0
   -6.9680   -0.9947   -3.0812 H   0  0  0  0  0  0  0  0  0  0  0  0
   -6.9801   -3.2310   -2.0999 H   0  0  0  0  0  0  0  0  0  0  0  0
   -8.3655   -2.9416   -1.1620 H   0  0  0  0  0  0  0  0  0  0  0  0
   -6.9065   -3.5198   -0.3358 H   0  0  0  0  0  0  0  0  0  0  0  0
   -4.9298   -1.8165   -2.9720 H   0  0  0  0  0  0  0  0  0  0  0  0
   -4.8796   -3.2757   -1.8960 H   0  0  0  0  0  0  0  0  0  0  0  0
   -3.5021   -2.2783   -2.0724 H   0  0  0  0  0  0  0  0  0  0  0  0
   -4.8060    0.7081   -0.0026 H   0  0  0  0  0  0  0  0  0  0  0  0
   -4.7504    0.6244   -1.7928 H   0  0  0  0  0  0  0  0  0  0  0  0
   -2.5181    1.0295   -0.8814 H   0  0  0  0  0  0  0  0  0  0  0  0
   -2.6357   -0.4339   -1.8154 H   0  0  0  0  0  0  0  0  0  0  0  0
    1.4977    1.5054   -1.7855 H   0  0  0  0  0  0  0  0  0  0  0  0
    0.3664   -0.6968   -3.2133 H   0  0  0  0  0  0  0  0  0  0  0  0
    2.7390   -0.6889   -3.5214 H   0  0  0  0  0  0  0  0  0  0  0  0
    3.5278    1.9157   -2.6931 H   0  0  0  0  0  0  0  0  0  0  0  0
    4.8356   -0.5872   -2.0226 H   0  0  0  0  0  0  0  0  0  0  0  0
    4.1782   -2.4958   -1.1671 H   0  0  0  0  0  0  0  0  0  0  0  0
    9.0904    1.2729   -2.0263 H   0  0  0  0  0  0  0  0  0  0  0  0
    7.0725    0.0858   -2.8319 H   0  0  0  0  0  0  0  0  0  0  0  0
    6.9235   -0.7421   -1.2587 H   0  0  0  0  0  0  0  0  0  0  0  0
    8.9801   -0.9161   -3.1586 H   0  0  0  0  0  0  0  0  0  0  0  0
   11.9914    3.0205   -0.8959 H   0  0  0  0  0  0  0  0  0  0  0  0
   11.9424    0.5188   -2.2853 H   0  0  0  0  0  0  0  0  0  0  0  0
   14.1199    2.6276   -0.1926 H   0  0  0  0  0  0  0  0  0  0  0  0
   14.2977    0.8726   -2.4294 H   0  0  0  0  0  0  0  0  0  0  0  0
   13.6114   -0.3609   -0.4462 H   0  0  0  0  0  0  0  0  0  0  0  0
   15.8313    1.1142    0.5885 H   0  0  0  0  0  0  0  0  0  0  0  0
  1 67  1  0  0  0  0
  1 68  1  0  0  0  0
  1 69  1  0  0  0  0
  2  1  1  0  0  0  0
  2  3  1  0  0  0  0
  2 70  1  1  0  0  0
  3  4  1  0  0  0  0
  4  5  1  0  0  0  0
  4 61  1  0  0  0  0
  4 71  1  6  0  0  0
  6  5  1  0  0  0  0
  6  7  1  0  0  0  0
  6 72  1  6  0  0  0
  7  8  1  0  0  0  0
  7  9  1  0  0  0  0
  7 73  1  1  0  0  0
  8 74  1  0  0  0  0
  9 10  1  0  0  0  0
  9 11  1  0  0  0  0
  9 75  1  1  0  0  0
 10 76  1  0  0  0  0
 11 12  1  0  0  0  0
 11 57  1  0  0  0  0
 11 77  1  1  0  0  0
 12 13  1  0  0  0  0
 13 78  1  0  0  0  0
 13 79  1  0  0  0  0
 14 13  1  0  0  0  0
 14 15  1  0  0  0  0
 14 80  1  1  0  0  0
 15 16  1  0  0  0  0
 16 17  1  0  0  0  0
 16 51  1  0  0  0  0
 16 81  1  6  0  0  0
 17 18  1  0  0  0  0
 18 19  2  0  0  0  0
 20 18  1  6  0  0  0
 20 21  1  0  0  0  0
 21 22  1  0  0  0  0
 21 82  1  0  0  0  0
 21 83  1  0  0  0  0
 22 23  1  0  0  0  0
 22 84  1  0  0  0  0
 22 85  1  0  0  0  0
 23 24  1  0  0  0  0
 23 25  1  0  0  0  0
 23 26  1  0  0  0  0
 24 86  1  0  0  0  0
 24 87  1  0  0  0  0
 24 88  1  0  0  0  0
 25 89  1  0  0  0  0
 25 90  1  0  0  0  0
 25 91  1  0  0  0  0
 26 92  1  0  0  0  0
 26 93  1  0  0  0  0
 27 26  1  0  0  0  0
 27 28  1  0  0  0  0
 27 20  1  0  0  0  0
 27 94  1  6  0  0  0
 28 29  2  0  0  0  0
 29 30  1  0  0  0  0
 29 95  1  0  0  0  0
 30 96  1  0  0  0  0
 30 97  1  0  0  0  0
 31 30  1  0  0  0  0
 31 32  1  0  0  0  0
 31 98  1  1  0  0  0
 32 33  1  1  0  0  0
 32 34  1  0  0  0  0
 33 99  1  0  0  0  0
 33100  1  0  0  0  0
 33101  1  0  0  0  0
 34 35  1  0  0  0  0
 34102  1  0  0  0  0
 34103  1  0  0  0  0
 35 36  1  0  0  0  0
 35104  1  0  0  0  0
 35105  1  0  0  0  0
 36 37  1  0  0  0  0
 36 38  1  0  0  0  0
 36106  1  6  0  0  0
 37107  1  0  0  0  0
 38 39  1  6  0  0  0
 38 40  1  0  0  0  0
 38 42  1  0  0  0  0
 39108  1  0  0  0  0
 39109  1  0  0  0  0
 39110  1  0  0  0  0
 40 41  1  0  0  0  0
 40111  1  0  0  0  0
 40112  1  0  0  0  0
 41113  1  0  0  0  0
 42 43  1  0  0  0  0
 42 32  1  0  0  0  0
 42114  1  1  0  0  0
 43 44  1  0  0  0  0
 43115  1  0  0  0  0
 43116  1  0  0  0  0
 44 45  1  0  0  0  0
 44117  1  0  0  0  0
 44118  1  0  0  0  0
 45 46  1  6  0  0  0
 45 47  1  0  0  0  0
 45 31  1  0  0  0  0
 46119  1  0  0  0  0
 46120  1  0  0  0  0
 46121  1  0  0  0  0
 47 48  1  6  0  0  0
 47 49  1  0  0  0  0
 47 28  1  0  0  0  0
 48122  1  0  0  0  0
 48123  1  0  0  0  0
 48124  1  0  0  0  0
 49 50  1  0  0  0  0
 49125  1  0  0  0  0
 49126  1  0  0  0  0
 50 20  1  0  0  0  0
 50127  1  0  0  0  0
 50128  1  0  0  0  0
 51 52  1  0  0  0  0
 51 53  1  0  0  0  0
 51129  1  1  0  0  0
 52130  1  0  0  0  0
 53 54  1  0  0  0  0
 53 55  1  0  0  0  0
 53131  1  6  0  0  0
 54132  1  0  0  0  0
 55 56  1  0  0  0  0
 55 14  1  0  0  0  0
 55133  1  6  0  0  0
 56134  1  0  0  0  0
 57 58  1  0  0  0  0
 58 59  1  0  0  0  0
 58  6  1  0  0  0  0
 58135  1  6  0  0  0
 59 60  1  0  0  0  0
 59136  1  0  0  0  0
 59137  1  0  0  0  0
 60138  1  0  0  0  0
 61 62  1  0  0  0  0
 61 63  1  0  0  0  0
 61139  1  1  0  0  0
 62140  1  0  0  0  0
 63 64  1  0  0  0  0
 63 65  1  0  0  0  0
 63141  1  1  0  0  0
 64142  1  0  0  0  0
 65 66  1  0  0  0  0
 65  2  1  0  0  0  0
 65143  1  6  0  0  0
 66144  1  0  0  0  0
M  END
>  <IDENTIFIER>
CNP0192260.5

>  <Energy>
1882.29

$$$$
