
 OpenBabel09122502353D

111118  0  0  0  0  0  0  0  0999 V2000
  -12.7474    0.2835   -0.4699 C   0  0  0  0  0  0  0  0  0  0  0  0
  -11.2930   -0.1322   -0.6943 C   0  0  2  0  0  0  0  0  0  0  0  0
  -10.7364   -0.9591    0.4646 C   0  0  0  0  0  0  0  0  0  0  0  0
   -9.3457   -1.4281    0.0493 C   0  0  0  0  0  0  0  0  0  0  0  0
   -8.4238   -0.2395   -0.3711 C   0  0  1  0  0  0  0  0  0  0  0  0
   -9.0688    0.7025   -1.2382 O   0  0  0  0  0  0  0  0  0  0  0  0
  -10.3735    1.0834   -0.8553 C   0  0  0  0  0  0  0  0  0  0  0  0
   -7.8782    0.4144    0.7720 O   0  0  0  0  0  0  0  0  0  0  0  0
   -6.5770    0.8779    0.4028 C   0  0  1  0  0  0  0  0  0  0  0  0
   -5.3740    0.3040    1.2381 C   0  0  0  0  0  0  0  0  0  0  0  0
   -4.4689   -0.4387    0.2171 C   0  0  2  0  0  0  0  0  0  0  0  0
   -2.9343   -0.5893    0.4385 C   0  0  2  0  0  0  0  0  0  0  0  0
   -2.5773   -1.2916    1.7577 C   0  0  0  0  0  0  0  0  0  0  0  0
   -1.0916   -1.5343    1.7733 C   0  0  0  0  0  0  0  0  0  0  0  0
   -0.6529   -2.6707    1.8799 O   0  0  0  0  0  0  0  0  0  0  0  0
   -0.1755   -0.3410    1.6018 C   0  0  1  0  0  0  0  0  0  0  0  0
    1.3254   -0.7292    1.6235 C   0  0  0  0  0  0  0  0  0  0  0  0
    2.2663    0.4846    1.4473 C   0  0  1  0  0  0  0  0  0  0  0  0
    3.5353   -0.0555    1.1169 O   0  0  0  0  0  0  0  0  0  0  0  0
    4.6392    0.4438    1.8366 C   0  0  2  0  0  0  0  0  0  0  0  0
    5.3531    1.3312    0.9849 O   0  0  0  0  0  0  0  0  0  0  0  0
    6.5361    1.8031    1.6119 C   0  0  0  0  0  0  0  0  0  0  0  0
    7.5334    0.6574    1.8671 C   0  0  2  0  0  0  0  0  0  0  0  0
    7.8658    0.0394    0.6240 O   0  0  0  0  0  0  0  0  0  0  0  0
    9.2716   -0.0802    0.4061 C   0  0  2  0  0  0  0  0  0  0  0  0
    9.6578    0.9941   -0.4667 O   0  0  0  0  0  0  0  0  0  0  0  0
   10.7207    0.6344   -1.3317 C   0  0  2  0  0  0  0  0  0  0  0  0
   11.2709    1.8750   -2.0480 C   0  0  0  0  0  0  0  0  0  0  0  0
   10.2807    2.4787   -2.8403 O   0  0  0  0  0  0  0  0  0  0  0  0
   10.2732   -0.4633   -2.3480 C   0  0  1  0  0  0  0  0  0  0  0  0
   11.4077   -1.0823   -2.9069 O   0  0  0  0  0  0  0  0  0  0  0  0
    9.3161   -1.5011   -1.6790 C   0  0  2  0  0  0  0  0  0  0  0  0
    7.9606   -1.2083   -1.9430 O   0  0  0  0  0  0  0  0  0  0  0  0
    9.5469   -1.5184   -0.1630 C   0  0  1  0  0  0  0  0  0  0  0  0
   10.8757   -1.9099    0.0945 O   0  0  0  0  0  0  0  0  0  0  0  0
    6.8474   -0.3557    2.7991 C   0  0  2  0  0  0  0  0  0  0  0  0
    7.6873   -1.4506    3.0738 O   0  0  0  0  0  0  0  0  0  0  0  0
    5.5089   -0.7926    2.1729 C   0  0  1  0  0  0  0  0  0  0  0  0
    4.8209   -1.6888    3.0092 O   0  0  0  0  0  0  0  0  0  0  0  0
    1.8369    1.4169    0.2924 C   0  0  0  0  0  0  0  0  0  0  0  0
    0.3222    1.7268    0.2951 C   0  0  0  0  0  0  0  0  0  0  0  0
   -0.5376    0.4219    0.2796 C   0  0  1  0  0  0  0  0  0  0  0  0
   -0.1639   -0.4320   -0.9950 C   0  0  0  0  0  0  0  0  0  0  0  0
   -2.1055    0.7430    0.2797 C   0  0  1  0  0  0  0  0  0  0  0  0
   -2.5412    1.5365   -0.9929 C   0  0  0  0  0  0  0  0  0  0  0  0
   -4.0627    1.6695   -1.1173 C   0  0  0  0  0  0  0  0  0  0  0  0
   -4.7700    0.2710   -1.1129 C   0  0  1  0  0  0  0  0  0  0  0  0
   -4.3428   -0.5597   -2.3492 C   0  0  0  0  0  0  0  0  0  0  0  0
   -6.3000    0.4597   -1.0389 C   0  0  1  0  0  0  0  0  0  0  0  0
   -7.2102   -0.7743   -1.1335 C   0  0  2  0  0  0  0  0  0  0  0  0
   -7.5414   -1.2345   -2.5761 C   0  0  0  0  0  0  0  0  0  0  0  0
  -13.3855   -0.6216   -0.3748 H   0  0  0  0  0  0  0  0  0  0  0  0
  -13.1087    0.8582   -1.3518 H   0  0  0  0  0  0  0  0  0  0  0  0
  -12.8535    0.9082    0.4396 H   0  0  0  0  0  0  0  0  0  0  0  0
  -11.2751   -0.7347   -1.6329 H   0  0  0  0  0  0  0  0  0  0  0  0
  -11.3772   -1.8470    0.6576 H   0  0  0  0  0  0  0  0  0  0  0  0
  -10.6912   -0.3471    1.3935 H   0  0  0  0  0  0  0  0  0  0  0  0
   -9.5127   -2.1053   -0.8101 H   0  0  0  0  0  0  0  0  0  0  0  0
   -8.8691   -2.0298    0.8528 H   0  0  0  0  0  0  0  0  0  0  0  0
  -10.7780    1.7159   -1.6746 H   0  0  0  0  0  0  0  0  0  0  0  0
  -10.3452    1.7116    0.0627 H   0  0  0  0  0  0  0  0  0  0  0  0
   -6.5454    1.9875    0.4782 H   0  0  0  0  0  0  0  0  0  0  0  0
   -5.6587   -0.3248    2.1087 H   0  0  0  0  0  0  0  0  0  0  0  0
   -4.8121    1.1757    1.6365 H   0  0  0  0  0  0  0  0  0  0  0  0
   -4.8689   -1.4714    0.1719 H   0  0  0  0  0  0  0  0  0  0  0  0
   -2.6424   -1.2810   -0.3676 H   0  0  0  0  0  0  0  0  0  0  0  0
   -3.1221   -2.2574    1.8442 H   0  0  0  0  0  0  0  0  0  0  0  0
   -2.8583   -0.6476    2.6187 H   0  0  0  0  0  0  0  0  0  0  0  0
   -0.3707    0.3314    2.4680 H   0  0  0  0  0  0  0  0  0  0  0  0
    1.5205   -1.4664    0.8196 H   0  0  0  0  0  0  0  0  0  0  0  0
    1.5851   -1.2457    2.5735 H   0  0  0  0  0  0  0  0  0  0  0  0
    2.2209    1.0678    2.3960 H   0  0  0  0  0  0  0  0  0  0  0  0
    4.3464    0.9630    2.7802 H   0  0  0  0  0  0  0  0  0  0  0  0
    6.2905    2.3367    2.5585 H   0  0  0  0  0  0  0  0  0  0  0  0
    7.0174    2.5481    0.9446 H   0  0  0  0  0  0  0  0  0  0  0  0
    8.4084    1.1021    2.3952 H   0  0  0  0  0  0  0  0  0  0  0  0
    9.8400   -0.0193    1.3613 H   0  0  0  0  0  0  0  0  0  0  0  0
   11.5589    0.2602   -0.7022 H   0  0  0  0  0  0  0  0  0  0  0  0
   12.1623    1.5998   -2.6609 H   0  0  0  0  0  0  0  0  0  0  0  0
   11.6197    2.6152   -1.2973 H   0  0  0  0  0  0  0  0  0  0  0  0
   10.4485    2.2063   -3.7776 H   0  0  0  0  0  0  0  0  0  0  0  0
    9.7080   -0.0286   -3.1997 H   0  0  0  0  0  0  0  0  0  0  0  0
   11.8762   -1.5755   -2.1851 H   0  0  0  0  0  0  0  0  0  0  0  0
    9.5025   -2.5003   -2.1289 H   0  0  0  0  0  0  0  0  0  0  0  0
    7.8274   -0.2257   -1.9302 H   0  0  0  0  0  0  0  0  0  0  0  0
    8.8779   -2.2667    0.3153 H   0  0  0  0  0  0  0  0  0  0  0  0
   10.9345   -2.1125    1.0650 H   0  0  0  0  0  0  0  0  0  0  0  0
    6.6236    0.1468    3.7660 H   0  0  0  0  0  0  0  0  0  0  0  0
    7.6825   -2.0495    2.2831 H   0  0  0  0  0  0  0  0  0  0  0  0
    5.7247   -1.3195    1.2153 H   0  0  0  0  0  0  0  0  0  0  0  0
    4.5788   -1.1990    3.8378 H   0  0  0  0  0  0  0  0  0  0  0  0
    2.1047    0.9560   -0.6769 H   0  0  0  0  0  0  0  0  0  0  0  0
    2.4244    2.3597    0.3413 H   0  0  0  0  0  0  0  0  0  0  0  0
    0.1077    2.3574   -0.5923 H   0  0  0  0  0  0  0  0  0  0  0  0
    0.0733    2.3221    1.2014 H   0  0  0  0  0  0  0  0  0  0  0  0
   -0.3306    0.1259   -1.9339 H   0  0  0  0  0  0  0  0  0  0  0  0
   -0.6925   -1.3981   -1.0502 H   0  0  0  0  0  0  0  0  0  0  0  0
    0.8954   -0.7223   -1.0579 H   0  0  0  0  0  0  0  0  0  0  0  0
   -2.3575    1.3812    1.1566 H   0  0  0  0  0  0  0  0  0  0  0  0
   -2.1964    1.0576   -1.9174 H   0  0  0  0  0  0  0  0  0  0  0  0
   -2.0951    2.5526   -0.9795 H   0  0  0  0  0  0  0  0  0  0  0  0
   -4.3115    2.2181   -2.0514 H   0  0  0  0  0  0  0  0  0  0  0  0
   -4.4005    2.3079   -0.2767 H   0  0  0  0  0  0  0  0  0  0  0  0
   -4.6937   -0.0694   -3.2817 H   0  0  0  0  0  0  0  0  0  0  0  0
   -4.7420   -1.5880   -2.2763 H   0  0  0  0  0  0  0  0  0  0  0  0
   -3.2518   -0.7064   -2.4337 H   0  0  0  0  0  0  0  0  0  0  0  0
   -6.6812    1.2154   -1.7634 H   0  0  0  0  0  0  0  0  0  0  0  0
   -6.8118   -1.6294   -0.5550 H   0  0  0  0  0  0  0  0  0  0  0  0
   -7.9704   -0.4023   -3.1720 H   0  0  0  0  0  0  0  0  0  0  0  0
   -8.2672   -2.0699   -2.5723 H   0  0  0  0  0  0  0  0  0  0  0  0
   -6.6667   -1.6116   -3.1254 H   0  0  0  0  0  0  0  0  0  0  0  0
  1 52  1  0  0  0  0
  1 53  1  0  0  0  0
  1 54  1  0  0  0  0
  2  1  1  0  0  0  0
  2  3  1  0  0  0  0
  2 55  1  6  0  0  0
  3  4  1  0  0  0  0
  3 56  1  0  0  0  0
  3 57  1  0  0  0  0
  4 58  1  0  0  0  0
  4 59  1  0  0  0  0
  5  4  1  0  0  0  0
  5  6  1  6  0  0  0
  5  8  1  0  0  0  0
  6  7  1  0  0  0  0
  7  2  1  0  0  0  0
  7 60  1  0  0  0  0
  7 61  1  0  0  0  0
  8  9  1  0  0  0  0
  9 10  1  0  0  0  0
  9 62  1  1  0  0  0
 10 63  1  0  0  0  0
 10 64  1  0  0  0  0
 11 10  1  0  0  0  0
 11 12  1  0  0  0  0
 11 65  1  6  0  0  0
 12 13  1  0  0  0  0
 12 66  1  6  0  0  0
 13 14  1  0  0  0  0
 13 67  1  0  0  0  0
 13 68  1  0  0  0  0
 14 15  2  0  0  0  0
 14 16  1  0  0  0  0
 16 17  1  0  0  0  0
 16 69  1  1  0  0  0
 17 18  1  0  0  0  0
 17 70  1  0  0  0  0
 17 71  1  0  0  0  0
 18 19  1  0  0  0  0
 18 40  1  0  0  0  0
 18 72  1  1  0  0  0
 20 19  1  0  0  0  0
 20 21  1  0  0  0  0
 20 73  1  1  0  0  0
 21 22  1  0  0  0  0
 22 23  1  0  0  0  0
 22 74  1  0  0  0  0
 22 75  1  0  0  0  0
 23 24  1  0  0  0  0
 23 36  1  0  0  0  0
 23 76  1  1  0  0  0
 25 24  1  0  0  0  0
 25 26  1  0  0  0  0
 25 77  1  1  0  0  0
 26 27  1  0  0  0  0
 27 28  1  0  0  0  0
 27 30  1  0  0  0  0
 27 78  1  1  0  0  0
 28 29  1  0  0  0  0
 28 79  1  0  0  0  0
 28 80  1  0  0  0  0
 29 81  1  0  0  0  0
 30 31  1  0  0  0  0
 30 32  1  0  0  0  0
 30 82  1  6  0  0  0
 31 83  1  0  0  0  0
 32 33  1  0  0  0  0
 32 34  1  0  0  0  0
 32 84  1  6  0  0  0
 33 85  1  0  0  0  0
 34 35  1  0  0  0  0
 34 25  1  0  0  0  0
 34 86  1  1  0  0  0
 35 87  1  0  0  0  0
 36 37  1  0  0  0  0
 36 38  1  0  0  0  0
 36 88  1  1  0  0  0
 37 89  1  0  0  0  0
 38 39  1  0  0  0  0
 38 20  1  0  0  0  0
 38 90  1  6  0  0  0
 39 91  1  0  0  0  0
 40 41  1  0  0  0  0
 40 92  1  0  0  0  0
 40 93  1  0  0  0  0
 41 42  1  0  0  0  0
 41 94  1  0  0  0  0
 41 95  1  0  0  0  0
 42 43  1  6  0  0  0
 42 44  1  0  0  0  0
 42 16  1  0  0  0  0
 43 96  1  0  0  0  0
 43 97  1  0  0  0  0
 43 98  1  0  0  0  0
 44 45  1  0  0  0  0
 44 12  1  0  0  0  0
 44 99  1  1  0  0  0
 45 46  1  0  0  0  0
 45100  1  0  0  0  0
 45101  1  0  0  0  0
 46 47  1  0  0  0  0
 46102  1  0  0  0  0
 46103  1  0  0  0  0
 47 48  1  6  0  0  0
 47 49  1  0  0  0  0
 47 11  1  0  0  0  0
 48104  1  0  0  0  0
 48105  1  0  0  0  0
 48106  1  0  0  0  0
 49 50  1  0  0  0  0
 49  9  1  0  0  0  0
 49107  1  6  0  0  0
 50 51  1  0  0  0  0
 50  5  1  0  0  0  0
 50108  1  1  0  0  0
 51109  1  0  0  0  0
 51110  1  0  0  0  0
 51111  1  0  0  0  0
M  END
>  <IDENTIFIER>
CNP0137718.2

>  <Energy>
1339.26

$$$$
