
 OpenBabel09102520053D

 98104  0  0  0  0  0  0  0  0999 V2000
   -9.1963    2.5108   -0.9518 C   0  0  0  0  0  0  0  0  0  0  0  0
   -8.8824    1.1765   -0.3129 C   0  0  0  0  0  0  0  0  0  0  0  0
   -9.7306    0.4657    0.4921 C   0  0  0  0  0  0  0  0  0  0  0  0
  -11.1460    0.8678    0.8499 C   0  0  0  0  0  0  0  0  0  0  0  0
   -9.2117   -0.7996    1.0883 C   0  0  0  0  0  0  0  0  0  0  0  0
   -9.9533   -1.5596    1.6904 O   0  0  0  0  0  0  0  0  0  0  0  0
   -7.8930   -1.0998    0.9791 O   0  0  0  0  0  0  0  0  0  0  0  0
   -6.9573   -0.1497    0.5954 C   0  0  1  0  0  0  0  0  0  0  0  0
   -5.5807   -0.8578    0.3921 C   0  0  1  0  0  0  0  0  0  0  0  0
   -5.6536   -1.8194   -0.8118 C   0  0  0  0  0  0  0  0  0  0  0  0
   -4.3542    0.1369    0.4664 C   0  0  2  0  0  0  0  0  0  0  0  0
   -4.2422    1.4497   -0.3546 C   0  0  2  0  0  0  0  0  0  0  0  0
   -4.2679    1.2565   -1.7536 O   0  0  0  0  0  0  0  0  0  0  0  0
   -2.8554    1.9859    0.1050 C   0  0  0  0  0  0  0  0  0  0  0  0
   -2.0175    0.7268   -0.0122 C   0  0  1  0  0  0  0  0  0  0  0  0
   -0.4826    0.6440    0.2445 C   0  0  1  0  0  0  0  0  0  0  0  0
    0.0786    1.2678    1.5662 C   0  0  1  0  0  0  0  0  0  0  0  0
    0.5090    0.3276    2.5360 O   0  0  0  0  0  0  0  0  0  0  0  0
    1.5394    1.0032    1.8472 C   0  0  1  0  0  0  0  0  0  0  0  0
    2.2606    0.3122    0.6380 C   0  0  1  0  0  0  0  0  0  0  0  0
    2.2163    1.2666   -0.4076 O   0  0  0  0  0  0  0  0  0  0  0  0
    3.7666    0.0269    0.8970 C   0  0  0  0  0  0  0  0  0  0  0  0
    4.4602   -0.4311   -0.4181 C   0  0  1  0  0  0  0  0  0  0  0  0
    5.7710   -0.8745   -0.1041 O   0  0  0  0  0  0  0  0  0  0  0  0
    6.8229   -0.0642   -0.5958 C   0  0  1  0  0  0  0  0  0  0  0  0
    7.5475    0.4377    0.5192 O   0  0  0  0  0  0  0  0  0  0  0  0
    8.5852    1.3152    0.1010 C   0  0  1  0  0  0  0  0  0  0  0  0
    9.2000    1.9738    1.3441 C   0  0  0  0  0  0  0  0  0  0  0  0
   10.1831    2.9075    0.9830 O   0  0  0  0  0  0  0  0  0  0  0  0
    9.6475    0.5434   -0.7347 C   0  0  1  0  0  0  0  0  0  0  0  0
   10.3377   -0.4231    0.0287 O   0  0  0  0  0  0  0  0  0  0  0  0
    8.9351   -0.0957   -1.9461 C   0  0  1  0  0  0  0  0  0  0  0  0
    9.8233   -0.8159   -2.7652 O   0  0  0  0  0  0  0  0  0  0  0  0
    7.7405   -0.9548   -1.4879 C   0  0  1  0  0  0  0  0  0  0  0  0
    8.2101   -2.1126   -0.8258 O   0  0  0  0  0  0  0  0  0  0  0  0
    3.7310   -1.5979   -1.1177 C   0  0  0  0  0  0  0  0  0  0  0  0
    2.1929   -1.3818   -1.2466 C   0  0  1  0  0  0  0  0  0  0  0  0
    1.6019   -2.5010   -1.8606 O   0  0  0  0  0  0  0  0  0  0  0  0
    1.5541   -1.0451    0.1552 C   0  0  1  0  0  0  0  0  0  0  0  0
    1.8227   -2.2471    1.1438 C   0  0  0  0  0  0  0  0  0  0  0  0
   -0.0214   -0.8522    0.1595 C   0  0  2  0  0  0  0  0  0  0  0  0
   -0.9276   -1.7159   -0.7399 C   0  0  0  0  0  0  0  0  0  0  0  0
   -2.4413   -1.6766   -0.2725 C   0  0  0  0  0  0  0  0  0  0  0  0
   -2.8640   -0.4180    0.5861 C   0  0  2  0  0  0  0  0  0  0  0  0
   -2.6571   -0.6695    2.1250 C   0  0  0  0  0  0  0  0  0  0  0  0
   -7.5215    0.5814   -0.6412 C   0  0  0  0  0  0  0  0  0  0  0  0
  -10.1840    2.9335   -0.7133 H   0  0  0  0  0  0  0  0  0  0  0  0
   -9.1380    2.4031   -2.0555 H   0  0  0  0  0  0  0  0  0  0  0  0
   -8.4381    3.2538   -0.6280 H   0  0  0  0  0  0  0  0  0  0  0  0
  -11.5066    1.8017    0.3927 H   0  0  0  0  0  0  0  0  0  0  0  0
  -11.2225    0.9848    1.9514 H   0  0  0  0  0  0  0  0  0  0  0  0
  -11.8418    0.0637    0.5302 H   0  0  0  0  0  0  0  0  0  0  0  0
   -6.8622    0.5822    1.4292 H   0  0  0  0  0  0  0  0  0  0  0  0
   -5.4581   -1.5080    1.2872 H   0  0  0  0  0  0  0  0  0  0  0  0
   -5.6887   -1.2775   -1.7767 H   0  0  0  0  0  0  0  0  0  0  0  0
   -6.5660   -2.4482   -0.7376 H   0  0  0  0  0  0  0  0  0  0  0  0
   -4.8321   -2.5502   -0.8150 H   0  0  0  0  0  0  0  0  0  0  0  0
   -4.5583    0.6252    1.4493 H   0  0  0  0  0  0  0  0  0  0  0  0
   -5.0431    2.1771   -0.1028 H   0  0  0  0  0  0  0  0  0  0  0  0
   -4.1040    0.3047   -1.9668 H   0  0  0  0  0  0  0  0  0  0  0  0
   -2.8895    2.3014    1.1716 H   0  0  0  0  0  0  0  0  0  0  0  0
   -2.4925    2.8349   -0.5135 H   0  0  0  0  0  0  0  0  0  0  0  0
   -2.0505    0.5790   -1.1196 H   0  0  0  0  0  0  0  0  0  0  0  0
   -0.0740    1.2467   -0.5922 H   0  0  0  0  0  0  0  0  0  0  0  0
   -0.2907    2.2313    1.9768 H   0  0  0  0  0  0  0  0  0  0  0  0
    2.0060    1.8459    2.4001 H   0  0  0  0  0  0  0  0  0  0  0  0
    2.6764    2.0951   -0.1058 H   0  0  0  0  0  0  0  0  0  0  0  0
    3.8956   -0.7158    1.7072 H   0  0  0  0  0  0  0  0  0  0  0  0
    4.2786    0.9488    1.2493 H   0  0  0  0  0  0  0  0  0  0  0  0
    4.4174    0.4204   -1.1335 H   0  0  0  0  0  0  0  0  0  0  0  0
    6.4590    0.7911   -1.2140 H   0  0  0  0  0  0  0  0  0  0  0  0
    8.1560    2.1417   -0.5133 H   0  0  0  0  0  0  0  0  0  0  0  0
    9.6140    1.2086    2.0413 H   0  0  0  0  0  0  0  0  0  0  0  0
    8.4042    2.5087    1.9048 H   0  0  0  0  0  0  0  0  0  0  0  0
   11.0530    2.4293    0.9933 H   0  0  0  0  0  0  0  0  0  0  0  0
   10.4048    1.2642   -1.1110 H   0  0  0  0  0  0  0  0  0  0  0  0
    9.7160   -0.8297    0.6846 H   0  0  0  0  0  0  0  0  0  0  0  0
    8.5243    0.7365   -2.5609 H   0  0  0  0  0  0  0  0  0  0  0  0
   10.2103   -1.5536   -2.2265 H   0  0  0  0  0  0  0  0  0  0  0  0
    7.1602   -1.2882   -2.3758 H   0  0  0  0  0  0  0  0  0  0  0  0
    7.7561   -2.2239    0.0479 H   0  0  0  0  0  0  0  0  0  0  0  0
    3.9296   -2.5281   -0.5512 H   0  0  0  0  0  0  0  0  0  0  0  0
    4.1787   -1.7612   -2.1220 H   0  0  0  0  0  0  0  0  0  0  0  0
    2.0233   -0.5292   -1.9380 H   0  0  0  0  0  0  0  0  0  0  0  0
    1.9124   -3.3192   -1.3947 H   0  0  0  0  0  0  0  0  0  0  0  0
    1.2801   -3.1559    0.8090 H   0  0  0  0  0  0  0  0  0  0  0  0
    1.4706   -2.0104    2.1695 H   0  0  0  0  0  0  0  0  0  0  0  0
    2.8760   -2.5437    1.2677 H   0  0  0  0  0  0  0  0  0  0  0  0
   -0.3140   -1.2783    1.1082 H   0  0  0  0  0  0  0  0  0  0  0  0
   -0.6184   -2.7805   -0.7921 H   0  0  0  0  0  0  0  0  0  0  0  0
   -0.8289   -1.2852   -1.7612 H   0  0  0  0  0  0  0  0  0  0  0  0
   -2.7167   -2.5920    0.2941 H   0  0  0  0  0  0  0  0  0  0  0  0
   -2.9768   -1.6875   -1.2402 H   0  0  0  0  0  0  0  0  0  0  0  0
   -3.3861   -1.4326    2.4692 H   0  0  0  0  0  0  0  0  0  0  0  0
   -2.8320    0.2611    2.7068 H   0  0  0  0  0  0  0  0  0  0  0  0
   -1.6936   -1.0345    2.4879 H   0  0  0  0  0  0  0  0  0  0  0  0
   -7.6930   -0.1738   -1.4369 H   0  0  0  0  0  0  0  0  0  0  0  0
   -6.8496    1.3486   -1.0639 H   0  0  0  0  0  0  0  0  0  0  0  0
  1  2  1  0  0  0  0
  1 47  1  0  0  0  0
  1 48  1  0  0  0  0
  1 49  1  0  0  0  0
  2  3  2  0  0  0  0
  3  4  1  0  0  0  0
  3  5  1  0  0  0  0
  4 50  1  0  0  0  0
  4 51  1  0  0  0  0
  4 52  1  0  0  0  0
  5  6  2  0  0  0  0
  5  7  1  0  0  0  0
  7  8  1  0  0  0  0
  8  9  1  0  0  0  0
  8 46  1  0  0  0  0
  8 53  1  1  0  0  0
  9 10  1  0  0  0  0
  9 11  1  0  0  0  0
  9 54  1  1  0  0  0
 10 55  1  0  0  0  0
 10 56  1  0  0  0  0
 10 57  1  0  0  0  0
 11 12  1  0  0  0  0
 11 58  1  1  0  0  0
 12 13  1  0  0  0  0
 12 14  1  0  0  0  0
 12 59  1  1  0  0  0
 13 60  1  0  0  0  0
 14 61  1  0  0  0  0
 14 62  1  0  0  0  0
 15 14  1  0  0  0  0
 15 63  1  6  0  0  0
 16 15  1  0  0  0  0
 16 17  1  0  0  0  0
 16 64  1  6  0  0  0
 17 18  1  0  0  0  0
 17 65  1  1  0  0  0
 19 18  1  0  0  0  0
 19 20  1  0  0  0  0
 19 17  1  0  0  0  0
 19 66  1  1  0  0  0
 20 21  1  6  0  0  0
 20 22  1  0  0  0  0
 21 67  1  0  0  0  0
 22 23  1  0  0  0  0
 22 68  1  0  0  0  0
 22 69  1  0  0  0  0
 23 24  1  0  0  0  0
 23 36  1  0  0  0  0
 23 70  1  6  0  0  0
 25 24  1  0  0  0  0
 25 26  1  0  0  0  0
 25 71  1  6  0  0  0
 26 27  1  0  0  0  0
 27 28  1  0  0  0  0
 27 30  1  0  0  0  0
 27 72  1  6  0  0  0
 28 29  1  0  0  0  0
 28 73  1  0  0  0  0
 28 74  1  0  0  0  0
 29 75  1  0  0  0  0
 30 31  1  0  0  0  0
 30 32  1  0  0  0  0
 30 76  1  6  0  0  0
 31 77  1  0  0  0  0
 32 33  1  0  0  0  0
 32 34  1  0  0  0  0
 32 78  1  6  0  0  0
 33 79  1  0  0  0  0
 34 35  1  0  0  0  0
 34 25  1  0  0  0  0
 34 80  1  6  0  0  0
 35 81  1  0  0  0  0
 36 37  1  0  0  0  0
 36 82  1  0  0  0  0
 36 83  1  0  0  0  0
 37 38  1  0  0  0  0
 37 39  1  0  0  0  0
 37 84  1  6  0  0  0
 38 85  1  0  0  0  0
 39 40  1  1  0  0  0
 39 41  1  0  0  0  0
 39 20  1  0  0  0  0
 40 86  1  0  0  0  0
 40 87  1  0  0  0  0
 40 88  1  0  0  0  0
 41 42  1  0  0  0  0
 41 16  1  0  0  0  0
 41 89  1  1  0  0  0
 42 43  1  0  0  0  0
 42 90  1  0  0  0  0
 42 91  1  0  0  0  0
 43 44  1  0  0  0  0
 43 92  1  0  0  0  0
 43 93  1  0  0  0  0
 44 45  1  1  0  0  0
 44 11  1  0  0  0  0
 44 15  1  0  0  0  0
 45 94  1  0  0  0  0
 45 95  1  0  0  0  0
 45 96  1  0  0  0  0
 46  2  1  0  0  0  0
 46 97  1  0  0  0  0
 46 98  1  0  0  0  0
M  END
>  <IDENTIFIER>
CNP0193886.1

>  <Energy>
2944.48

$$$$
