
 OpenBabel09082513362D

 74 81  0  0  0  0  0  0  0  0999 V2000
   -0.7679   -2.6491    0.0000 C   0  0  0  0  0  0  0  0  0  0  0  0
   -1.7321   -1.5000    0.0000 C   0  0  2  0  0  0  0  0  0  0  0  0
   -2.5090   -0.9761   -1.0558 O   0  0  0  0  0  0  0  0  0  0  0  0
   -2.8748    0.3563   -0.6156 C   0  0  2  0  0  0  0  0  0  0  0  0
   -4.1339    0.8539   -1.3425 C   0  0  0  0  0  0  0  0  0  0  0  0
   -3.9308    1.0788   -2.8147 C   0  0  0  0  0  0  0  0  0  0  0  0
   -3.6025    0.1505   -3.5344 O   0  0  0  0  0  0  0  0  0  0  0  0
   -4.1280    2.3004   -3.3552 O   0  0  0  0  0  0  0  0  0  0  0  0
   -1.6743    1.3784   -0.6947 C   0  0  0  0  0  0  0  0  0  0  0  0
   -0.3648    0.8946   -0.0057 C   0  0  1  0  0  0  0  0  0  0  0  0
   -0.3961    0.1864    1.1932 O   0  0  0  0  0  0  0  0  0  0  0  0
   -0.3436   -0.5861    0.0065 C   0  0  2  0  0  0  0  0  0  0  0  0
    1.0580   -0.9755   -0.6770 C   0  0  0  0  0  0  0  0  0  0  0  0
    1.0595   -1.6804   -1.6767 O   0  0  0  0  0  0  0  0  0  0  0  0
    2.3722   -0.4167   -0.2654 C   0  0  0  0  0  0  0  0  0  0  0  0
    3.6213   -1.1701   -0.3018 C   0  0  0  0  0  0  0  0  0  0  0  0
    3.5832   -2.4872   -0.5904 O   0  0  0  0  0  0  0  0  0  0  0  0
    4.8990   -0.5642    0.0125 C   0  0  0  0  0  0  0  0  0  0  0  0
    6.3056   -1.3372   -0.0069 C   0  0  0  0  0  0  0  0  0  0  0  0
    6.4759   -2.5583   -0.7183 C   0  0  0  0  0  0  0  0  0  0  0  0
    7.7036   -3.2808   -0.7852 C   0  0  0  0  0  0  0  0  0  0  0  0
    7.7437   -4.4338   -1.4874 O   0  0  0  0  0  0  0  0  0  0  0  0
    8.8811   -2.8209   -0.1444 C   0  0  0  0  0  0  0  0  0  0  0  0
   10.2230   -3.6197   -0.1789 C   0  0  0  0  0  0  0  0  0  0  0  0
   10.2241   -4.7441   -0.6540 O   0  0  0  0  0  0  0  0  0  0  0  0
   11.5984   -3.0802    0.3333 C   0  0  2  0  0  0  0  0  0  0  0  0
   12.9989   -3.3212   -0.3036 C   0  0  0  0  0  0  0  0  0  0  0  0
   14.1316   -2.3884    0.4135 C   0  0  1  0  0  0  0  0  0  0  0  0
   15.4560   -2.4422   -0.3695 C   0  0  0  0  0  0  0  0  0  0  0  0
   16.1646   -3.7815   -0.4274 C   0  0  0  0  0  0  0  0  0  0  0  0
   17.1693   -3.8707   -1.1137 O   0  0  0  0  0  0  0  0  0  0  0  0
   15.7712   -4.8678    0.2774 O   0  0  0  0  0  0  0  0  0  0  0  0
   13.7821   -0.9826    0.6260 O   0  0  0  0  0  0  0  0  0  0  0  0
   12.5574   -0.7500    0.0000 C   0  0  2  0  0  0  0  0  0  0  0  0
   11.5932    0.3991    0.0000 C   0  0  0  0  0  0  0  0  0  0  0  0
   11.4181   -1.6952    0.7331 C   0  0  2  0  0  0  0  0  0  0  0  0
   11.7856   -2.7030    1.6614 O   0  0  0  0  0  0  0  0  0  0  0  0
   10.0345   -1.2192    1.2730 C   0  0  0  0  0  0  0  0  0  0  0  0
   10.0163   -0.5042    2.2624 O   0  0  0  0  0  0  0  0  0  0  0  0
    8.7743   -1.6177    0.5812 C   0  0  0  0  0  0  0  0  0  0  0  0
    7.5087   -0.8825    0.6619 C   0  0  0  0  0  0  0  0  0  0  0  0
    7.4323    0.2595    1.3758 O   0  0  0  0  0  0  0  0  0  0  0  0
    4.8041    0.8251    0.3302 C   0  0  0  0  0  0  0  0  0  0  0  0
    3.5761    1.5571    0.3478 C   0  0  0  0  0  0  0  0  0  0  0  0
    3.5957    2.8743    0.6438 O   0  0  0  0  0  0  0  0  0  0  0  0
    2.3393    0.9362    0.0567 C   0  0  0  0  0  0  0  0  0  0  0  0
    0.9850    1.6713    0.0112 C   0  0  0  0  0  0  0  0  0  0  0  0
    0.9506    2.8890    0.0927 O   0  0  0  0  0  0  0  0  0  0  0  0
   -1.4792   -3.3893    0.4283 H   0  0  0  0  0  0  0  0  0  0  0  0
   -0.8552   -2.8542   -1.0922 H   0  0  0  0  0  0  0  0  0  0  0  0
   -0.0801   -3.4688    0.0000 H   0  0  0  0  0  0  0  0  0  0  0  0
   -2.2495   -1.4595    0.9927 H   0  0  0  0  0  0  0  0  0  0  0  0
   -3.2154    0.3413    0.4509 H   0  0  0  0  0  0  0  0  0  0  0  0
   -4.4591    1.8065   -0.8679 H   0  0  0  0  0  0  0  0  0  0  0  0
   -4.9509    0.1141   -1.1964 H   0  0  0  0  0  0  0  0  0  0  0  0
   -4.4040    3.0571   -2.8183 H   0  0  0  0  0  0  0  0  0  0  0  0
   -1.4242    1.5440   -1.7635 H   0  0  0  0  0  0  0  0  0  0  0  0
   -1.9820    2.3523   -0.2573 H   0  0  0  0  0  0  0  0  0  0  0  0
    2.7797   -3.0022   -0.7338 H   0  0  0  0  0  0  0  0  0  0  0  0
    5.6625   -2.9856   -1.2718 H   0  0  0  0  0  0  0  0  0  0  0  0
    6.9693   -4.7964   -1.9406 H   0  0  0  0  0  0  0  0  0  0  0  0
   13.2480   -4.3976   -0.2538 H   0  0  0  0  0  0  0  0  0  0  0  0
   12.9252   -3.0780   -1.3850 H   0  0  0  0  0  0  0  0  0  0  0  0
   14.3052   -2.7930    1.4337 H   0  0  0  0  0  0  0  0  0  0  0  0
   16.1718   -1.7249    0.0871 H   0  0  0  0  0  0  0  0  0  0  0  0
   15.2460   -2.0984   -1.4057 H   0  0  0  0  0  0  0  0  0  0  0  0
   15.0500   -4.8666    0.9181 H   0  0  0  0  0  0  0  0  0  0  0  0
   12.7032   -0.9509   -1.0935 H   0  0  0  0  0  0  0  0  0  0  0  0
   12.3267    1.1436   -0.3792 H   0  0  0  0  0  0  0  0  0  0  0  0
   10.9286    0.0893   -0.8510 H   0  0  0  0  0  0  0  0  0  0  0  0
   10.9054    1.2188    0.0000 H   0  0  0  0  0  0  0  0  0  0  0  0
    8.1625    0.7158    1.8047 H   0  0  0  0  0  0  0  0  0  0  0  0
    5.6849    1.3998    0.5452 H   0  0  0  0  0  0  0  0  0  0  0  0
    4.4130    3.3489    0.8497 H   0  0  0  0  0  0  0  0  0  0  0  0
  1 49  1  0  0  0  0
  1 50  1  0  0  0  0
  1 51  1  0  0  0  0
  2  1  1  0  0  0  0
  2  3  1  0  0  0  0
  2 52  1  1  0  0  0
  3  4  1  0  0  0  0
  4  5  1  0  0  0  0
  4  9  1  0  0  0  0
  4 53  1  1  0  0  0
  5  6  1  0  0  0  0
  5 54  1  0  0  0  0
  5 55  1  0  0  0  0
  6  7  2  0  0  0  0
  6  8  1  0  0  0  0
  8 56  1  0  0  0  0
  9 57  1  0  0  0  0
  9 58  1  0  0  0  0
 10  9  1  0  0  0  0
 10 11  1  1  0  0  0
 12 11  1  6  0  0  0
 12 13  1  0  0  0  0
 12  2  1  0  0  0  0
 12 10  1  0  0  0  0
 13 14  2  0  0  0  0
 13 15  1  0  0  0  0
 15 16  2  0  0  0  0
 16 17  1  0  0  0  0
 16 18  1  0  0  0  0
 17 59  1  0  0  0  0
 18 19  1  0  0  0  0
 18 43  2  0  0  0  0
 19 20  2  0  0  0  0
 20 21  1  0  0  0  0
 20 60  1  0  0  0  0
 21 22  1  0  0  0  0
 21 23  2  0  0  0  0
 22 61  1  0  0  0  0
 23 24  1  0  0  0  0
 24 25  2  0  0  0  0
 26 24  1  1  0  0  0
 26 27  1  0  0  0  0
 26 37  1  0  0  0  0
 27 28  1  0  0  0  0
 27 62  1  0  0  0  0
 27 63  1  0  0  0  0
 28 29  1  0  0  0  0
 28 33  1  0  0  0  0
 28 64  1  1  0  0  0
 29 30  1  0  0  0  0
 29 65  1  0  0  0  0
 29 66  1  0  0  0  0
 30 31  2  0  0  0  0
 30 32  1  0  0  0  0
 32 67  1  0  0  0  0
 33 34  1  0  0  0  0
 34 35  1  0  0  0  0
 34 36  1  0  0  0  0
 34 68  1  6  0  0  0
 35 69  1  0  0  0  0
 35 70  1  0  0  0  0
 35 71  1  0  0  0  0
 36 37  1  1  0  0  0
 36 38  1  0  0  0  0
 36 26  1  0  0  0  0
 38 39  2  0  0  0  0
 38 40  1  0  0  0  0
 40 41  2  0  0  0  0
 40 23  1  0  0  0  0
 41 42  1  0  0  0  0
 41 19  1  0  0  0  0
 42 72  1  0  0  0  0
 43 44  1  0  0  0  0
 43 73  1  0  0  0  0
 44 45  1  0  0  0  0
 44 46  2  0  0  0  0
 45 74  1  0  0  0  0
 46 47  1  0  0  0  0
 46 15  1  0  0  0  0
 47 48  2  0  0  0  0
 47 10  1  0  0  0  0
M  END
>  <IDENTIFIER>
CNP0080945.1

>  <Energy>
5193.46

$$$$
