
 OpenBabel09082520353D

113120  0  0  0  0  0  0  0  0999 V2000
   12.2702   -1.6166   -1.6434 C   0  0  0  0  0  0  0  0  0  0  0  0
   10.8592   -1.4428   -1.0778 C   0  0  2  0  0  0  0  0  0  0  0  0
   10.8623   -0.5675    0.1925 C   0  0  0  0  0  0  0  0  0  0  0  0
    9.7062   -0.9466    1.1325 C   0  0  0  0  0  0  0  0  0  0  0  0
    8.4712   -1.4685    0.3553 C   0  0  1  0  0  0  0  0  0  0  0  0
    8.7859   -2.6086   -0.4615 O   0  0  0  0  0  0  0  0  0  0  0  0
   10.1631   -2.7820   -0.7981 C   0  0  0  0  0  0  0  0  0  0  0  0
    7.5162   -1.8872    1.3540 O   0  0  0  0  0  0  0  0  0  0  0  0
    6.3326   -1.2547    0.9653 C   0  0  1  0  0  0  0  0  0  0  0  0
    5.1695   -0.9292    1.9207 C   0  0  0  0  0  0  0  0  0  0  0  0
    4.3991   -0.0279    0.9251 C   0  0  1  0  0  0  0  0  0  0  0  0
    2.9530    0.4808    1.0791 C   0  0  1  0  0  0  0  0  0  0  0  0
    2.4980    1.1545    2.3797 C   0  0  0  0  0  0  0  0  0  0  0  0
    1.0028    1.4155    2.2796 C   0  0  0  0  0  0  0  0  0  0  0  0
    0.3350    1.4913    1.0906 C   0  0  0  0  0  0  0  0  0  0  0  0
   -1.1906    1.4497    1.0961 C   0  0  0  0  0  0  0  0  0  0  0  0
   -1.7757    0.7632   -0.1786 C   0  0  2  0  0  0  0  0  0  0  0  0
   -3.0283    0.1920    0.1523 O   0  0  0  0  0  0  0  0  0  0  0  0
   -4.1337    0.8926   -0.3829 C   0  0  1  0  0  0  0  0  0  0  0  0
   -4.6865    0.0988   -1.4243 O   0  0  0  0  0  0  0  0  0  0  0  0
   -5.8307    0.7170   -1.9953 C   0  0  1  0  0  0  0  0  0  0  0  0
   -6.2502   -0.0978   -3.2276 C   0  0  0  0  0  0  0  0  0  0  0  0
   -7.3306    0.5078   -3.8874 O   0  0  0  0  0  0  0  0  0  0  0  0
   -6.9684    0.8021   -0.9464 C   0  0  1  0  0  0  0  0  0  0  0  0
   -7.2549   -0.5186   -0.4923 O   0  0  0  0  0  0  0  0  0  0  0  0
   -8.6367   -0.7683   -0.2953 C   0  0  2  0  0  0  0  0  0  0  0  0
   -8.9509   -0.5267    1.0680 O   0  0  0  0  0  0  0  0  0  0  0  0
  -10.3373   -0.7032    1.3184 C   0  0  2  0  0  0  0  0  0  0  0  0
  -10.6239   -0.2997    2.7715 C   0  0  0  0  0  0  0  0  0  0  0  0
  -10.2801    1.0440    2.9825 O   0  0  0  0  0  0  0  0  0  0  0  0
  -10.7378   -2.1821    1.0810 C   0  0  1  0  0  0  0  0  0  0  0  0
  -12.1040   -2.3990    1.3339 O   0  0  0  0  0  0  0  0  0  0  0  0
  -10.3805   -2.5841   -0.3617 C   0  0  2  0  0  0  0  0  0  0  0  0
  -10.6529   -3.9432   -0.5964 O   0  0  0  0  0  0  0  0  0  0  0  0
   -8.9009   -2.2529   -0.6313 C   0  0  1  0  0  0  0  0  0  0  0  0
   -8.5534   -2.5490   -1.9605 O   0  0  0  0  0  0  0  0  0  0  0  0
   -6.4575    1.6818    0.2110 C   0  0  1  0  0  0  0  0  0  0  0  0
   -7.4415    1.8509    1.2017 O   0  0  0  0  0  0  0  0  0  0  0  0
   -5.1479    1.0796    0.7628 C   0  0  2  0  0  0  0  0  0  0  0  0
   -4.6130    1.8801    1.7882 O   0  0  0  0  0  0  0  0  0  0  0  0
   -0.8294   -0.3654   -0.5995 C   0  0  0  0  0  0  0  0  0  0  0  0
    0.5496    0.1786   -1.0549 C   0  0  0  0  0  0  0  0  0  0  0  0
    1.0447    1.4478   -0.2738 C   0  0  1  0  0  0  0  0  0  0  0  0
    0.6785    2.7536   -1.0441 C   0  0  0  0  0  0  0  0  0  0  0  0
    2.5956    1.4460   -0.0952 C   0  0  2  0  0  0  0  0  0  0  0  0
    3.4703    1.2058   -1.3721 C   0  0  0  0  0  0  0  0  0  0  0  0
    4.9367    1.4473   -0.9931 C   0  0  0  0  0  0  0  0  0  0  0  0
    5.6184    2.2100   -1.6620 O   0  0  0  0  0  0  0  0  0  0  0  0
    5.4430    0.9695    0.3668 C   0  0  1  0  0  0  0  0  0  0  0  0
    5.6183    2.2263    1.2698 C   0  0  0  0  0  0  0  0  0  0  0  0
    6.7495    0.1029    0.4799 C   0  0  2  0  0  0  0  0  0  0  0  0
    7.8046   -0.3114   -0.5123 C   0  0  2  0  0  0  0  0  0  0  0  0
    7.2294   -0.7990   -1.8689 C   0  0  0  0  0  0  0  0  0  0  0  0
   12.7114   -0.6250   -1.8785 H   0  0  0  0  0  0  0  0  0  0  0  0
   12.2338   -2.2148   -2.5790 H   0  0  0  0  0  0  0  0  0  0  0  0
   12.9206   -2.1404   -0.9108 H   0  0  0  0  0  0  0  0  0  0  0  0
   10.2437   -0.9410   -1.8538 H   0  0  0  0  0  0  0  0  0  0  0  0
   10.8086    0.4934   -0.1355 H   0  0  0  0  0  0  0  0  0  0  0  0
   11.7944   -0.6855    0.7877 H   0  0  0  0  0  0  0  0  0  0  0  0
    9.4903   -0.1173    1.8392 H   0  0  0  0  0  0  0  0  0  0  0  0
   10.0455   -1.8089    1.7501 H   0  0  0  0  0  0  0  0  0  0  0  0
   10.1967   -3.3918   -1.7259 H   0  0  0  0  0  0  0  0  0  0  0  0
   10.6861   -3.3531   -0.0003 H   0  0  0  0  0  0  0  0  0  0  0  0
    5.8897   -1.9153    0.1853 H   0  0  0  0  0  0  0  0  0  0  0  0
    5.4902   -0.3540    2.8166 H   0  0  0  0  0  0  0  0  0  0  0  0
    4.6116   -1.8392    2.2280 H   0  0  0  0  0  0  0  0  0  0  0  0
    4.2051   -0.7326    0.0746 H   0  0  0  0  0  0  0  0  0  0  0  0
    2.3466   -0.4555    1.0150 H   0  0  0  0  0  0  0  0  0  0  0  0
    3.0346    2.0918    2.6270 H   0  0  0  0  0  0  0  0  0  0  0  0
    2.6738    0.4299    3.2036 H   0  0  0  0  0  0  0  0  0  0  0  0
    0.4413    1.4243    3.2098 H   0  0  0  0  0  0  0  0  0  0  0  0
   -1.6645    2.4236    1.3381 H   0  0  0  0  0  0  0  0  0  0  0  0
   -1.4528    0.7571    1.9285 H   0  0  0  0  0  0  0  0  0  0  0  0
   -1.8313    1.4262   -1.0637 H   0  0  0  0  0  0  0  0  0  0  0  0
   -3.8694    1.9057   -0.7762 H   0  0  0  0  0  0  0  0  0  0  0  0
   -5.5714    1.7362   -2.3680 H   0  0  0  0  0  0  0  0  0  0  0  0
   -6.4882   -1.1503   -2.9507 H   0  0  0  0  0  0  0  0  0  0  0  0
   -5.3988   -0.1489   -3.9393 H   0  0  0  0  0  0  0  0  0  0  0  0
   -8.1585    0.0986   -3.5248 H   0  0  0  0  0  0  0  0  0  0  0  0
   -7.8361    1.3144   -1.4198 H   0  0  0  0  0  0  0  0  0  0  0  0
   -9.2781   -0.1497   -0.9685 H   0  0  0  0  0  0  0  0  0  0  0  0
  -10.9342   -0.0267    0.6626 H   0  0  0  0  0  0  0  0  0  0  0  0
  -10.0709   -0.9628    3.4784 H   0  0  0  0  0  0  0  0  0  0  0  0
  -11.7045   -0.4184    2.9972 H   0  0  0  0  0  0  0  0  0  0  0  0
   -9.3448    1.0543    3.3150 H   0  0  0  0  0  0  0  0  0  0  0  0
  -10.1495   -2.8165    1.7814 H   0  0  0  0  0  0  0  0  0  0  0  0
  -12.6184   -1.7976    0.7338 H   0  0  0  0  0  0  0  0  0  0  0  0
  -11.0064   -1.9824   -1.0584 H   0  0  0  0  0  0  0  0  0  0  0  0
  -10.0871   -4.4744    0.0231 H   0  0  0  0  0  0  0  0  0  0  0  0
   -8.2641   -2.8745    0.0370 H   0  0  0  0  0  0  0  0  0  0  0  0
   -9.1214   -1.9897   -2.5519 H   0  0  0  0  0  0  0  0  0  0  0  0
   -6.2241    2.6927   -0.1941 H   0  0  0  0  0  0  0  0  0  0  0  0
   -7.3098    1.1632    1.9040 H   0  0  0  0  0  0  0  0  0  0  0  0
   -5.3689    0.0757    1.1909 H   0  0  0  0  0  0  0  0  0  0  0  0
   -4.3939    2.7652    1.3944 H   0  0  0  0  0  0  0  0  0  0  0  0
   -1.2541   -1.0008   -1.4066 H   0  0  0  0  0  0  0  0  0  0  0  0
   -0.6864   -1.0157    0.2937 H   0  0  0  0  0  0  0  0  0  0  0  0
    0.5398    0.4239   -2.1393 H   0  0  0  0  0  0  0  0  0  0  0  0
    1.2430   -0.6820   -0.9493 H   0  0  0  0  0  0  0  0  0  0  0  0
    1.1397    2.7712   -2.0519 H   0  0  0  0  0  0  0  0  0  0  0  0
    1.0404    3.6444   -0.4860 H   0  0  0  0  0  0  0  0  0  0  0  0
   -0.3992    2.9170   -1.1898 H   0  0  0  0  0  0  0  0  0  0  0  0
    2.8799    2.4688    0.2357 H   0  0  0  0  0  0  0  0  0  0  0  0
    3.1987    1.8919   -2.1999 H   0  0  0  0  0  0  0  0  0  0  0  0
    3.3303    0.1694   -1.7418 H   0  0  0  0  0  0  0  0  0  0  0  0
    6.4498    2.8545    0.8845 H   0  0  0  0  0  0  0  0  0  0  0  0
    5.8529    1.9490    2.3200 H   0  0  0  0  0  0  0  0  0  0  0  0
    4.7206    2.8673    1.2985 H   0  0  0  0  0  0  0  0  0  0  0  0
    7.3134    0.5306    1.3466 H   0  0  0  0  0  0  0  0  0  0  0  0
    8.4935    0.5250   -0.7580 H   0  0  0  0  0  0  0  0  0  0  0  0
    6.5158   -1.6400   -1.7944 H   0  0  0  0  0  0  0  0  0  0  0  0
    8.0531   -1.1367   -2.5280 H   0  0  0  0  0  0  0  0  0  0  0  0
    6.7254    0.0322   -2.3964 H   0  0  0  0  0  0  0  0  0  0  0  0
  1 54  1  0  0  0  0
  1 55  1  0  0  0  0
  1 56  1  0  0  0  0
  2  1  1  0  0  0  0
  2  3  1  0  0  0  0
  2 57  1  6  0  0  0
  3  4  1  0  0  0  0
  3 58  1  0  0  0  0
  3 59  1  0  0  0  0
  4 60  1  0  0  0  0
  4 61  1  0  0  0  0
  5  4  1  0  0  0  0
  5  6  1  6  0  0  0
  5  8  1  0  0  0  0
  6  7  1  0  0  0  0
  7  2  1  0  0  0  0
  7 62  1  0  0  0  0
  7 63  1  0  0  0  0
  8  9  1  0  0  0  0
  9 10  1  0  0  0  0
  9 64  1  6  0  0  0
 10 65  1  0  0  0  0
 10 66  1  0  0  0  0
 11 10  1  0  0  0  0
 11 12  1  0  0  0  0
 11 67  1  6  0  0  0
 12 13  1  0  0  0  0
 12 68  1  6  0  0  0
 13 14  1  0  0  0  0
 13 69  1  0  0  0  0
 13 70  1  0  0  0  0
 14 15  2  0  0  0  0
 14 71  1  0  0  0  0
 15 16  1  0  0  0  0
 16 17  1  0  0  0  0
 16 72  1  0  0  0  0
 16 73  1  0  0  0  0
 17 18  1  0  0  0  0
 17 41  1  0  0  0  0
 17 74  1  6  0  0  0
 19 18  1  0  0  0  0
 19 20  1  0  0  0  0
 19 75  1  6  0  0  0
 20 21  1  0  0  0  0
 21 22  1  0  0  0  0
 21 24  1  0  0  0  0
 21 76  1  6  0  0  0
 22 23  1  0  0  0  0
 22 77  1  0  0  0  0
 22 78  1  0  0  0  0
 23 79  1  0  0  0  0
 24 25  1  0  0  0  0
 24 37  1  0  0  0  0
 24 80  1  6  0  0  0
 26 25  1  0  0  0  0
 26 27  1  0  0  0  0
 26 81  1  6  0  0  0
 27 28  1  0  0  0  0
 28 29  1  0  0  0  0
 28 31  1  0  0  0  0
 28 82  1  6  0  0  0
 29 30  1  0  0  0  0
 29 83  1  0  0  0  0
 29 84  1  0  0  0  0
 30 85  1  0  0  0  0
 31 32  1  0  0  0  0
 31 33  1  0  0  0  0
 31 86  1  1  0  0  0
 32 87  1  0  0  0  0
 33 34  1  0  0  0  0
 33 35  1  0  0  0  0
 33 88  1  6  0  0  0
 34 89  1  0  0  0  0
 35 36  1  0  0  0  0
 35 26  1  0  0  0  0
 35 90  1  1  0  0  0
 36 91  1  0  0  0  0
 37 38  1  0  0  0  0
 37 39  1  0  0  0  0
 37 92  1  6  0  0  0
 38 93  1  0  0  0  0
 39 40  1  0  0  0  0
 39 19  1  0  0  0  0
 39 94  1  1  0  0  0
 40 95  1  0  0  0  0
 41 42  1  0  0  0  0
 41 96  1  0  0  0  0
 41 97  1  0  0  0  0
 42 43  1  0  0  0  0
 42 98  1  0  0  0  0
 42 99  1  0  0  0  0
 43 44  1  6  0  0  0
 43 45  1  0  0  0  0
 43 15  1  0  0  0  0
 44100  1  0  0  0  0
 44101  1  0  0  0  0
 44102  1  0  0  0  0
 45 46  1  0  0  0  0
 45 12  1  0  0  0  0
 45103  1  1  0  0  0
 46 47  1  0  0  0  0
 46104  1  0  0  0  0
 46105  1  0  0  0  0
 47 48  2  0  0  0  0
 47 49  1  0  0  0  0
 49 50  1  1  0  0  0
 49 51  1  0  0  0  0
 49 11  1  0  0  0  0
 50106  1  0  0  0  0
 50107  1  0  0  0  0
 50108  1  0  0  0  0
 51 52  1  0  0  0  0
 51  9  1  0  0  0  0
 51109  1  1  0  0  0
 52 53  1  0  0  0  0
 52  5  1  0  0  0  0
 52110  1  6  0  0  0
 53111  1  0  0  0  0
 53112  1  0  0  0  0
 53113  1  0  0  0  0
M  END
>  <IDENTIFIER>
CNP0210563.4

>  <Energy>
1701.89

$$$$
