
 OpenBabel09102521193D

140147  0  0  0  0  0  0  0  0999 V2000
   -9.9009   -1.8003    3.8281 C   0  0  0  0  0  0  0  0  0  0  0  0
   -9.5682   -2.3373    2.4227 C   0  0  2  0  0  0  0  0  0  0  0  0
   -8.3940   -1.7248    1.9148 O   0  0  0  0  0  0  0  0  0  0  0  0
   -8.5521   -0.3734    1.4654 C   0  0  1  0  0  0  0  0  0  0  0  0
   -7.6665   -0.1972    0.4107 O   0  0  0  0  0  0  0  0  0  0  0  0
   -6.7752    0.8279    0.2900 C   0  0  0  0  0  0  0  0  0  0  0  0
   -6.6314    1.6128    1.2176 O   0  0  0  0  0  0  0  0  0  0  0  0
   -6.1390    1.0944   -1.0899 C   0  0  2  0  0  0  0  0  0  0  0  0
   -7.3708    1.2479   -2.0487 C   0  0  0  0  0  0  0  0  0  0  0  0
   -7.0266    1.1956   -3.5434 C   0  0  0  0  0  0  0  0  0  0  0  0
   -6.3097   -0.1272   -3.9148 C   0  0  0  0  0  0  0  0  0  0  0  0
   -5.9433   -0.0964   -5.4151 C   0  0  0  0  0  0  0  0  0  0  0  0
   -7.2011   -1.3735   -3.6786 C   0  0  0  0  0  0  0  0  0  0  0  0
   -5.0133   -0.2021   -3.0872 C   0  0  0  0  0  0  0  0  0  0  0  0
   -5.2210   -0.1109   -1.5459 C   0  0  1  0  0  0  0  0  0  0  0  0
   -3.8140   -0.1104   -0.9092 C   0  0  0  0  0  0  0  0  0  0  0  0
   -3.1586   -1.2990   -0.8361 C   0  0  0  0  0  0  0  0  0  0  0  0
   -1.7380   -1.4935   -0.3309 C   0  0  0  0  0  0  0  0  0  0  0  0
   -0.9553   -0.1758   -0.0358 C   0  0  2  0  0  0  0  0  0  0  0  0
    0.4852   -0.3654    0.6363 C   0  0  1  0  0  0  0  0  0  0  0  0
    0.4330   -1.2263    1.9322 C   0  0  0  0  0  0  0  0  0  0  0  0
    1.4437   -1.1340   -0.3701 C   0  0  0  0  0  0  0  0  0  0  0  0
    2.5983   -0.2833   -0.9261 C   0  0  0  0  0  0  0  0  0  0  0  0
    3.4435    0.2928    0.2290 C   0  0  2  0  0  0  0  0  0  0  0  0
    4.0403   -0.7922    0.9400 O   0  0  0  0  0  0  0  0  0  0  0  0
    5.4516   -0.7883    0.7919 C   0  0  2  0  0  0  0  0  0  0  0  0
    5.8105   -1.2543   -0.4971 O   0  0  0  0  0  0  0  0  0  0  0  0
    7.2125   -1.1152   -0.7600 C   0  0  0  0  0  0  0  0  0  0  0  0
    8.1137   -1.0036    0.5040 C   0  0  2  0  0  0  0  0  0  0  0  0
    9.4717   -1.2673    0.1647 O   0  0  0  0  0  0  0  0  0  0  0  0
   10.3193   -0.1270    0.2767 C   0  0  2  0  0  0  0  0  0  0  0  0
   10.7543    0.2201   -1.0458 O   0  0  0  0  0  0  0  0  0  0  0  0
   12.0085    0.8708   -1.0286 C   0  0  2  0  0  0  0  0  0  0  0  0
   12.2792    1.5245   -2.3895 C   0  0  0  0  0  0  0  0  0  0  0  0
   13.4828    2.2436   -2.3734 O   0  0  0  0  0  0  0  0  0  0  0  0
   13.1286   -0.1406   -0.6323 C   0  0  1  0  0  0  0  0  0  0  0  0
   14.2764    0.5539   -0.2060 O   0  0  0  0  0  0  0  0  0  0  0  0
   12.6193   -1.1438    0.4557 C   0  0  2  0  0  0  0  0  0  0  0  0
   12.1603   -2.3497   -0.1183 O   0  0  0  0  0  0  0  0  0  0  0  0
   11.4812   -0.4975    1.2630 C   0  0  1  0  0  0  0  0  0  0  0  0
   11.9756    0.6508    1.9112 O   0  0  0  0  0  0  0  0  0  0  0  0
    7.5953   -2.0130    1.5414 C   0  0  2  0  0  0  0  0  0  0  0  0
    7.7295   -3.3280    1.0472 O   0  0  0  0  0  0  0  0  0  0  0  0
    6.1050   -1.6694    1.8936 C   0  0  1  0  0  0  0  0  0  0  0  0
    6.0108   -1.0097    3.1322 O   0  0  0  0  0  0  0  0  0  0  0  0
    2.6071    1.2315    1.2010 C   0  0  1  0  0  0  0  0  0  0  0  0
    2.9525    0.9643    2.6927 C   0  0  0  0  0  0  0  0  0  0  0  0
    3.0633    2.7133    0.9488 C   0  0  0  0  0  0  0  0  0  0  0  0
    2.7857    3.1346   -0.3642 O   0  0  0  0  0  0  0  0  0  0  0  0
    1.0575    1.0952    0.8797 C   0  0  2  0  0  0  0  0  0  0  0  0
    0.1045    1.9380    1.7654 C   0  0  0  0  0  0  0  0  0  0  0  0
   -1.1950    2.1897    0.9842 C   0  0  0  0  0  0  0  0  0  0  0  0
   -1.9546    0.8901    0.5782 C   0  0  2  0  0  0  0  0  0  0  0  0
   -2.6397    0.3488    1.8821 C   0  0  0  0  0  0  0  0  0  0  0  0
   -3.0655    1.1979   -0.5716 C   0  0  1  0  0  0  0  0  0  0  0  0
   -2.4159    1.7325   -1.9090 C   0  0  0  0  0  0  0  0  0  0  0  0
   -4.0745    2.2996   -0.1317 C   0  0  0  0  0  0  0  0  0  0  0  0
   -5.3133    2.4149   -1.0618 C   0  0  0  0  0  0  0  0  0  0  0  0
   -9.9727    0.0053    0.9324 C   0  0  2  0  0  0  0  0  0  0  0  0
  -10.7939    0.4817    1.9684 O   0  0  0  0  0  0  0  0  0  0  0  0
  -10.5780   -1.2444    0.3070 C   0  0  2  0  0  0  0  0  0  0  0  0
  -11.7829   -0.9834   -0.3679 O   0  0  0  0  0  0  0  0  0  0  0  0
  -10.7593   -2.3172    1.4058 C   0  0  1  0  0  0  0  0  0  0  0  0
  -10.9560   -3.5744    0.8079 O   0  0  0  0  0  0  0  0  0  0  0  0
   -9.0287   -1.9586    4.4972 H   0  0  0  0  0  0  0  0  0  0  0  0
  -10.7668   -2.3521    4.2516 H   0  0  0  0  0  0  0  0  0  0  0  0
  -10.1331   -0.7228    3.8453 H   0  0  0  0  0  0  0  0  0  0  0  0
   -9.3326   -3.4073    2.6129 H   0  0  0  0  0  0  0  0  0  0  0  0
   -8.3019    0.3283    2.2911 H   0  0  0  0  0  0  0  0  0  0  0  0
   -7.9148    2.1904   -1.8181 H   0  0  0  0  0  0  0  0  0  0  0  0
   -8.1033    0.4340   -1.8805 H   0  0  0  0  0  0  0  0  0  0  0  0
   -6.3791    2.0618   -3.7997 H   0  0  0  0  0  0  0  0  0  0  0  0
   -7.9624    1.2970   -4.1356 H   0  0  0  0  0  0  0  0  0  0  0  0
   -6.8574   -0.0229   -6.0421 H   0  0  0  0  0  0  0  0  0  0  0  0
   -5.3955   -1.0207   -5.7036 H   0  0  0  0  0  0  0  0  0  0  0  0
   -5.2924    0.7738   -5.6487 H   0  0  0  0  0  0  0  0  0  0  0  0
   -8.1313   -1.3014   -4.2817 H   0  0  0  0  0  0  0  0  0  0  0  0
   -7.4933   -1.5120   -2.6206 H   0  0  0  0  0  0  0  0  0  0  0  0
   -6.6602   -2.2955   -3.9831 H   0  0  0  0  0  0  0  0  0  0  0  0
   -4.3887    0.6345   -3.4256 H   0  0  0  0  0  0  0  0  0  0  0  0
   -4.4609   -1.1356   -3.3378 H   0  0  0  0  0  0  0  0  0  0  0  0
   -5.7569   -1.0412   -1.2572 H   0  0  0  0  0  0  0  0  0  0  0  0
   -3.6845   -2.2052   -1.1248 H   0  0  0  0  0  0  0  0  0  0  0  0
   -1.1851   -2.1056   -1.0688 H   0  0  0  0  0  0  0  0  0  0  0  0
   -1.8511   -2.0984    0.5885 H   0  0  0  0  0  0  0  0  0  0  0  0
   -0.6515    0.2389   -1.0028 H   0  0  0  0  0  0  0  0  0  0  0  0
   -0.0198   -2.2173    1.7375 H   0  0  0  0  0  0  0  0  0  0  0  0
   -0.0815   -0.7619    2.7800 H   0  0  0  0  0  0  0  0  0  0  0  0
    1.4449   -1.4738    2.2871 H   0  0  0  0  0  0  0  0  0  0  0  0
    0.8980   -1.5663   -1.2297 H   0  0  0  0  0  0  0  0  0  0  0  0
    1.9229   -2.0073    0.1251 H   0  0  0  0  0  0  0  0  0  0  0  0
    2.2040    0.5326   -1.5685 H   0  0  0  0  0  0  0  0  0  0  0  0
    3.2405   -0.9145   -1.5782 H   0  0  0  0  0  0  0  0  0  0  0  0
    4.2101    0.9136   -0.2963 H   0  0  0  0  0  0  0  0  0  0  0  0
    5.8315    0.2541    0.9279 H   0  0  0  0  0  0  0  0  0  0  0  0
    7.3983   -0.2568   -1.4394 H   0  0  0  0  0  0  0  0  0  0  0  0
    7.5141   -2.0358   -1.3044 H   0  0  0  0  0  0  0  0  0  0  0  0
    7.9603   -0.0073    0.9694 H   0  0  0  0  0  0  0  0  0  0  0  0
    9.8076    0.7590    0.7124 H   0  0  0  0  0  0  0  0  0  0  0  0
   11.9513    1.7066   -0.2931 H   0  0  0  0  0  0  0  0  0  0  0  0
   11.4374    2.2014   -2.6642 H   0  0  0  0  0  0  0  0  0  0  0  0
   12.3372    0.7461   -3.1794 H   0  0  0  0  0  0  0  0  0  0  0  0
   13.2978    3.0958   -1.8980 H   0  0  0  0  0  0  0  0  0  0  0  0
   13.4405   -0.7549   -1.5055 H   0  0  0  0  0  0  0  0  0  0  0  0
   14.0466    1.0548    0.6182 H   0  0  0  0  0  0  0  0  0  0  0  0
   13.4734   -1.4255    1.1088 H   0  0  0  0  0  0  0  0  0  0  0  0
   11.6993   -2.1545   -0.9748 H   0  0  0  0  0  0  0  0  0  0  0  0
   11.1152   -1.1986    2.0502 H   0  0  0  0  0  0  0  0  0  0  0  0
   11.2789    0.9329    2.5601 H   0  0  0  0  0  0  0  0  0  0  0  0
    8.2025   -1.9698    2.4721 H   0  0  0  0  0  0  0  0  0  0  0  0
    6.9687   -3.5274    0.4425 H   0  0  0  0  0  0  0  0  0  0  0  0
    5.5561   -2.6305    1.9999 H   0  0  0  0  0  0  0  0  0  0  0  0
    6.5870   -0.2012    3.0891 H   0  0  0  0  0  0  0  0  0  0  0  0
    4.0359    1.1353    2.8734 H   0  0  0  0  0  0  0  0  0  0  0  0
    2.7491   -0.0607    3.0266 H   0  0  0  0  0  0  0  0  0  0  0  0
    2.3891    1.6514    3.3588 H   0  0  0  0  0  0  0  0  0  0  0  0
    4.1549    2.8138    1.1656 H   0  0  0  0  0  0  0  0  0  0  0  0
    2.5833    3.4273    1.6467 H   0  0  0  0  0  0  0  0  0  0  0  0
    3.6481    3.1876   -0.8522 H   0  0  0  0  0  0  0  0  0  0  0  0
    0.9921    1.5783   -0.1169 H   0  0  0  0  0  0  0  0  0  0  0  0
    0.5223    2.9430    1.9584 H   0  0  0  0  0  0  0  0  0  0  0  0
   -0.0629    1.4726    2.7558 H   0  0  0  0  0  0  0  0  0  0  0  0
   -0.8811    2.7619    0.0963 H   0  0  0  0  0  0  0  0  0  0  0  0
   -1.8606    2.8655    1.5641 H   0  0  0  0  0  0  0  0  0  0  0  0
   -3.3125    1.0942    2.3431 H   0  0  0  0  0  0  0  0  0  0  0  0
   -1.9298    0.1223    2.6828 H   0  0  0  0  0  0  0  0  0  0  0  0
   -3.2428   -0.5633    1.7103 H   0  0  0  0  0  0  0  0  0  0  0  0
   -1.7881    2.6266   -1.7596 H   0  0  0  0  0  0  0  0  0  0  0  0
   -3.1337    2.0798   -2.6569 H   0  0  0  0  0  0  0  0  0  0  0  0
   -1.8395    0.9709   -2.4662 H   0  0  0  0  0  0  0  0  0  0  0  0
   -3.5625    3.2845   -0.0796 H   0  0  0  0  0  0  0  0  0  0  0  0
   -4.4299    2.0998    0.8825 H   0  0  0  0  0  0  0  0  0  0  0  0
   -5.0194    2.7116   -2.0811 H   0  0  0  0  0  0  0  0  0  0  0  0
   -5.9565    3.2439   -0.6924 H   0  0  0  0  0  0  0  0  0  0  0  0
   -9.8476    0.8245    0.1826 H   0  0  0  0  0  0  0  0  0  0  0  0
  -11.4599    1.0955    1.5606 H   0  0  0  0  0  0  0  0  0  0  0  0
   -9.8436   -1.6061   -0.4476 H   0  0  0  0  0  0  0  0  0  0  0  0
  -12.4502   -0.6845    0.3021 H   0  0  0  0  0  0  0  0  0  0  0  0
  -11.6767   -2.0989    1.9964 H   0  0  0  0  0  0  0  0  0  0  0  0
  -10.1095   -3.8228    0.3526 H   0  0  0  0  0  0  0  0  0  0  0  0
  1 65  1  0  0  0  0
  1 66  1  0  0  0  0
  1 67  1  0  0  0  0
  2  1  1  0  0  0  0
  2  3  1  0  0  0  0
  2 68  1  1  0  0  0
  3  4  1  0  0  0  0
  4  5  1  0  0  0  0
  4 59  1  0  0  0  0
  4 69  1  1  0  0  0
  5  6  1  0  0  0  0
  6  7  2  0  0  0  0
  8  6  1  1  0  0  0
  8  9  1  0  0  0  0
  9 10  1  0  0  0  0
  9 70  1  0  0  0  0
  9 71  1  0  0  0  0
 10 11  1  0  0  0  0
 10 72  1  0  0  0  0
 10 73  1  0  0  0  0
 11 12  1  0  0  0  0
 11 13  1  0  0  0  0
 11 14  1  0  0  0  0
 12 74  1  0  0  0  0
 12 75  1  0  0  0  0
 12 76  1  0  0  0  0
 13 77  1  0  0  0  0
 13 78  1  0  0  0  0
 13 79  1  0  0  0  0
 14 80  1  0  0  0  0
 14 81  1  0  0  0  0
 15 14  1  0  0  0  0
 15 16  1  0  0  0  0
 15  8  1  0  0  0  0
 15 82  1  1  0  0  0
 16 17  2  0  0  0  0
 17 18  1  0  0  0  0
 17 83  1  0  0  0  0
 18 84  1  0  0  0  0
 18 85  1  0  0  0  0
 19 18  1  0  0  0  0
 19 20  1  0  0  0  0
 19 86  1  6  0  0  0
 20 21  1  1  0  0  0
 20 22  1  0  0  0  0
 21 87  1  0  0  0  0
 21 88  1  0  0  0  0
 21 89  1  0  0  0  0
 22 23  1  0  0  0  0
 22 90  1  0  0  0  0
 22 91  1  0  0  0  0
 23 24  1  0  0  0  0
 23 92  1  0  0  0  0
 23 93  1  0  0  0  0
 24 25  1  0  0  0  0
 24 46  1  0  0  0  0
 24 94  1  6  0  0  0
 26 25  1  0  0  0  0
 26 27  1  0  0  0  0
 26 95  1  1  0  0  0
 27 28  1  0  0  0  0
 28 29  1  0  0  0  0
 28 96  1  0  0  0  0
 28 97  1  0  0  0  0
 29 30  1  0  0  0  0
 29 42  1  0  0  0  0
 29 98  1  1  0  0  0
 31 30  1  0  0  0  0
 31 32  1  0  0  0  0
 31 99  1  1  0  0  0
 32 33  1  0  0  0  0
 33 34  1  0  0  0  0
 33 36  1  0  0  0  0
 33100  1  1  0  0  0
 34 35  1  0  0  0  0
 34101  1  0  0  0  0
 34102  1  0  0  0  0
 35103  1  0  0  0  0
 36 37  1  0  0  0  0
 36 38  1  0  0  0  0
 36104  1  6  0  0  0
 37105  1  0  0  0  0
 38 39  1  0  0  0  0
 38 40  1  0  0  0  0
 38106  1  1  0  0  0
 39107  1  0  0  0  0
 40 41  1  0  0  0  0
 40 31  1  0  0  0  0
 40108  1  1  0  0  0
 41109  1  0  0  0  0
 42 43  1  0  0  0  0
 42 44  1  0  0  0  0
 42110  1  1  0  0  0
 43111  1  0  0  0  0
 44 45  1  0  0  0  0
 44 26  1  0  0  0  0
 44112  1  1  0  0  0
 45113  1  0  0  0  0
 46 47  1  1  0  0  0
 46 48  1  0  0  0  0
 46 50  1  0  0  0  0
 47114  1  0  0  0  0
 47115  1  0  0  0  0
 47116  1  0  0  0  0
 48 49  1  0  0  0  0
 48117  1  0  0  0  0
 48118  1  0  0  0  0
 49119  1  0  0  0  0
 50 51  1  0  0  0  0
 50 20  1  0  0  0  0
 50120  1  6  0  0  0
 51 52  1  0  0  0  0
 51121  1  0  0  0  0
 51122  1  0  0  0  0
 52 53  1  0  0  0  0
 52123  1  0  0  0  0
 52124  1  0  0  0  0
 53 54  1  1  0  0  0
 53 55  1  0  0  0  0
 53 19  1  0  0  0  0
 54125  1  0  0  0  0
 54126  1  0  0  0  0
 54127  1  0  0  0  0
 55 56  1  6  0  0  0
 55 57  1  0  0  0  0
 55 16  1  0  0  0  0
 56128  1  0  0  0  0
 56129  1  0  0  0  0
 56130  1  0  0  0  0
 57 58  1  0  0  0  0
 57131  1  0  0  0  0
 57132  1  0  0  0  0
 58  8  1  0  0  0  0
 58133  1  0  0  0  0
 58134  1  0  0  0  0
 59 60  1  0  0  0  0
 59 61  1  0  0  0  0
 59135  1  6  0  0  0
 60136  1  0  0  0  0
 61 62  1  0  0  0  0
 61 63  1  0  0  0  0
 61137  1  6  0  0  0
 62138  1  0  0  0  0
 63 64  1  0  0  0  0
 63  2  1  0  0  0  0
 63139  1  1  0  0  0
 64140  1  0  0  0  0
M  END
>  <IDENTIFIER>
CNP0145485.1

>  <Energy>
1955.88

$$$$
