
 OpenBabel09092515283D

117124  0  0  0  0  0  0  0  0999 V2000
  -12.9902    0.0628    0.9620 C   0  0  0  0  0  0  0  0  0  0  0  0
  -11.6090   -0.2341    0.3805 C   0  0  2  0  0  0  0  0  0  0  0  0
  -11.0445   -1.5578    0.8998 C   0  0  0  0  0  0  0  0  0  0  0  0
   -9.7512   -1.8095    0.1446 C   0  0  0  0  0  0  0  0  0  0  0  0
   -8.7581   -0.6116    0.2647 C   0  0  1  0  0  0  0  0  0  0  0  0
   -9.3690    0.6642    0.0416 O   0  0  0  0  0  0  0  0  0  0  0  0
  -10.5916    0.8570    0.7254 C   0  0  0  0  0  0  0  0  0  0  0  0
   -8.0635   -0.6327    1.5125 O   0  0  0  0  0  0  0  0  0  0  0  0
   -6.7725   -0.0827    1.2532 C   0  0  1  0  0  0  0  0  0  0  0  0
   -5.5382   -0.9195    1.6685 C   0  0  0  0  0  0  0  0  0  0  0  0
   -4.4625   -0.1990    0.8206 C   0  0  1  0  0  0  0  0  0  0  0  0
   -2.9916   -0.6750    0.7367 C   0  0  2  0  0  0  0  0  0  0  0  0
   -2.3008   -0.7598    2.1132 C   0  0  0  0  0  0  0  0  0  0  0  0
   -0.8192   -1.1859    1.9723 C   0  0  0  0  0  0  0  0  0  0  0  0
   -0.1084   -0.1783    1.0513 C   0  0  1  0  0  0  0  0  0  0  0  0
    1.4089   -0.2574    0.9914 C   0  0  0  0  0  0  0  0  0  0  0  0
    1.9696    1.0655    0.3767 C   0  0  1  0  0  0  0  0  0  0  0  0
    3.2269    0.7459   -0.2081 O   0  0  0  0  0  0  0  0  0  0  0  0
    4.3268    1.2461    0.5241 C   0  0  2  0  0  0  0  0  0  0  0  0
    4.9588    2.2514   -0.2424 O   0  0  0  0  0  0  0  0  0  0  0  0
    6.0090    2.9225    0.4601 C   0  0  2  0  0  0  0  0  0  0  0  0
    7.0895    3.3081   -0.5648 C   0  0  0  0  0  0  0  0  0  0  0  0
    6.5447    4.1392   -1.5559 O   0  0  0  0  0  0  0  0  0  0  0  0
    6.6052    2.1252    1.6781 C   0  0  1  0  0  0  0  0  0  0  0  0
    5.7691    2.3446    2.7994 O   0  0  0  0  0  0  0  0  0  0  0  0
    6.6896    0.6118    1.3315 C   0  0  2  0  0  0  0  0  0  0  0  0
    7.6773    0.4182    0.3206 O   0  0  0  0  0  0  0  0  0  0  0  0
    8.7588   -0.4126    0.7172 C   0  0  2  0  0  0  0  0  0  0  0  0
    9.9816    0.3317    0.6796 O   0  0  0  0  0  0  0  0  0  0  0  0
   10.7994    0.0810   -0.4496 C   0  0  2  0  0  0  0  0  0  0  0  0
   10.1934    0.7417   -1.7118 C   0  0  0  0  0  0  0  0  0  0  0  0
   11.0603    0.6168   -2.8075 O   0  0  0  0  0  0  0  0  0  0  0  0
   11.1720   -1.4357   -0.5982 C   0  0  1  0  0  0  0  0  0  0  0  0
   12.4334   -1.7183   -0.0456 O   0  0  0  0  0  0  0  0  0  0  0  0
   10.1168   -2.3784    0.0275 C   0  0  2  0  0  0  0  0  0  0  0  0
   10.1849   -3.6641   -0.5354 O   0  0  0  0  0  0  0  0  0  0  0  0
    8.7378   -1.7374   -0.1077 C   0  0  1  0  0  0  0  0  0  0  0  0
    7.7051   -2.5847    0.3348 O   0  0  0  0  0  0  0  0  0  0  0  0
    5.3145    0.0867    0.8108 C   0  0  1  0  0  0  0  0  0  0  0  0
    4.7465   -0.8331    1.7038 O   0  0  0  0  0  0  0  0  0  0  0  0
    1.0540    1.7384   -0.7060 C   0  0  2  0  0  0  0  0  0  0  0  0
    0.2841    2.8197   -0.2295 O   0  0  0  0  0  0  0  0  0  0  0  0
    0.1853    0.6914   -1.3901 C   0  0  0  0  0  0  0  0  0  0  0  0
   -0.7140   -0.1788   -0.4128 C   0  0  1  0  0  0  0  0  0  0  0  0
   -0.6962   -1.6054   -1.0743 C   0  0  0  0  0  0  0  0  0  0  0  0
   -2.1993    0.3199   -0.2277 C   0  0  1  0  0  0  0  0  0  0  0  0
   -2.9269    0.5873   -1.5871 C   0  0  0  0  0  0  0  0  0  0  0  0
   -4.4220    0.9030   -1.4086 C   0  0  0  0  0  0  0  0  0  0  0  0
   -5.1086   -0.2007   -0.5818 C   0  0  1  0  0  0  0  0  0  0  0  0
   -4.9577   -1.5962   -1.3132 C   0  0  0  0  0  0  0  0  0  0  0  0
   -6.5994    0.1340   -0.2488 C   0  0  1  0  0  0  0  0  0  0  0  0
   -7.6748   -0.7804   -0.7953 C   0  0  2  0  0  0  0  0  0  0  0  0
   -8.0899   -0.4202   -2.2369 C   0  0  0  0  0  0  0  0  0  0  0  0
  -13.6978   -0.7437    0.6764 H   0  0  0  0  0  0  0  0  0  0  0  0
  -13.3735    1.0179    0.5388 H   0  0  0  0  0  0  0  0  0  0  0  0
  -12.9501    0.1433    2.0697 H   0  0  0  0  0  0  0  0  0  0  0  0
  -11.7339   -0.2869   -0.7267 H   0  0  0  0  0  0  0  0  0  0  0  0
  -11.7483   -2.3958    0.7007 H   0  0  0  0  0  0  0  0  0  0  0  0
  -10.8610   -1.5018    1.9962 H   0  0  0  0  0  0  0  0  0  0  0  0
  -10.0441   -1.9489   -0.9160 H   0  0  0  0  0  0  0  0  0  0  0  0
   -9.2697   -2.7531    0.4816 H   0  0  0  0  0  0  0  0  0  0  0  0
  -11.0014    1.8323    0.3857 H   0  0  0  0  0  0  0  0  0  0  0  0
  -10.4201    0.9366    1.8221 H   0  0  0  0  0  0  0  0  0  0  0  0
   -6.6773    0.9048    1.7648 H   0  0  0  0  0  0  0  0  0  0  0  0
   -5.6499   -1.9784    1.3593 H   0  0  0  0  0  0  0  0  0  0  0  0
   -5.3499   -0.8938    2.7629 H   0  0  0  0  0  0  0  0  0  0  0  0
   -4.4227    0.8419    1.2257 H   0  0  0  0  0  0  0  0  0  0  0  0
   -3.0047   -1.7058    0.3578 H   0  0  0  0  0  0  0  0  0  0  0  0
   -2.8309   -1.4821    2.7703 H   0  0  0  0  0  0  0  0  0  0  0  0
   -2.3425    0.2393    2.6023 H   0  0  0  0  0  0  0  0  0  0  0  0
   -0.7262   -2.2227    1.5920 H   0  0  0  0  0  0  0  0  0  0  0  0
   -0.3542   -1.1649    2.9821 H   0  0  0  0  0  0  0  0  0  0  0  0
   -0.2887    0.7796    1.5726 H   0  0  0  0  0  0  0  0  0  0  0  0
    1.6841   -1.1368    0.3731 H   0  0  0  0  0  0  0  0  0  0  0  0
    1.8741   -0.4035    1.9896 H   0  0  0  0  0  0  0  0  0  0  0  0
    2.0183    1.8440    1.1729 H   0  0  0  0  0  0  0  0  0  0  0  0
    4.0176    1.6795    1.4972 H   0  0  0  0  0  0  0  0  0  0  0  0
    5.6233    3.8925    0.8506 H   0  0  0  0  0  0  0  0  0  0  0  0
    7.5624    2.4224   -1.0375 H   0  0  0  0  0  0  0  0  0  0  0  0
    7.8944    3.8773   -0.0542 H   0  0  0  0  0  0  0  0  0  0  0  0
    6.0757    3.5493   -2.2032 H   0  0  0  0  0  0  0  0  0  0  0  0
    7.5988    2.5305    1.9613 H   0  0  0  0  0  0  0  0  0  0  0  0
    5.9105    1.6264    3.4590 H   0  0  0  0  0  0  0  0  0  0  0  0
    6.9320    0.0719    2.2697 H   0  0  0  0  0  0  0  0  0  0  0  0
    8.7199   -0.7526    1.7789 H   0  0  0  0  0  0  0  0  0  0  0  0
   11.7538    0.6331   -0.3040 H   0  0  0  0  0  0  0  0  0  0  0  0
   10.0010    1.8206   -1.5104 H   0  0  0  0  0  0  0  0  0  0  0  0
    9.2156    0.3146   -1.9954 H   0  0  0  0  0  0  0  0  0  0  0  0
   11.7930    1.2719   -2.6669 H   0  0  0  0  0  0  0  0  0  0  0  0
   11.2524   -1.6313   -1.6889 H   0  0  0  0  0  0  0  0  0  0  0  0
   12.4192   -1.4132    0.8998 H   0  0  0  0  0  0  0  0  0  0  0  0
   10.3083   -2.4758    1.1215 H   0  0  0  0  0  0  0  0  0  0  0  0
    9.9086   -3.5899   -1.4854 H   0  0  0  0  0  0  0  0  0  0  0  0
    8.5646   -1.5513   -1.1850 H   0  0  0  0  0  0  0  0  0  0  0  0
    7.9322   -2.8929    1.2510 H   0  0  0  0  0  0  0  0  0  0  0  0
    5.5040   -0.4548   -0.1426 H   0  0  0  0  0  0  0  0  0  0  0  0
    4.5595   -0.3522    2.5516 H   0  0  0  0  0  0  0  0  0  0  0  0
    1.7278    2.2033   -1.4604 H   0  0  0  0  0  0  0  0  0  0  0  0
   -0.2284    2.5569    0.5666 H   0  0  0  0  0  0  0  0  0  0  0  0
    0.9623    0.0365   -1.8466 H   0  0  0  0  0  0  0  0  0  0  0  0
   -0.3624    1.0930   -2.2620 H   0  0  0  0  0  0  0  0  0  0  0  0
   -1.1026   -1.5739   -2.1052 H   0  0  0  0  0  0  0  0  0  0  0  0
   -1.2498   -2.3872   -0.5333 H   0  0  0  0  0  0  0  0  0  0  0  0
    0.3354   -1.9997   -1.1674 H   0  0  0  0  0  0  0  0  0  0  0  0
   -2.1923    1.3107    0.2800 H   0  0  0  0  0  0  0  0  0  0  0  0
   -2.8315   -0.2689   -2.2710 H   0  0  0  0  0  0  0  0  0  0  0  0
   -2.4714    1.4509   -2.1119 H   0  0  0  0  0  0  0  0  0  0  0  0
   -4.9078    1.0112   -2.4020 H   0  0  0  0  0  0  0  0  0  0  0  0
   -4.5210    1.8770   -0.8772 H   0  0  0  0  0  0  0  0  0  0  0  0
   -5.4552   -1.5831   -2.2985 H   0  0  0  0  0  0  0  0  0  0  0  0
   -5.3477   -2.4478   -0.7273 H   0  0  0  0  0  0  0  0  0  0  0  0
   -3.9216   -1.8973   -1.5359 H   0  0  0  0  0  0  0  0  0  0  0  0
   -6.8673    1.2016   -0.4325 H   0  0  0  0  0  0  0  0  0  0  0  0
   -7.3694   -1.8420   -0.7324 H   0  0  0  0  0  0  0  0  0  0  0  0
   -8.4424    0.6311   -2.2915 H   0  0  0  0  0  0  0  0  0  0  0  0
   -8.8974   -1.0844   -2.5989 H   0  0  0  0  0  0  0  0  0  0  0  0
   -7.2384   -0.5157   -2.9350 H   0  0  0  0  0  0  0  0  0  0  0  0
  1 54  1  0  0  0  0
  1 55  1  0  0  0  0
  1 56  1  0  0  0  0
  2  1  1  0  0  0  0
  2  3  1  0  0  0  0
  2 57  1  6  0  0  0
  3  4  1  0  0  0  0
  3 58  1  0  0  0  0
  3 59  1  0  0  0  0
  4 60  1  0  0  0  0
  4 61  1  0  0  0  0
  5  4  1  0  0  0  0
  5  6  1  6  0  0  0
  5  8  1  0  0  0  0
  6  7  1  0  0  0  0
  7  2  1  0  0  0  0
  7 62  1  0  0  0  0
  7 63  1  0  0  0  0
  8  9  1  0  0  0  0
  9 10  1  0  0  0  0
  9 64  1  1  0  0  0
 10 65  1  0  0  0  0
 10 66  1  0  0  0  0
 11 10  1  0  0  0  0
 11 12  1  0  0  0  0
 11 67  1  1  0  0  0
 12 13  1  0  0  0  0
 12 68  1  6  0  0  0
 13 14  1  0  0  0  0
 13 69  1  0  0  0  0
 13 70  1  0  0  0  0
 14 71  1  0  0  0  0
 14 72  1  0  0  0  0
 15 14  1  0  0  0  0
 15 16  1  0  0  0  0
 15 73  1  1  0  0  0
 16 17  1  0  0  0  0
 16 74  1  0  0  0  0
 16 75  1  0  0  0  0
 17 18  1  0  0  0  0
 17 41  1  0  0  0  0
 17 76  1  1  0  0  0
 19 18  1  0  0  0  0
 19 20  1  0  0  0  0
 19 77  1  1  0  0  0
 20 21  1  0  0  0  0
 21 22  1  0  0  0  0
 21 24  1  0  0  0  0
 21 78  1  1  0  0  0
 22 23  1  0  0  0  0
 22 79  1  0  0  0  0
 22 80  1  0  0  0  0
 23 81  1  0  0  0  0
 24 25  1  0  0  0  0
 24 26  1  0  0  0  0
 24 82  1  1  0  0  0
 25 83  1  0  0  0  0
 26 27  1  0  0  0  0
 26 39  1  0  0  0  0
 26 84  1  1  0  0  0
 28 27  1  0  0  0  0
 28 29  1  0  0  0  0
 28 85  1  1  0  0  0
 29 30  1  0  0  0  0
 30 31  1  0  0  0  0
 30 33  1  0  0  0  0
 30 86  1  1  0  0  0
 31 32  1  0  0  0  0
 31 87  1  0  0  0  0
 31 88  1  0  0  0  0
 32 89  1  0  0  0  0
 33 34  1  0  0  0  0
 33 35  1  0  0  0  0
 33 90  1  6  0  0  0
 34 91  1  0  0  0  0
 35 36  1  0  0  0  0
 35 37  1  0  0  0  0
 35 92  1  1  0  0  0
 36 93  1  0  0  0  0
 37 38  1  0  0  0  0
 37 28  1  0  0  0  0
 37 94  1  6  0  0  0
 38 95  1  0  0  0  0
 39 40  1  0  0  0  0
 39 19  1  0  0  0  0
 39 96  1  6  0  0  0
 40 97  1  0  0  0  0
 41 42  1  0  0  0  0
 41 43  1  0  0  0  0
 41 98  1  6  0  0  0
 42 99  1  0  0  0  0
 43 44  1  0  0  0  0
 43100  1  0  0  0  0
 43101  1  0  0  0  0
 44 45  1  6  0  0  0
 44 46  1  0  0  0  0
 44 15  1  0  0  0  0
 45102  1  0  0  0  0
 45103  1  0  0  0  0
 45104  1  0  0  0  0
 46 47  1  0  0  0  0
 46 12  1  0  0  0  0
 46105  1  1  0  0  0
 47 48  1  0  0  0  0
 47106  1  0  0  0  0
 47107  1  0  0  0  0
 48 49  1  0  0  0  0
 48108  1  0  0  0  0
 48109  1  0  0  0  0
 49 50  1  6  0  0  0
 49 51  1  0  0  0  0
 49 11  1  0  0  0  0
 50110  1  0  0  0  0
 50111  1  0  0  0  0
 50112  1  0  0  0  0
 51 52  1  0  0  0  0
 51  9  1  0  0  0  0
 51113  1  6  0  0  0
 52 53  1  0  0  0  0
 52  5  1  0  0  0  0
 52114  1  1  0  0  0
 53115  1  0  0  0  0
 53116  1  0  0  0  0
 53117  1  0  0  0  0
M  END
>  <IDENTIFIER>
CNP0197515.1

>  <Energy>
1736

$$$$
