
 OpenBabel09082510033D

115122  0  0  0  0  0  0  0  0999 V2000
    3.1511   -2.0227    1.1060 C   0  0  0  0  0  0  0  0  0  0  0  0
    2.7997   -0.9351    0.0937 C   0  0  1  0  0  0  0  0  0  0  0  0
    1.4001   -0.8629   -0.0515 O   0  0  0  0  0  0  0  0  0  0  0  0
    0.9893    0.0512   -1.0752 C   0  0  1  0  0  0  0  0  0  0  0  0
   -0.1355    0.7286   -0.5588 O   0  0  0  0  0  0  0  0  0  0  0  0
   -1.3754    0.2525   -1.0400 C   0  0  1  0  0  0  0  0  0  0  0  0
   -2.1179   -0.4564    0.1233 C   0  0  0  0  0  0  0  0  0  0  0  0
   -2.9075    0.5711    0.9114 C   0  0  0  0  0  0  0  0  0  0  0  0
   -4.0680    1.2095    0.0315 C   0  0  2  0  0  0  0  0  0  0  0  0
   -4.3517    2.6070    0.6044 C   0  0  0  0  0  0  0  0  0  0  0  0
   -3.7480    3.0682    1.5649 O   0  0  0  0  0  0  0  0  0  0  0  0
   -5.3734    0.2869    0.1503 C   0  0  1  0  0  0  0  0  0  0  0  0
   -6.0931    0.5557    1.5017 C   0  0  0  0  0  0  0  0  0  0  0  0
   -7.3291   -0.3044    1.6303 C   0  0  0  0  0  0  0  0  0  0  0  0
   -8.4073   -0.0266    0.5084 C   0  0  2  0  0  0  0  0  0  0  0  0
   -9.0111    1.3759    0.8162 C   0  0  0  0  0  0  0  0  0  0  0  0
   -9.4440   -1.2064    0.5672 C   0  0  1  0  0  0  0  0  0  0  0  0
  -10.8017   -1.1439   -0.1536 C   0  0  0  0  0  0  0  0  0  0  0  0
  -11.3278   -0.2205   -0.9556 C   0  0  0  0  0  0  0  0  0  0  0  0
  -12.6445   -0.6993   -1.3163 C   0  0  0  0  0  0  0  0  0  0  0  0
  -13.4257   -0.1127   -2.0427 O   0  0  0  0  0  0  0  0  0  0  0  0
  -12.9008   -1.8788   -0.7391 O   0  0  0  0  0  0  0  0  0  0  0  0
  -11.8123   -2.2643    0.0138 C   0  0  0  0  0  0  0  0  0  0  0  0
   -8.6338   -2.3508   -0.0610 C   0  0  0  0  0  0  0  0  0  0  0  0
   -7.9199   -1.6915   -1.2399 C   0  0  0  0  0  0  0  0  0  0  0  0
   -7.7799   -0.1522   -0.9253 C   0  0  1  0  0  0  0  0  0  0  0  0
   -8.6155    0.5348   -1.8308 O   0  0  0  0  0  0  0  0  0  0  0  0
   -6.3450    0.5119   -1.0397 C   0  0  2  0  0  0  0  0  0  0  0  0
   -5.6651    0.1491   -2.4029 C   0  0  0  0  0  0  0  0  0  0  0  0
   -4.1330    0.2436   -2.3950 C   0  0  0  0  0  0  0  0  0  0  0  0
   -3.6373    1.4030   -1.5114 C   0  0  1  0  0  0  0  0  0  0  0  0
   -4.2089    2.5890   -2.0297 O   0  0  0  0  0  0  0  0  0  0  0  0
   -2.1054    1.5127   -1.5754 C   0  0  0  0  0  0  0  0  0  0  0  0
    2.0224    1.1792   -1.4309 C   0  0  2  0  0  0  0  0  0  0  0  0
    3.0625    0.7521   -2.2820 O   0  0  0  0  0  0  0  0  0  0  0  0
    2.6162    1.6136   -0.0903 C   0  0  2  0  0  0  0  0  0  0  0  0
    3.3721    2.7968   -0.1627 O   0  0  0  0  0  0  0  0  0  0  0  0
    3.4203    0.4345    0.5098 C   0  0  2  0  0  0  0  0  0  0  0  0
    4.7446    0.4396   -0.0043 O   0  0  0  0  0  0  0  0  0  0  0  0
    5.7050    0.7068    0.9910 C   0  0  2  0  0  0  0  0  0  0  0  0
    5.8375    2.1296    1.1258 O   0  0  0  0  0  0  0  0  0  0  0  0
    7.1380    2.5858    1.5125 C   0  0  0  0  0  0  0  0  0  0  0  0
    7.8425    1.5848    2.4336 C   0  0  1  0  0  0  0  0  0  0  0  0
    6.9670    1.3597    3.5177 O   0  0  0  0  0  0  0  0  0  0  0  0
    8.1257    0.2876    1.6195 C   0  0  2  0  0  0  0  0  0  0  0  0
    9.3622    0.4310    0.9339 O   0  0  0  0  0  0  0  0  0  0  0  0
   10.2778   -0.6243    1.1784 C   0  0  2  0  0  0  0  0  0  0  0  0
   11.5100   -0.0942    1.6127 O   0  0  0  0  0  0  0  0  0  0  0  0
   12.4033   -1.1569    1.3743 C   0  0  0  0  0  0  0  0  0  0  0  0
   12.0943   -1.6466   -0.0407 C   0  0  2  0  0  0  0  0  0  0  0  0
   12.4192   -3.0065   -0.2044 O   0  0  0  0  0  0  0  0  0  0  0  0
   12.8570   -0.7861   -1.0806 C   0  0  0  0  0  0  0  0  0  0  0  0
   12.5156   -1.1632   -2.3884 O   0  0  0  0  0  0  0  0  0  0  0  0
   10.5774   -1.3848   -0.1213 C   0  0  1  0  0  0  0  0  0  0  0  0
    9.7861   -2.5400   -0.2588 O   0  0  0  0  0  0  0  0  0  0  0  0
    7.0261    0.0488    0.5595 C   0  0  1  0  0  0  0  0  0  0  0  0
    6.8891   -1.3178    0.2644 O   0  0  0  0  0  0  0  0  0  0  0  0
    2.7257   -2.9950    0.7787 H   0  0  0  0  0  0  0  0  0  0  0  0
    2.7293   -1.7688    2.1021 H   0  0  0  0  0  0  0  0  0  0  0  0
    4.2499   -2.1303    1.1968 H   0  0  0  0  0  0  0  0  0  0  0  0
    3.2163   -1.2669   -0.8850 H   0  0  0  0  0  0  0  0  0  0  0  0
    0.7668   -0.4982   -2.0168 H   0  0  0  0  0  0  0  0  0  0  0  0
   -1.2998   -0.5076   -1.8506 H   0  0  0  0  0  0  0  0  0  0  0  0
   -1.3812   -1.0056    0.7494 H   0  0  0  0  0  0  0  0  0  0  0  0
   -2.8269   -1.2289   -0.2260 H   0  0  0  0  0  0  0  0  0  0  0  0
   -2.1469    1.3251    1.2123 H   0  0  0  0  0  0  0  0  0  0  0  0
   -3.2984    0.1366    1.8525 H   0  0  0  0  0  0  0  0  0  0  0  0
   -5.1394    3.2194    0.1689 H   0  0  0  0  0  0  0  0  0  0  0  0
   -5.0882   -0.7879    0.1023 H   0  0  0  0  0  0  0  0  0  0  0  0
   -6.3888    1.6141    1.6131 H   0  0  0  0  0  0  0  0  0  0  0  0
   -5.4229    0.3252    2.3544 H   0  0  0  0  0  0  0  0  0  0  0  0
   -7.7887   -0.1475    2.6316 H   0  0  0  0  0  0  0  0  0  0  0  0
   -6.9158   -1.3208    1.6535 H   0  0  0  0  0  0  0  0  0  0  0  0
   -9.4408    1.3976    1.8397 H   0  0  0  0  0  0  0  0  0  0  0  0
   -9.8073    1.6858    0.1313 H   0  0  0  0  0  0  0  0  0  0  0  0
   -8.2544    2.1786    0.7329 H   0  0  0  0  0  0  0  0  0  0  0  0
   -9.7174   -1.4089    1.6265 H   0  0  0  0  0  0  0  0  0  0  0  0
  -10.9205    0.7059   -1.3090 H   0  0  0  0  0  0  0  0  0  0  0  0
  -11.4217   -3.2312   -0.3656 H   0  0  0  0  0  0  0  0  0  0  0  0
  -12.1024   -2.3680    1.0803 H   0  0  0  0  0  0  0  0  0  0  0  0
   -9.1861   -3.2765   -0.3250 H   0  0  0  0  0  0  0  0  0  0  0  0
   -7.8671   -2.7270    0.6271 H   0  0  0  0  0  0  0  0  0  0  0  0
   -8.6242   -1.7933   -2.0983 H   0  0  0  0  0  0  0  0  0  0  0  0
   -7.0034   -2.2499   -1.5101 H   0  0  0  0  0  0  0  0  0  0  0  0
   -8.3119    0.3492   -2.7571 H   0  0  0  0  0  0  0  0  0  0  0  0
   -6.5022    1.6137   -1.0162 H   0  0  0  0  0  0  0  0  0  0  0  0
   -6.0956    0.8098   -3.1833 H   0  0  0  0  0  0  0  0  0  0  0  0
   -5.8625   -0.8909   -2.7285 H   0  0  0  0  0  0  0  0  0  0  0  0
   -3.7712    0.3307   -3.4443 H   0  0  0  0  0  0  0  0  0  0  0  0
   -3.7363   -0.7130   -2.0245 H   0  0  0  0  0  0  0  0  0  0  0  0
   -3.8250    2.7618   -2.9294 H   0  0  0  0  0  0  0  0  0  0  0  0
   -1.8516    2.3826   -0.9263 H   0  0  0  0  0  0  0  0  0  0  0  0
   -1.7195    1.7570   -2.5892 H   0  0  0  0  0  0  0  0  0  0  0  0
    1.4855    2.0162   -1.9328 H   0  0  0  0  0  0  0  0  0  0  0  0
    2.6996    0.0845   -2.9172 H   0  0  0  0  0  0  0  0  0  0  0  0
    1.7539    1.8345    0.5803 H   0  0  0  0  0  0  0  0  0  0  0  0
    3.9963    2.7178   -0.9285 H   0  0  0  0  0  0  0  0  0  0  0  0
    3.3498    0.5875    1.6144 H   0  0  0  0  0  0  0  0  0  0  0  0
    5.4224    0.2416    1.9637 H   0  0  0  0  0  0  0  0  0  0  0  0
    7.0109    3.5378    2.0697 H   0  0  0  0  0  0  0  0  0  0  0  0
    7.7552    2.8032    0.6125 H   0  0  0  0  0  0  0  0  0  0  0  0
    8.7961    1.9888    2.8403 H   0  0  0  0  0  0  0  0  0  0  0  0
    7.2648    0.5541    4.0116 H   0  0  0  0  0  0  0  0  0  0  0  0
    8.1180   -0.5354    2.3671 H   0  0  0  0  0  0  0  0  0  0  0  0
    9.9611   -1.3447    1.9723 H   0  0  0  0  0  0  0  0  0  0  0  0
   12.2017   -1.9584    2.1260 H   0  0  0  0  0  0  0  0  0  0  0  0
   13.4652   -0.8551    1.5011 H   0  0  0  0  0  0  0  0  0  0  0  0
   13.3722   -3.1168    0.0526 H   0  0  0  0  0  0  0  0  0  0  0  0
   13.9583   -0.8798   -0.9361 H   0  0  0  0  0  0  0  0  0  0  0  0
   12.6138    0.2910   -0.9502 H   0  0  0  0  0  0  0  0  0  0  0  0
   13.0272   -1.9900   -2.5900 H   0  0  0  0  0  0  0  0  0  0  0  0
   10.3724   -0.7198   -0.9907 H   0  0  0  0  0  0  0  0  0  0  0  0
    9.9742   -3.1315    0.5157 H   0  0  0  0  0  0  0  0  0  0  0  0
    7.3050    0.5739   -0.3826 H   0  0  0  0  0  0  0  0  0  0  0  0
    6.5768   -1.7671    1.0924 H   0  0  0  0  0  0  0  0  0  0  0  0
  1 58  1  0  0  0  0
  1 59  1  0  0  0  0
  1 60  1  0  0  0  0
  2  1  1  0  0  0  0
  2  3  1  0  0  0  0
  2 61  1  6  0  0  0
  3  4  1  0  0  0  0
  4  5  1  0  0  0  0
  4 34  1  0  0  0  0
  4 62  1  6  0  0  0
  6  5  1  0  0  0  0
  6  7  1  0  0  0  0
  6 63  1  6  0  0  0
  7  8  1  0  0  0  0
  7 64  1  0  0  0  0
  7 65  1  0  0  0  0
  8  9  1  0  0  0  0
  8 66  1  0  0  0  0
  8 67  1  0  0  0  0
  9 10  1  1  0  0  0
  9 12  1  0  0  0  0
 10 11  2  0  0  0  0
 10 68  1  0  0  0  0
 12 13  1  0  0  0  0
 12 69  1  6  0  0  0
 13 14  1  0  0  0  0
 13 70  1  0  0  0  0
 13 71  1  0  0  0  0
 14 15  1  0  0  0  0
 14 72  1  0  0  0  0
 14 73  1  0  0  0  0
 15 16  1  1  0  0  0
 15 17  1  0  0  0  0
 16 74  1  0  0  0  0
 16 75  1  0  0  0  0
 16 76  1  0  0  0  0
 17 18  1  0  0  0  0
 17 24  1  0  0  0  0
 17 77  1  1  0  0  0
 18 19  2  0  0  0  0
 19 20  1  0  0  0  0
 19 78  1  0  0  0  0
 20 21  2  0  0  0  0
 20 22  1  0  0  0  0
 22 23  1  0  0  0  0
 23 18  1  0  0  0  0
 23 79  1  0  0  0  0
 23 80  1  0  0  0  0
 24 25  1  0  0  0  0
 24 81  1  0  0  0  0
 24 82  1  0  0  0  0
 25 26  1  0  0  0  0
 25 83  1  0  0  0  0
 25 84  1  0  0  0  0
 26 27  1  6  0  0  0
 26 28  1  0  0  0  0
 26 15  1  0  0  0  0
 27 85  1  0  0  0  0
 28 29  1  0  0  0  0
 28 12  1  0  0  0  0
 28 86  1  6  0  0  0
 29 30  1  0  0  0  0
 29 87  1  0  0  0  0
 29 88  1  0  0  0  0
 30 31  1  0  0  0  0
 30 89  1  0  0  0  0
 30 90  1  0  0  0  0
 31 32  1  6  0  0  0
 31 33  1  0  0  0  0
 31  9  1  0  0  0  0
 32 91  1  0  0  0  0
 33  6  1  0  0  0  0
 33 92  1  0  0  0  0
 33 93  1  0  0  0  0
 34 35  1  0  0  0  0
 34 36  1  0  0  0  0
 34 94  1  6  0  0  0
 35 95  1  0  0  0  0
 36 37  1  0  0  0  0
 36 38  1  0  0  0  0
 36 96  1  1  0  0  0
 37 97  1  0  0  0  0
 38 39  1  0  0  0  0
 38  2  1  0  0  0  0
 38 98  1  1  0  0  0
 40 39  1  0  0  0  0
 40 41  1  0  0  0  0
 40 99  1  1  0  0  0
 41 42  1  0  0  0  0
 42 43  1  0  0  0  0
 42100  1  0  0  0  0
 42101  1  0  0  0  0
 43 44  1  0  0  0  0
 43 45  1  0  0  0  0
 43102  1  1  0  0  0
 44103  1  0  0  0  0
 45 46  1  0  0  0  0
 45 56  1  0  0  0  0
 45104  1  1  0  0  0
 47 46  1  0  0  0  0
 47 48  1  0  0  0  0
 47105  1  1  0  0  0
 48 49  1  0  0  0  0
 49 50  1  0  0  0  0
 49106  1  0  0  0  0
 49107  1  0  0  0  0
 50 51  1  6  0  0  0
 50 52  1  0  0  0  0
 50 54  1  0  0  0  0
 51108  1  0  0  0  0
 52 53  1  0  0  0  0
 52109  1  0  0  0  0
 52110  1  0  0  0  0
 53111  1  0  0  0  0
 54 55  1  0  0  0  0
 54 47  1  0  0  0  0
 54112  1  6  0  0  0
 55113  1  0  0  0  0
 56 57  1  0  0  0  0
 56 40  1  0  0  0  0
 56114  1  6  0  0  0
 57115  1  0  0  0  0
M  END
>  <IDENTIFIER>
CNP0132325.1

>  <Energy>
2012.52

$$$$
