
 OpenBabel09122503483D

119127  0  0  0  0  0  0  0  0999 V2000
  -11.1113   -2.8869    1.2791 C   0  0  0  0  0  0  0  0  0  0  0  0
  -10.8407   -1.8211    0.2103 C   0  0  1  0  0  0  0  0  0  0  0  0
  -11.6241   -0.5284    0.4159 C   0  0  0  0  0  0  0  0  0  0  0  0
  -10.9801    0.4821   -0.3399 O   0  0  0  0  0  0  0  0  0  0  0  0
   -9.6871   -0.0030   -0.6888 C   0  0  1  0  0  0  0  0  0  0  0  0
   -9.6569   -0.2270   -2.2128 C   0  0  0  0  0  0  0  0  0  0  0  0
   -8.6985    0.9413   -0.3287 O   0  0  0  0  0  0  0  0  0  0  0  0
   -8.3592    0.6793    1.0169 C   0  0  2  0  0  0  0  0  0  0  0  0
   -6.8613    0.6779    1.3381 C   0  0  2  0  0  0  0  0  0  0  0  0
   -5.8862    0.5577    0.1067 C   0  0  1  0  0  0  0  0  0  0  0  0
   -5.9929    1.7837   -0.8311 C   0  0  0  0  0  0  0  0  0  0  0  0
   -4.6368    1.9166   -1.4236 C   0  0  0  0  0  0  0  0  0  0  0  0
   -3.7366    1.2162   -0.7450 C   0  0  0  0  0  0  0  0  0  0  0  0
   -2.2576    1.1737   -0.9788 C   0  0  0  0  0  0  0  0  0  0  0  0
   -1.5122    0.2047   -0.3589 C   0  0  0  0  0  0  0  0  0  0  0  0
   -2.2126   -0.9011    0.4623 C   0  0  0  0  0  0  0  0  0  0  0  0
   -3.7523   -0.9298    0.3413 C   0  0  0  0  0  0  0  0  0  0  0  0
   -4.3433    0.4940    0.4135 C   0  0  2  0  0  0  0  0  0  0  0  0
   -3.9445    1.2585    1.7078 C   0  0  0  0  0  0  0  0  0  0  0  0
    0.0464    0.2223   -0.4049 C   0  0  1  0  0  0  0  0  0  0  0  0
    0.6011    0.0139    1.0282 C   0  0  0  0  0  0  0  0  0  0  0  0
    0.4905   -0.9638   -1.3118 C   0  0  0  0  0  0  0  0  0  0  0  0
    2.0052   -1.0056   -1.5937 C   0  0  0  0  0  0  0  0  0  0  0  0
    2.5963    0.3668   -2.0097 C   0  0  2  0  0  0  0  0  0  0  0  0
    3.4183    0.8460   -0.9508 O   0  0  0  0  0  0  0  0  0  0  0  0
    4.7834    1.0236   -1.2932 C   0  0  1  0  0  0  0  0  0  0  0  0
    5.1815    2.3608   -0.9679 O   0  0  0  0  0  0  0  0  0  0  0  0
    5.8543    2.4918    0.2733 C   0  0  1  0  0  0  0  0  0  0  0  0
    4.8746    2.3012    1.4580 C   0  0  0  0  0  0  0  0  0  0  0  0
    3.7911    3.1843    1.3383 O   0  0  0  0  0  0  0  0  0  0  0  0
    7.1482    1.6107    0.3419 C   0  0  2  0  0  0  0  0  0  0  0  0
    8.3003    2.3548    0.0330 O   0  0  0  0  0  0  0  0  0  0  0  0
    7.0837    0.3678   -0.5768 C   0  0  1  0  0  0  0  0  0  0  0  0
    7.9139   -0.6588   -0.0543 O   0  0  0  0  0  0  0  0  0  0  0  0
    9.1163   -0.8577   -0.7866 C   0  0  1  0  0  0  0  0  0  0  0  0
   10.2310   -0.3730   -0.0325 O   0  0  0  0  0  0  0  0  0  0  0  0
   10.7954   -1.2843    0.9236 C   0  0  1  0  0  0  0  0  0  0  0  0
   11.2218   -0.4743    2.1571 C   0  0  0  0  0  0  0  0  0  0  0  0
   12.1244    0.5342    1.7926 O   0  0  0  0  0  0  0  0  0  0  0  0
    9.8255   -2.4217    1.3358 C   0  0  2  0  0  0  0  0  0  0  0  0
   10.3582   -3.2643    2.3270 O   0  0  0  0  0  0  0  0  0  0  0  0
    9.3889   -3.2429    0.1008 C   0  0  1  0  0  0  0  0  0  0  0  0
    8.2012   -3.9395    0.3879 O   0  0  0  0  0  0  0  0  0  0  0  0
    9.2466   -2.3500   -1.1629 C   0  0  2  0  0  0  0  0  0  0  0  0
   10.3353   -2.5348   -2.0401 O   0  0  0  0  0  0  0  0  0  0  0  0
    5.6367   -0.1081   -0.6388 C   0  0  2  0  0  0  0  0  0  0  0  0
    5.4979   -1.3127   -1.3521 O   0  0  0  0  0  0  0  0  0  0  0  0
    1.4856    1.4091   -2.2563 C   0  0  0  0  0  0  0  0  0  0  0  0
    0.6572    1.5938   -0.9515 C   0  0  1  0  0  0  0  0  0  0  0  0
   -0.3739    2.7294   -1.0663 C   0  0  0  0  0  0  0  0  0  0  0  0
   -1.5894    2.2316   -1.8222 C   0  0  0  0  0  0  0  0  0  0  0  0
   -6.7989   -0.5004    2.3215 C   0  0  1  0  0  0  0  0  0  0  0  0
   -7.0967   -0.1109    3.6458 O   0  0  0  0  0  0  0  0  0  0  0  0
   -7.7284   -1.4627    1.8836 O   0  0  0  0  0  0  0  0  0  0  0  0
   -8.8275   -0.7157    1.4032 C   0  0  2  0  0  0  0  0  0  0  0  0
   -9.4232   -1.2778    0.1155 C   0  0  1  0  0  0  0  0  0  0  0  0
   -8.5123   -2.1331   -0.5357 O   0  0  0  0  0  0  0  0  0  0  0  0
  -12.1871   -3.1645    1.2645 H   0  0  0  0  0  0  0  0  0  0  0  0
  -10.8673   -2.5144    2.2959 H   0  0  0  0  0  0  0  0  0  0  0  0
  -10.5100   -3.7965    1.0783 H   0  0  0  0  0  0  0  0  0  0  0  0
  -11.1217   -2.2336   -0.7839 H   0  0  0  0  0  0  0  0  0  0  0  0
  -11.6085   -0.2056    1.4791 H   0  0  0  0  0  0  0  0  0  0  0  0
  -12.6849   -0.6580    0.1137 H   0  0  0  0  0  0  0  0  0  0  0  0
   -9.8568    0.7321   -2.7347 H   0  0  0  0  0  0  0  0  0  0  0  0
  -10.4296   -0.9570   -2.5315 H   0  0  0  0  0  0  0  0  0  0  0  0
   -8.6610   -0.5956   -2.5381 H   0  0  0  0  0  0  0  0  0  0  0  0
   -8.8772    1.4072    1.6834 H   0  0  0  0  0  0  0  0  0  0  0  0
   -6.5776    1.6257    1.8428 H   0  0  0  0  0  0  0  0  0  0  0  0
   -6.1294   -0.3292   -0.5225 H   0  0  0  0  0  0  0  0  0  0  0  0
   -6.1856    2.7339   -0.2870 H   0  0  0  0  0  0  0  0  0  0  0  0
   -6.7668    1.6220   -1.6093 H   0  0  0  0  0  0  0  0  0  0  0  0
   -4.4142    2.5712   -2.2540 H   0  0  0  0  0  0  0  0  0  0  0  0
   -1.9515   -0.7526    1.5294 H   0  0  0  0  0  0  0  0  0  0  0  0
   -1.8468   -1.9051    0.1636 H   0  0  0  0  0  0  0  0  0  0  0  0
   -4.1635   -1.6214    1.1012 H   0  0  0  0  0  0  0  0  0  0  0  0
   -4.0055   -1.3551   -0.6569 H   0  0  0  0  0  0  0  0  0  0  0  0
   -4.3332    0.7579    2.6149 H   0  0  0  0  0  0  0  0  0  0  0  0
   -4.3353    2.2983    1.6809 H   0  0  0  0  0  0  0  0  0  0  0  0
   -2.8451    1.3403    1.8273 H   0  0  0  0  0  0  0  0  0  0  0  0
    0.2981   -0.9679    1.4468 H   0  0  0  0  0  0  0  0  0  0  0  0
    0.2407    0.8206    1.7024 H   0  0  0  0  0  0  0  0  0  0  0  0
    1.7114    0.0282    1.0368 H   0  0  0  0  0  0  0  0  0  0  0  0
   -0.0216   -0.8385   -2.2920 H   0  0  0  0  0  0  0  0  0  0  0  0
    0.1660   -1.9480   -0.9141 H   0  0  0  0  0  0  0  0  0  0  0  0
    2.1630   -1.7464   -2.4085 H   0  0  0  0  0  0  0  0  0  0  0  0
    2.5593   -1.3926   -0.7116 H   0  0  0  0  0  0  0  0  0  0  0  0
    3.1446    0.2214   -2.9679 H   0  0  0  0  0  0  0  0  0  0  0  0
    4.9895    0.9690   -2.3856 H   0  0  0  0  0  0  0  0  0  0  0  0
    6.1819    3.5497    0.3796 H   0  0  0  0  0  0  0  0  0  0  0  0
    5.4006    2.4759    2.4247 H   0  0  0  0  0  0  0  0  0  0  0  0
    4.4640    1.2790    1.5199 H   0  0  0  0  0  0  0  0  0  0  0  0
    4.1055    4.0693    1.6597 H   0  0  0  0  0  0  0  0  0  0  0  0
    7.2494    1.2921    1.4030 H   0  0  0  0  0  0  0  0  0  0  0  0
    8.1635    2.7549   -0.8656 H   0  0  0  0  0  0  0  0  0  0  0  0
    7.3221    0.6624   -1.6262 H   0  0  0  0  0  0  0  0  0  0  0  0
    9.1319   -0.3243   -1.7630 H   0  0  0  0  0  0  0  0  0  0  0  0
   11.7142   -1.7382    0.4944 H   0  0  0  0  0  0  0  0  0  0  0  0
   11.6838   -1.1294    2.9312 H   0  0  0  0  0  0  0  0  0  0  0  0
   10.3325    0.0030    2.6200 H   0  0  0  0  0  0  0  0  0  0  0  0
   13.0060    0.0935    1.6598 H   0  0  0  0  0  0  0  0  0  0  0  0
    8.9368   -1.9165    1.7721 H   0  0  0  0  0  0  0  0  0  0  0  0
   11.2140   -3.6274    1.9780 H   0  0  0  0  0  0  0  0  0  0  0  0
   10.1592   -4.0079   -0.1423 H   0  0  0  0  0  0  0  0  0  0  0  0
    7.4760   -3.2690    0.4912 H   0  0  0  0  0  0  0  0  0  0  0  0
    8.3508   -2.6716   -1.7381 H   0  0  0  0  0  0  0  0  0  0  0  0
   11.1705   -2.2710   -1.5805 H   0  0  0  0  0  0  0  0  0  0  0  0
    5.3220   -0.3137    0.4027 H   0  0  0  0  0  0  0  0  0  0  0  0
    5.9235   -1.1910   -2.2409 H   0  0  0  0  0  0  0  0  0  0  0  0
    0.8467    1.0872   -3.1042 H   0  0  0  0  0  0  0  0  0  0  0  0
    1.9574    2.3745   -2.5443 H   0  0  0  0  0  0  0  0  0  0  0  0
    1.4024    1.9904   -0.2250 H   0  0  0  0  0  0  0  0  0  0  0  0
    0.0863    3.6071   -1.5703 H   0  0  0  0  0  0  0  0  0  0  0  0
   -0.7005    3.0576   -0.0529 H   0  0  0  0  0  0  0  0  0  0  0  0
   -1.2822    1.8105   -2.8011 H   0  0  0  0  0  0  0  0  0  0  0  0
   -2.2710    3.0827   -2.0168 H   0  0  0  0  0  0  0  0  0  0  0  0
   -5.7910   -0.9397    2.3578 H   0  0  0  0  0  0  0  0  0  0  0  0
   -7.9426    0.4051    3.6522 H   0  0  0  0  0  0  0  0  0  0  0  0
   -9.5808   -0.6089    2.2130 H   0  0  0  0  0  0  0  0  0  0  0  0
   -8.5259   -2.9969   -0.0464 H   0  0  0  0  0  0  0  0  0  0  0  0
  1 58  1  0  0  0  0
  1 59  1  0  0  0  0
  1 60  1  0  0  0  0
  2  1  1  0  0  0  0
  2  3  1  0  0  0  0
  2 61  1  6  0  0  0
  3  4  1  0  0  0  0
  3 62  1  0  0  0  0
  3 63  1  0  0  0  0
  4  5  1  0  0  0  0
  5  6  1  6  0  0  0
  5  7  1  0  0  0  0
  6 64  1  0  0  0  0
  6 65  1  0  0  0  0
  6 66  1  0  0  0  0
  8  7  1  0  0  0  0
  8  9  1  0  0  0  0
  8 67  1  1  0  0  0
  9 10  1  0  0  0  0
  9 52  1  0  0  0  0
  9 68  1  1  0  0  0
 10 11  1  0  0  0  0
 10 69  1  6  0  0  0
 11 12  1  0  0  0  0
 11 70  1  0  0  0  0
 11 71  1  0  0  0  0
 12 13  2  0  0  0  0
 12 72  1  0  0  0  0
 13 14  1  0  0  0  0
 14 15  2  0  0  0  0
 15 16  1  0  0  0  0
 15 20  1  0  0  0  0
 16 17  1  0  0  0  0
 16 73  1  0  0  0  0
 16 74  1  0  0  0  0
 17 18  1  0  0  0  0
 17 75  1  0  0  0  0
 17 76  1  0  0  0  0
 18 19  1  1  0  0  0
 18 10  1  0  0  0  0
 18 13  1  0  0  0  0
 19 77  1  0  0  0  0
 19 78  1  0  0  0  0
 19 79  1  0  0  0  0
 20 21  1  1  0  0  0
 20 22  1  0  0  0  0
 21 80  1  0  0  0  0
 21 81  1  0  0  0  0
 21 82  1  0  0  0  0
 22 23  1  0  0  0  0
 22 83  1  0  0  0  0
 22 84  1  0  0  0  0
 23 24  1  0  0  0  0
 23 85  1  0  0  0  0
 23 86  1  0  0  0  0
 24 25  1  0  0  0  0
 24 48  1  0  0  0  0
 24 87  1  6  0  0  0
 26 25  1  0  0  0  0
 26 27  1  0  0  0  0
 26 88  1  6  0  0  0
 27 28  1  0  0  0  0
 28 29  1  0  0  0  0
 28 31  1  0  0  0  0
 28 89  1  1  0  0  0
 29 30  1  0  0  0  0
 29 90  1  0  0  0  0
 29 91  1  0  0  0  0
 30 92  1  0  0  0  0
 31 32  1  0  0  0  0
 31 33  1  0  0  0  0
 31 93  1  1  0  0  0
 32 94  1  0  0  0  0
 33 34  1  0  0  0  0
 33 46  1  0  0  0  0
 33 95  1  6  0  0  0
 35 34  1  0  0  0  0
 35 36  1  0  0  0  0
 35 96  1  6  0  0  0
 36 37  1  0  0  0  0
 37 38  1  0  0  0  0
 37 40  1  0  0  0  0
 37 97  1  6  0  0  0
 38 39  1  0  0  0  0
 38 98  1  0  0  0  0
 38 99  1  0  0  0  0
 39100  1  0  0  0  0
 40 41  1  0  0  0  0
 40 42  1  0  0  0  0
 40101  1  1  0  0  0
 41102  1  0  0  0  0
 42 43  1  0  0  0  0
 42 44  1  0  0  0  0
 42103  1  6  0  0  0
 43104  1  0  0  0  0
 44 45  1  0  0  0  0
 44 35  1  0  0  0  0
 44105  1  6  0  0  0
 45106  1  0  0  0  0
 46 47  1  0  0  0  0
 46 26  1  0  0  0  0
 46107  1  1  0  0  0
 47108  1  0  0  0  0
 48109  1  0  0  0  0
 48110  1  0  0  0  0
 49 48  1  0  0  0  0
 49 50  1  0  0  0  0
 49 20  1  0  0  0  0
 49111  1  1  0  0  0
 50 51  1  0  0  0  0
 50112  1  0  0  0  0
 50113  1  0  0  0  0
 51 14  1  0  0  0  0
 51114  1  0  0  0  0
 51115  1  0  0  0  0
 52 53  1  0  0  0  0
 52 54  1  0  0  0  0
 52116  1  6  0  0  0
 53117  1  0  0  0  0
 55 54  1  0  0  0  0
 55 56  1  0  0  0  0
 55  8  1  0  0  0  0
 55118  1  1  0  0  0
 56 57  1  6  0  0  0
 56  2  1  0  0  0  0
 56  5  1  0  0  0  0
 57119  1  0  0  0  0
M  END
>  <IDENTIFIER>
CNP0540933.1

>  <Energy>
1922.54

$$$$
