
 OpenBabel09052510543D

129137  0  0  0  0  0  0  0  0999 V2000
  -16.5670   -0.5070    0.2902 C   0  0  0  0  0  0  0  0  0  0  0  0
  -15.1476   -0.8231   -0.1965 C   0  0  2  0  0  0  0  0  0  0  0  0
  -14.1779   -0.1120    0.5742 O   0  0  0  0  0  0  0  0  0  0  0  0
  -13.6553    1.0937    0.0047 C   0  0  1  0  0  0  0  0  0  0  0  0
  -12.3476    0.8475   -0.4948 O   0  0  0  0  0  0  0  0  0  0  0  0
  -11.3376    1.1513    0.4574 C   0  0  1  0  0  0  0  0  0  0  0  0
  -11.0057   -0.0927    1.2956 C   0  0  0  0  0  0  0  0  0  0  0  0
  -10.3704   -1.1600    0.3970 C   0  0  0  0  0  0  0  0  0  0  0  0
   -9.1399   -0.5575   -0.3002 C   0  0  2  0  0  0  0  0  0  0  0  0
   -8.2003   -0.1752    0.6918 O   0  0  0  0  0  0  0  0  0  0  0  0
   -6.8490   -0.4283    0.3566 C   0  0  1  0  0  0  0  0  0  0  0  0
   -6.2480    0.7775   -0.4031 C   0  0  2  0  0  0  0  0  0  0  0  0
   -6.8221    0.9366   -1.6751 O   0  0  0  0  0  0  0  0  0  0  0  0
   -4.7219    0.6341   -0.5085 C   0  0  0  0  0  0  0  0  0  0  0  0
   -4.1676    0.4414    0.9146 C   0  0  2  0  0  0  0  0  0  0  0  0
   -2.6520    0.3869    0.9392 C   0  0  0  0  0  0  0  0  0  0  0  0
   -1.9674    1.4331    1.5659 C   0  0  0  0  0  0  0  0  0  0  0  0
   -0.5865    1.4486    1.6098 C   0  0  0  0  0  0  0  0  0  0  0  0
    0.1604    0.4112    1.0377 C   0  0  0  0  0  0  0  0  0  0  0  0
    1.6395    0.4884    1.0828 C   0  0  0  0  0  0  0  0  0  0  0  0
    2.1605    1.4998    1.5270 O   0  0  0  0  0  0  0  0  0  0  0  0
    2.4850   -0.5995    0.5081 C   0  0  0  0  0  0  0  0  0  0  0  0
    1.8706   -1.6370   -0.1273 C   0  0  0  0  0  0  0  0  0  0  0  0
    2.6844   -2.6401   -0.8811 C   0  0  0  0  0  0  0  0  0  0  0  0
    4.0161   -2.6847   -0.7659 C   0  0  0  0  0  0  0  0  0  0  0  0
    4.7049   -1.8381    0.2762 C   0  0  1  0  0  0  0  0  0  0  0  0
    4.5329   -2.4953    1.5118 O   0  0  0  0  0  0  0  0  0  0  0  0
    6.2213   -1.6564   -0.0618 C   0  0  0  0  0  0  0  0  0  0  0  0
    6.9996   -0.7109    0.9340 C   0  0  1  0  0  0  0  0  0  0  0  0
    7.2353   -1.4529    2.2694 C   0  0  0  0  0  0  0  0  0  0  0  0
    8.3069   -0.4113    0.4406 O   0  0  0  0  0  0  0  0  0  0  0  0
    8.3407    0.3206   -0.7844 C   0  0  1  0  0  0  0  0  0  0  0  0
    8.9950    1.6970   -0.5808 C   0  0  0  0  0  0  0  0  0  0  0  0
   10.4729    1.5808   -0.1885 C   0  0  0  0  0  0  0  0  0  0  0  0
   11.0593    0.2294   -0.6198 C   0  0  2  0  0  0  0  0  0  0  0  0
   12.4631    0.3524   -0.7770 O   0  0  0  0  0  0  0  0  0  0  0  0
   13.2219   -0.5773   -0.0139 C   0  0  1  0  0  0  0  0  0  0  0  0
   14.0915   -1.4454   -0.9517 C   0  0  0  0  0  0  0  0  0  0  0  0
   15.0993   -0.5669   -1.6920 C   0  0  0  0  0  0  0  0  0  0  0  0
   15.8209    0.2231   -0.6511 C   0  0  0  0  0  0  0  0  0  0  0  0
   17.0381    0.1757   -0.5488 O   0  0  0  0  0  0  0  0  0  0  0  0
   14.9471    1.0004    0.3097 C   0  0  2  0  0  0  0  0  0  0  0  0
   15.7648    1.7130    1.3870 C   0  0  0  0  0  0  0  0  0  0  0  0
   14.0251    0.1159    0.9400 O   0  0  0  0  0  0  0  0  0  0  0  0
   10.4010   -0.2996   -1.9137 C   0  0  2  0  0  0  0  0  0  0  0  0
   10.7469    0.5295   -3.1599 C   0  0  0  0  0  0  0  0  0  0  0  0
    8.9816   -0.4573   -1.7997 O   0  0  0  0  0  0  0  0  0  0  0  0
    6.2047    0.5948    1.2571 C   0  0  0  0  0  0  0  0  0  0  0  0
    4.7583    0.2728    1.5008 C   0  0  0  0  0  0  0  0  0  0  0  0
    4.2424    0.5321    2.5770 O   0  0  0  0  0  0  0  0  0  0  0  0
    4.0160   -0.4394    0.3665 C   0  0  2  0  0  0  0  0  0  0  0  0
    4.2285    0.2600   -0.8400 O   0  0  0  0  0  0  0  0  0  0  0  0
    0.3823   -1.7402   -0.1862 C   0  0  0  0  0  0  0  0  0  0  0  0
   -0.1018   -2.7015   -0.7578 O   0  0  0  0  0  0  0  0  0  0  0  0
   -0.4901   -0.6750    0.4094 C   0  0  0  0  0  0  0  0  0  0  0  0
   -1.9250   -0.6803    0.3598 C   0  0  0  0  0  0  0  0  0  0  0  0
   -2.6465   -1.6706   -0.2188 O   0  0  0  0  0  0  0  0  0  0  0  0
   -4.6909   -0.7483    1.4803 O   0  0  0  0  0  0  0  0  0  0  0  0
   -6.0858   -0.6147    1.6949 C   0  0  2  0  0  0  0  0  0  0  0  0
   -6.5799   -1.8650    2.4253 C   0  0  0  0  0  0  0  0  0  0  0  0
   -9.5278    0.5605   -1.0917 O   0  0  0  0  0  0  0  0  0  0  0  0
  -10.0573    1.6079   -0.2854 C   0  0  1  0  0  0  0  0  0  0  0  0
  -10.3466    2.8167   -1.1779 C   0  0  0  0  0  0  0  0  0  0  0  0
  -14.5096    1.7037   -1.1246 C   0  0  0  0  0  0  0  0  0  0  0  0
  -14.6459    0.6992   -2.2597 C   0  0  0  0  0  0  0  0  0  0  0  0
  -14.9993   -0.6413   -1.6952 C   0  0  0  0  0  0  0  0  0  0  0  0
  -15.0470   -1.6106   -2.4373 O   0  0  0  0  0  0  0  0  0  0  0  0
  -16.6470   -0.7392    1.3735 H   0  0  0  0  0  0  0  0  0  0  0  0
  -17.3027   -1.1353   -0.2558 H   0  0  0  0  0  0  0  0  0  0  0  0
  -16.8479    0.5517    0.1489 H   0  0  0  0  0  0  0  0  0  0  0  0
  -15.0016   -1.9066    0.0090 H   0  0  0  0  0  0  0  0  0  0  0  0
  -13.6833    1.8753    0.7973 H   0  0  0  0  0  0  0  0  0  0  0  0
  -11.6252    1.9885    1.1344 H   0  0  0  0  0  0  0  0  0  0  0  0
  -11.9113   -0.4895    1.7993 H   0  0  0  0  0  0  0  0  0  0  0  0
  -10.2808    0.1893    2.0912 H   0  0  0  0  0  0  0  0  0  0  0  0
  -11.1037   -1.4938   -0.3696 H   0  0  0  0  0  0  0  0  0  0  0  0
  -10.0736   -2.0412    1.0059 H   0  0  0  0  0  0  0  0  0  0  0  0
   -8.7473   -1.3502   -0.9764 H   0  0  0  0  0  0  0  0  0  0  0  0
   -6.7044   -1.3622   -0.2363 H   0  0  0  0  0  0  0  0  0  0  0  0
   -6.4614    1.6978    0.1858 H   0  0  0  0  0  0  0  0  0  0  0  0
   -6.6342    0.1106   -2.1932 H   0  0  0  0  0  0  0  0  0  0  0  0
   -4.2961    1.5524   -0.9693 H   0  0  0  0  0  0  0  0  0  0  0  0
   -4.4650   -0.2365   -1.1484 H   0  0  0  0  0  0  0  0  0  0  0  0
   -4.4800    1.3271    1.5190 H   0  0  0  0  0  0  0  0  0  0  0  0
   -2.5036    2.2587    2.0179 H   0  0  0  0  0  0  0  0  0  0  0  0
   -0.1003    2.2863    2.0941 H   0  0  0  0  0  0  0  0  0  0  0  0
    2.2005   -3.3236   -1.5719 H   0  0  0  0  0  0  0  0  0  0  0  0
    4.5861   -3.3920   -1.3621 H   0  0  0  0  0  0  0  0  0  0  0  0
    5.0099   -3.3663    1.4642 H   0  0  0  0  0  0  0  0  0  0  0  0
    6.2421   -1.2393   -1.0859 H   0  0  0  0  0  0  0  0  0  0  0  0
    6.7380   -2.6393   -0.1284 H   0  0  0  0  0  0  0  0  0  0  0  0
    7.7895   -2.3998    2.0927 H   0  0  0  0  0  0  0  0  0  0  0  0
    6.3042   -1.6799    2.8197 H   0  0  0  0  0  0  0  0  0  0  0  0
    7.8552   -0.8246    2.9454 H   0  0  0  0  0  0  0  0  0  0  0  0
    7.3388    0.5619   -1.1894 H   0  0  0  0  0  0  0  0  0  0  0  0
    8.4514    2.3516    0.1334 H   0  0  0  0  0  0  0  0  0  0  0  0
    8.9288    2.1995   -1.5682 H   0  0  0  0  0  0  0  0  0  0  0  0
   10.6101    1.6551    0.9126 H   0  0  0  0  0  0  0  0  0  0  0  0
   11.0022    2.4421   -0.6527 H   0  0  0  0  0  0  0  0  0  0  0  0
   10.7524   -0.4993    0.1641 H   0  0  0  0  0  0  0  0  0  0  0  0
   12.6027   -1.3057    0.5543 H   0  0  0  0  0  0  0  0  0  0  0  0
   13.4551   -1.9958   -1.6780 H   0  0  0  0  0  0  0  0  0  0  0  0
   14.6431   -2.1900   -0.3353 H   0  0  0  0  0  0  0  0  0  0  0  0
   14.5585    0.1333   -2.3652 H   0  0  0  0  0  0  0  0  0  0  0  0
   15.7936   -1.1823   -2.3037 H   0  0  0  0  0  0  0  0  0  0  0  0
   14.3960    1.7894   -0.2507 H   0  0  0  0  0  0  0  0  0  0  0  0
   16.3321    0.9760    1.9948 H   0  0  0  0  0  0  0  0  0  0  0  0
   15.0853    2.2804    2.0579 H   0  0  0  0  0  0  0  0  0  0  0  0
   16.4759    2.4281    0.9204 H   0  0  0  0  0  0  0  0  0  0  0  0
   10.8244   -1.3137   -2.0813 H   0  0  0  0  0  0  0  0  0  0  0  0
   10.3754    1.5689   -3.0930 H   0  0  0  0  0  0  0  0  0  0  0  0
   10.2934    0.0567   -4.0566 H   0  0  0  0  0  0  0  0  0  0  0  0
   11.8470    0.5635   -3.3061 H   0  0  0  0  0  0  0  0  0  0  0  0
    6.1966    1.3082    0.4143 H   0  0  0  0  0  0  0  0  0  0  0  0
    6.6653    1.1327    2.1152 H   0  0  0  0  0  0  0  0  0  0  0  0
    3.8827    1.1838   -0.7201 H   0  0  0  0  0  0  0  0  0  0  0  0
   -2.3148   -2.4631   -0.6470 H   0  0  0  0  0  0  0  0  0  0  0  0
   -6.2821    0.2521    2.3696 H   0  0  0  0  0  0  0  0  0  0  0  0
   -6.4012   -2.7697    1.8051 H   0  0  0  0  0  0  0  0  0  0  0  0
   -7.6654   -1.7880    2.6474 H   0  0  0  0  0  0  0  0  0  0  0  0
   -6.0331   -1.9793    3.3850 H   0  0  0  0  0  0  0  0  0  0  0  0
   -9.2953    1.9466    0.4537 H   0  0  0  0  0  0  0  0  0  0  0  0
  -11.0908    2.5586   -1.9616 H   0  0  0  0  0  0  0  0  0  0  0  0
   -9.4113    3.1459   -1.6783 H   0  0  0  0  0  0  0  0  0  0  0  0
  -10.7393    3.6598   -0.5706 H   0  0  0  0  0  0  0  0  0  0  0  0
  -14.0574    2.6458   -1.5042 H   0  0  0  0  0  0  0  0  0  0  0  0
  -15.5067    1.9684   -0.7259 H   0  0  0  0  0  0  0  0  0  0  0  0
  -13.6632    0.5971   -2.7698 H   0  0  0  0  0  0  0  0  0  0  0  0
  -15.3968    1.0469   -3.0005 H   0  0  0  0  0  0  0  0  0  0  0  0
  1 68  1  0  0  0  0
  1 69  1  0  0  0  0
  1 70  1  0  0  0  0
  2  1  1  0  0  0  0
  2  3  1  0  0  0  0
  2 71  1  1  0  0  0
  3  4  1  0  0  0  0
  4  5  1  0  0  0  0
  4 64  1  0  0  0  0
  4 72  1  1  0  0  0
  6  5  1  0  0  0  0
  6  7  1  0  0  0  0
  6 73  1  1  0  0  0
  7  8  1  0  0  0  0
  7 74  1  0  0  0  0
  7 75  1  0  0  0  0
  8  9  1  0  0  0  0
  8 76  1  0  0  0  0
  8 77  1  0  0  0  0
  9 10  1  0  0  0  0
  9 61  1  0  0  0  0
  9 78  1  6  0  0  0
 11 10  1  0  0  0  0
 11 12  1  0  0  0  0
 11 79  1  6  0  0  0
 12 13  1  0  0  0  0
 12 14  1  0  0  0  0
 12 80  1  1  0  0  0
 13 81  1  0  0  0  0
 14 15  1  0  0  0  0
 14 82  1  0  0  0  0
 14 83  1  0  0  0  0
 15 16  1  0  0  0  0
 15 58  1  0  0  0  0
 15 84  1  1  0  0  0
 16 17  2  0  0  0  0
 17 18  1  0  0  0  0
 17 85  1  0  0  0  0
 18 19  2  0  0  0  0
 18 86  1  0  0  0  0
 19 20  1  0  0  0  0
 20 21  2  0  0  0  0
 20 22  1  0  0  0  0
 22 23  2  0  0  0  0
 23 24  1  0  0  0  0
 23 53  1  0  0  0  0
 24 25  2  0  0  0  0
 24 87  1  0  0  0  0
 25 26  1  0  0  0  0
 25 88  1  0  0  0  0
 26 27  1  1  0  0  0
 26 28  1  0  0  0  0
 27 89  1  0  0  0  0
 28 29  1  0  0  0  0
 28 90  1  0  0  0  0
 28 91  1  0  0  0  0
 29 30  1  0  0  0  0
 29 31  1  6  0  0  0
 29 48  1  0  0  0  0
 30 92  1  0  0  0  0
 30 93  1  0  0  0  0
 30 94  1  0  0  0  0
 32 31  1  0  0  0  0
 32 33  1  0  0  0  0
 32 95  1  6  0  0  0
 33 34  1  0  0  0  0
 33 96  1  0  0  0  0
 33 97  1  0  0  0  0
 34 35  1  0  0  0  0
 34 98  1  0  0  0  0
 34 99  1  0  0  0  0
 35 36  1  0  0  0  0
 35 45  1  0  0  0  0
 35100  1  1  0  0  0
 37 36  1  0  0  0  0
 37 38  1  0  0  0  0
 37101  1  1  0  0  0
 38 39  1  0  0  0  0
 38102  1  0  0  0  0
 38103  1  0  0  0  0
 39 40  1  0  0  0  0
 39104  1  0  0  0  0
 39105  1  0  0  0  0
 40 41  2  0  0  0  0
 40 42  1  0  0  0  0
 42 43  1  0  0  0  0
 42 44  1  0  0  0  0
 42106  1  6  0  0  0
 43107  1  0  0  0  0
 43108  1  0  0  0  0
 43109  1  0  0  0  0
 44 37  1  0  0  0  0
 45 46  1  0  0  0  0
 45 47  1  0  0  0  0
 45110  1  6  0  0  0
 46111  1  0  0  0  0
 46112  1  0  0  0  0
 46113  1  0  0  0  0
 47 32  1  0  0  0  0
 48 49  1  0  0  0  0
 48114  1  0  0  0  0
 48115  1  0  0  0  0
 49 50  2  0  0  0  0
 49 51  1  0  0  0  0
 51 52  1  6  0  0  0
 51 22  1  0  0  0  0
 51 26  1  0  0  0  0
 52116  1  0  0  0  0
 53 54  2  0  0  0  0
 53 55  1  0  0  0  0
 55 56  2  0  0  0  0
 55 19  1  0  0  0  0
 56 57  1  0  0  0  0
 56 16  1  0  0  0  0
 57117  1  0  0  0  0
 58 59  1  0  0  0  0
 59 60  1  0  0  0  0
 59 11  1  0  0  0  0
 59118  1  1  0  0  0
 60119  1  0  0  0  0
 60120  1  0  0  0  0
 60121  1  0  0  0  0
 61 62  1  0  0  0  0
 62 63  1  0  0  0  0
 62  6  1  0  0  0  0
 62122  1  1  0  0  0
 63123  1  0  0  0  0
 63124  1  0  0  0  0
 63125  1  0  0  0  0
 64 65  1  0  0  0  0
 64126  1  0  0  0  0
 64127  1  0  0  0  0
 65 66  1  0  0  0  0
 65128  1  0  0  0  0
 65129  1  0  0  0  0
 66 67  2  0  0  0  0
 66  2  1  0  0  0  0
M  END
>  <IDENTIFIER>
CNP0130566.2

>  <Energy>
1346.46

$$$$
