
 OpenBabel09112506173D

117124  0  0  0  0  0  0  0  0999 V2000
  -11.1756   -1.5820   -2.6275 C   0  0  0  0  0  0  0  0  0  0  0  0
  -11.0216   -1.3298   -1.2491 O   0  0  0  0  0  0  0  0  0  0  0  0
  -11.7097   -0.1448   -0.8693 C   0  0  2  0  0  0  0  0  0  0  0  0
  -10.6806    0.9576   -0.5999 C   0  0  0  0  0  0  0  0  0  0  0  0
   -9.6793    0.4496    0.4866 C   0  0  2  0  0  0  0  0  0  0  0  0
   -8.6884   -0.3335   -0.1714 O   0  0  0  0  0  0  0  0  0  0  0  0
   -7.3589   -0.0082    0.2228 C   0  0  1  0  0  0  0  0  0  0  0  0
   -6.8305   -1.0558    1.2181 C   0  0  2  0  0  0  0  0  0  0  0  0
   -7.5966   -1.0884    2.3952 O   0  0  0  0  0  0  0  0  0  0  0  0
   -5.3606   -0.7524    1.5322 C   0  0  0  0  0  0  0  0  0  0  0  0
   -4.5525   -0.6754    0.2266 C   0  0  2  0  0  0  0  0  0  0  0  0
   -3.2347   -0.2998    0.5843 O   0  0  0  0  0  0  0  0  0  0  0  0
   -2.2511   -0.7154   -0.3531 C   0  0  2  0  0  0  0  0  0  0  0  0
   -1.0655   -1.3618    0.4371 C   0  0  1  0  0  0  0  0  0  0  0  0
   -0.4041   -2.5832   -0.2371 C   0  0  0  0  0  0  0  0  0  0  0  0
   -0.0910   -0.4103    0.8307 O   0  0  0  0  0  0  0  0  0  0  0  0
    0.4810    0.3343   -0.2506 C   0  0  1  0  0  0  0  0  0  0  0  0
    1.7716   -0.1727   -0.5443 O   0  0  0  0  0  0  0  0  0  0  0  0
    2.8372    0.7139   -0.2296 C   0  0  1  0  0  0  0  0  0  0  0  0
    3.6480    0.1384    0.9687 C   0  0  0  0  0  0  0  0  0  0  0  0
    4.7462   -0.7975    0.4614 C   0  0  0  0  0  0  0  0  0  0  0  0
    5.8300    0.0149   -0.3448 C   0  0  1  0  0  0  0  0  0  0  0  0
    6.4606   -0.9862   -1.3591 C   0  0  0  0  0  0  0  0  0  0  0  0
    5.1292    1.0930   -1.1913 C   0  0  0  0  0  0  0  0  0  0  0  0
    5.7405    2.2351   -1.5725 C   0  0  0  0  0  0  0  0  0  0  0  0
    7.1362    2.6220   -1.1413 C   0  0  0  0  0  0  0  0  0  0  0  0
    7.8687    1.5472   -0.3099 C   0  0  1  0  0  0  0  0  0  0  0  0
    8.9927    2.1537    0.4710 C   0  0  0  0  0  0  0  0  0  0  0  0
    8.7858    2.9994    1.3312 O   0  0  0  0  0  0  0  0  0  0  0  0
   10.1974    1.5638    0.3411 O   0  0  0  0  0  0  0  0  0  0  0  0
   10.9511    1.1558    1.4225 C   0  0  2  0  0  0  0  0  0  0  0  0
   12.3979    1.4532    1.1249 C   0  0  0  0  0  0  0  0  0  0  0  0
   12.7557    0.5611    0.0910 O   0  0  0  0  0  0  0  0  0  0  0  0
   12.0868   -0.6529    0.3990 C   0  0  2  0  0  0  0  0  0  0  0  0
   13.0979   -1.7065    0.8703 C   0  0  0  0  0  0  0  0  0  0  0  0
   11.3983   -1.1557   -0.6883 O   0  0  0  0  0  0  0  0  0  0  0  0
   10.1256   -1.4559   -0.3726 C   0  0  0  0  0  0  0  0  0  0  0  0
    9.7941   -1.0464    0.8441 C   0  0  0  0  0  0  0  0  0  0  0  0
    8.4462   -1.2876    1.4900 C   0  0  0  0  0  0  0  0  0  0  0  0
    7.5600   -0.0559    1.7665 C   0  0  0  0  0  0  0  0  0  0  0  0
    6.8771    0.7662    0.5993 C   0  0  2  0  0  0  0  0  0  0  0  0
   10.9975   -0.3608    1.4461 C   0  0  2  0  0  0  0  0  0  0  0  0
    3.6805    0.8647   -1.5240 C   0  0  0  0  0  0  0  0  0  0  0  0
   -0.3520    0.3765   -1.5620 C   0  0  0  0  0  0  0  0  0  0  0  0
   -1.8128    0.5262   -1.1699 C   0  0  1  0  0  0  0  0  0  0  0  0
   -2.6434    0.6493   -2.3126 O   0  0  0  0  0  0  0  0  0  0  0  0
   -2.8642    2.0066   -2.6262 C   0  0  0  0  0  0  0  0  0  0  0  0
   -5.0973    0.3151   -0.6332 O   0  0  0  0  0  0  0  0  0  0  0  0
   -6.4276   -0.0111   -1.0148 C   0  0  2  0  0  0  0  0  0  0  0  0
   -6.8941    1.0188   -2.0453 C   0  0  0  0  0  0  0  0  0  0  0  0
  -10.2828   -0.3702    1.4983 O   0  0  0  0  0  0  0  0  0  0  0  0
  -11.6416   -0.0375    1.7021 C   0  0  2  0  0  0  0  0  0  0  0  0
  -12.1748   -0.7240    2.9577 C   0  0  0  0  0  0  0  0  0  0  0  0
  -12.4886   -0.4160    0.4504 C   0  0  1  0  0  0  0  0  0  0  0  0
  -13.7104    0.2814    0.4849 O   0  0  0  0  0  0  0  0  0  0  0  0
  -10.5766   -2.4780   -2.8887 H   0  0  0  0  0  0  0  0  0  0  0  0
  -10.7895   -0.7354   -3.2372 H   0  0  0  0  0  0  0  0  0  0  0  0
  -12.2368   -1.8123   -2.8706 H   0  0  0  0  0  0  0  0  0  0  0  0
  -12.4527    0.1783   -1.6404 H   0  0  0  0  0  0  0  0  0  0  0  0
  -11.2335    1.8485   -0.2286 H   0  0  0  0  0  0  0  0  0  0  0  0
  -10.1367    1.2782   -1.5134 H   0  0  0  0  0  0  0  0  0  0  0  0
   -9.2653    1.3695    0.9569 H   0  0  0  0  0  0  0  0  0  0  0  0
   -7.2587    1.0061    0.6751 H   0  0  0  0  0  0  0  0  0  0  0  0
   -6.8909   -2.0605    0.7425 H   0  0  0  0  0  0  0  0  0  0  0  0
   -7.5504   -0.1873    2.8098 H   0  0  0  0  0  0  0  0  0  0  0  0
   -4.9407   -1.5382    2.1973 H   0  0  0  0  0  0  0  0  0  0  0  0
   -5.2898    0.2276    2.0549 H   0  0  0  0  0  0  0  0  0  0  0  0
   -4.5845   -1.6860   -0.2493 H   0  0  0  0  0  0  0  0  0  0  0  0
   -2.6107   -1.5184   -1.0385 H   0  0  0  0  0  0  0  0  0  0  0  0
   -1.5072   -1.8048    1.3575 H   0  0  0  0  0  0  0  0  0  0  0  0
    0.1216   -2.3554   -1.1787 H   0  0  0  0  0  0  0  0  0  0  0  0
   -1.1707   -3.3589   -0.4491 H   0  0  0  0  0  0  0  0  0  0  0  0
    0.3432   -3.0225    0.4576 H   0  0  0  0  0  0  0  0  0  0  0  0
    0.4721    1.3878    0.1096 H   0  0  0  0  0  0  0  0  0  0  0  0
    2.5142    1.7262    0.1039 H   0  0  0  0  0  0  0  0  0  0  0  0
    2.9539   -0.3594    1.6798 H   0  0  0  0  0  0  0  0  0  0  0  0
    4.1474    0.9583    1.5268 H   0  0  0  0  0  0  0  0  0  0  0  0
    4.2256   -1.5421   -0.1822 H   0  0  0  0  0  0  0  0  0  0  0  0
    5.2114   -1.3889    1.2719 H   0  0  0  0  0  0  0  0  0  0  0  0
    5.6667   -1.4269   -1.9995 H   0  0  0  0  0  0  0  0  0  0  0  0
    6.9583   -1.8413   -0.8884 H   0  0  0  0  0  0  0  0  0  0  0  0
    7.1583   -0.5123   -2.0745 H   0  0  0  0  0  0  0  0  0  0  0  0
    5.1834    2.9712   -2.1453 H   0  0  0  0  0  0  0  0  0  0  0  0
    6.9793    3.5250   -0.5115 H   0  0  0  0  0  0  0  0  0  0  0  0
    7.7664    2.9148   -2.0082 H   0  0  0  0  0  0  0  0  0  0  0  0
    8.3397    0.8163   -0.9897 H   0  0  0  0  0  0  0  0  0  0  0  0
   10.5652    1.5881    2.3732 H   0  0  0  0  0  0  0  0  0  0  0  0
   13.0402    1.2560    2.0145 H   0  0  0  0  0  0  0  0  0  0  0  0
   12.5312    2.5116    0.8149 H   0  0  0  0  0  0  0  0  0  0  0  0
   13.8356   -1.9090    0.0651 H   0  0  0  0  0  0  0  0  0  0  0  0
   12.5787   -2.6557    1.1240 H   0  0  0  0  0  0  0  0  0  0  0  0
   13.6426   -1.3452    1.7686 H   0  0  0  0  0  0  0  0  0  0  0  0
    9.4582   -1.9789   -1.0447 H   0  0  0  0  0  0  0  0  0  0  0  0
    8.6686   -1.7746    2.4637 H   0  0  0  0  0  0  0  0  0  0  0  0
    7.8671   -2.0401    0.9382 H   0  0  0  0  0  0  0  0  0  0  0  0
    8.1475    0.6350    2.4065 H   0  0  0  0  0  0  0  0  0  0  0  0
    6.7443   -0.4044    2.4311 H   0  0  0  0  0  0  0  0  0  0  0  0
    6.3144    1.5408    1.1684 H   0  0  0  0  0  0  0  0  0  0  0  0
   11.3169   -0.7403    2.4433 H   0  0  0  0  0  0  0  0  0  0  0  0
    3.6638   -0.0918   -2.0900 H   0  0  0  0  0  0  0  0  0  0  0  0
    3.2233    1.6356   -2.1823 H   0  0  0  0  0  0  0  0  0  0  0  0
   -0.2464   -0.5375   -2.1761 H   0  0  0  0  0  0  0  0  0  0  0  0
    0.0096    1.2185   -2.1905 H   0  0  0  0  0  0  0  0  0  0  0  0
   -1.8704    1.4181   -0.4947 H   0  0  0  0  0  0  0  0  0  0  0  0
   -3.4079    2.0579   -3.5918 H   0  0  0  0  0  0  0  0  0  0  0  0
   -1.9084    2.5586   -2.7652 H   0  0  0  0  0  0  0  0  0  0  0  0
   -3.5042    2.4894   -1.8560 H   0  0  0  0  0  0  0  0  0  0  0  0
   -6.4518   -1.0056   -1.5194 H   0  0  0  0  0  0  0  0  0  0  0  0
   -6.8947    2.0383   -1.6035 H   0  0  0  0  0  0  0  0  0  0  0  0
   -7.9168    0.7774   -2.4033 H   0  0  0  0  0  0  0  0  0  0  0  0
   -6.2109    1.0103   -2.9208 H   0  0  0  0  0  0  0  0  0  0  0  0
  -11.7030    1.0602    1.8940 H   0  0  0  0  0  0  0  0  0  0  0  0
  -12.1228   -1.8279    2.8461 H   0  0  0  0  0  0  0  0  0  0  0  0
  -13.2304   -0.4278    3.1386 H   0  0  0  0  0  0  0  0  0  0  0  0
  -11.5675   -0.4252    3.8380 H   0  0  0  0  0  0  0  0  0  0  0  0
  -12.7367   -1.5008    0.4449 H   0  0  0  0  0  0  0  0  0  0  0  0
  -13.5124    1.2468    0.3605 H   0  0  0  0  0  0  0  0  0  0  0  0
  1  2  1  0  0  0  0
  1 56  1  0  0  0  0
  1 57  1  0  0  0  0
  1 58  1  0  0  0  0
  3  2  1  0  0  0  0
  3  4  1  0  0  0  0
  3 59  1  6  0  0  0
  4  5  1  0  0  0  0
  4 60  1  0  0  0  0
  4 61  1  0  0  0  0
  5  6  1  0  0  0  0
  5 51  1  0  0  0  0
  5 62  1  1  0  0  0
  7  6  1  0  0  0  0
  7  8  1  0  0  0  0
  7 63  1  1  0  0  0
  8  9  1  0  0  0  0
  8 10  1  0  0  0  0
  8 64  1  6  0  0  0
  9 65  1  0  0  0  0
 10 11  1  0  0  0  0
 10 66  1  0  0  0  0
 10 67  1  0  0  0  0
 11 12  1  0  0  0  0
 11 48  1  0  0  0  0
 11 68  1  6  0  0  0
 13 12  1  0  0  0  0
 13 14  1  0  0  0  0
 13 69  1  6  0  0  0
 14 15  1  0  0  0  0
 14 16  1  0  0  0  0
 14 70  1  1  0  0  0
 15 71  1  0  0  0  0
 15 72  1  0  0  0  0
 15 73  1  0  0  0  0
 16 17  1  0  0  0  0
 17 18  1  0  0  0  0
 17 44  1  0  0  0  0
 17 74  1  1  0  0  0
 19 18  1  0  0  0  0
 19 20  1  0  0  0  0
 19 75  1  1  0  0  0
 20 21  1  0  0  0  0
 20 76  1  0  0  0  0
 20 77  1  0  0  0  0
 21 22  1  0  0  0  0
 21 78  1  0  0  0  0
 21 79  1  0  0  0  0
 22 23  1  6  0  0  0
 22 24  1  0  0  0  0
 23 80  1  0  0  0  0
 23 81  1  0  0  0  0
 23 82  1  0  0  0  0
 24 25  2  0  0  0  0
 24 43  1  0  0  0  0
 25 26  1  0  0  0  0
 25 83  1  0  0  0  0
 26 84  1  0  0  0  0
 26 85  1  0  0  0  0
 27 26  1  0  0  0  0
 27 28  1  0  0  0  0
 27 86  1  6  0  0  0
 28 29  2  0  0  0  0
 28 30  1  0  0  0  0
 30 31  1  0  0  0  0
 31 32  1  0  0  0  0
 31 87  1  1  0  0  0
 32 33  1  0  0  0  0
 32 88  1  0  0  0  0
 32 89  1  0  0  0  0
 33 34  1  0  0  0  0
 34 35  1  1  0  0  0
 34 36  1  0  0  0  0
 35 90  1  0  0  0  0
 35 91  1  0  0  0  0
 35 92  1  0  0  0  0
 36 37  1  0  0  0  0
 37 38  2  0  0  0  0
 37 93  1  0  0  0  0
 38 39  1  0  0  0  0
 39 40  1  0  0  0  0
 39 94  1  0  0  0  0
 39 95  1  0  0  0  0
 40 96  1  0  0  0  0
 40 97  1  0  0  0  0
 41 40  1  0  0  0  0
 41 22  1  0  0  0  0
 41 27  1  0  0  0  0
 41 98  1  1  0  0  0
 42 38  1  0  0  0  0
 42 31  1  0  0  0  0
 42 34  1  0  0  0  0
 42 99  1  1  0  0  0
 43 19  1  0  0  0  0
 43100  1  0  0  0  0
 43101  1  0  0  0  0
 44 45  1  0  0  0  0
 44102  1  0  0  0  0
 44103  1  0  0  0  0
 45 46  1  0  0  0  0
 45 13  1  0  0  0  0
 45104  1  1  0  0  0
 46 47  1  0  0  0  0
 47105  1  0  0  0  0
 47106  1  0  0  0  0
 47107  1  0  0  0  0
 48 49  1  0  0  0  0
 49 50  1  0  0  0  0
 49  7  1  0  0  0  0
 49108  1  6  0  0  0
 50109  1  0  0  0  0
 50110  1  0  0  0  0
 50111  1  0  0  0  0
 51 52  1  0  0  0  0
 52 53  1  0  0  0  0
 52 54  1  0  0  0  0
 52112  1  1  0  0  0
 53113  1  0  0  0  0
 53114  1  0  0  0  0
 53115  1  0  0  0  0
 54 55  1  0  0  0  0
 54  3  1  0  0  0  0
 54116  1  1  0  0  0
 55117  1  0  0  0  0
M  END
>  <IDENTIFIER>
CNP0188145.6

>  <Energy>
1596.31

$$$$
