
 OpenBabel09102507263D

153165  0  0  0  0  0  0  0  0999 V2000
  -12.2449    2.3932   -2.5147 C   0  0  0  0  0  0  0  0  0  0  0  0
  -13.3053    1.9613   -3.5010 C   0  0  0  0  0  0  0  0  0  0  0  0
  -13.4626    2.7623   -4.7427 C   0  0  0  0  0  0  0  0  0  0  0  0
  -14.3077    2.4826   -5.5790 O   0  0  0  0  0  0  0  0  0  0  0  0
  -14.1007    0.8868   -3.2728 C   0  0  0  0  0  0  0  0  0  0  0  0
  -14.0297    0.0564   -2.0442 C   0  0  0  0  0  0  0  0  0  0  0  0
  -14.8783   -0.9735   -1.8487 C   0  0  0  0  0  0  0  0  0  0  0  0
  -14.9451   -1.8373   -0.5968 C   0  0  0  0  0  0  0  0  0  0  0  0
  -13.9117   -1.4936    0.4969 C   0  0  2  0  0  0  0  0  0  0  0  0
  -12.6234   -1.8876    0.0244 O   0  0  0  0  0  0  0  0  0  0  0  0
  -11.6311   -1.0089    0.5055 C   0  0  2  0  0  0  0  0  0  0  0  0
  -10.5118   -0.8366   -0.5103 C   0  0  0  0  0  0  0  0  0  0  0  0
   -9.4559    0.1669    0.0118 C   0  0  2  0  0  0  0  0  0  0  0  0
   -8.3436   -0.0468   -0.8530 O   0  0  0  0  0  0  0  0  0  0  0  0
   -7.0123    0.4159   -0.6181 C   0  0  2  0  0  0  0  0  0  0  0  0
   -6.0812   -0.7439   -1.0504 C   0  0  0  0  0  0  0  0  0  0  0  0
   -4.6006   -0.3531   -0.9485 C   0  0  2  0  0  0  0  0  0  0  0  0
   -3.7740   -1.4980   -1.1472 O   0  0  0  0  0  0  0  0  0  0  0  0
   -2.4020   -1.1136   -1.1953 C   0  0  2  0  0  0  0  0  0  0  0  0
   -1.5484   -2.3176   -1.6723 C   0  0  0  0  0  0  0  0  0  0  0  0
   -0.1648   -1.9167   -2.2209 C   0  0  0  0  0  0  0  0  0  0  0  0
    0.8974   -1.2919   -1.2768 C   0  0  2  0  0  0  0  0  0  0  0  0
    2.0116   -2.1747   -1.1114 O   0  0  0  0  0  0  0  0  0  0  0  0
    3.1186   -1.4146   -0.6405 C   0  0  2  0  0  0  0  0  0  0  0  0
    4.4256   -2.2220   -0.6051 C   0  0  0  0  0  0  0  0  0  0  0  0
    5.4988   -1.2030   -0.2161 C   0  0  2  0  0  0  0  0  0  0  0  0
    6.8206   -1.7387   -0.1802 O   0  0  0  0  0  0  0  0  0  0  0  0
    7.7162   -0.6291   -0.2154 C   0  0  2  0  0  0  0  0  0  0  0  0
    9.1875   -1.0439   -0.2869 C   0  0  0  0  0  0  0  0  0  0  0  0
   10.1051    0.2173   -0.4173 C   0  0  2  0  0  0  0  0  0  0  0  0
    9.9313    0.7514   -1.8748 C   0  0  0  0  0  0  0  0  0  0  0  0
   11.4197   -0.2692   -0.1492 O   0  0  0  0  0  0  0  0  0  0  0  0
   12.5506    0.5413   -0.4504 C   0  0  2  0  0  0  0  0  0  0  0  0
   13.7735   -0.3255   -0.0891 C   0  0  0  0  0  0  0  0  0  0  0  0
   15.0871    0.4166   -0.3508 C   0  0  2  0  0  0  0  0  0  0  0  0
   16.1769   -0.3890    0.1148 O   0  0  0  0  0  0  0  0  0  0  0  0
   17.3941    0.3207    0.4009 C   0  0  2  0  0  0  0  0  0  0  0  0
   17.6238    0.4205    1.9169 C   0  0  0  0  0  0  0  0  0  0  0  0
   17.4850    1.6982   -0.2975 C   0  0  1  0  0  0  0  0  0  0  0  0
   17.4321    1.4965   -1.6891 O   0  0  0  0  0  0  0  0  0  0  0  0
   16.3003    2.5910    0.1156 C   0  0  0  0  0  0  0  0  0  0  0  0
   15.0272    1.7661    0.3856 C   0  0  1  0  0  0  0  0  0  0  0  0
   13.9077    2.5183   -0.0090 O   0  0  0  0  0  0  0  0  0  0  0  0
   12.6969    1.8807    0.3616 C   0  0  1  0  0  0  0  0  0  0  0  0
   11.6322    2.9007    0.0119 C   0  0  0  0  0  0  0  0  0  0  0  0
   10.2464    2.6560    0.5837 C   0  0  0  0  0  0  0  0  0  0  0  0
    9.7093    1.2232    0.7242 C   0  0  1  0  0  0  0  0  0  0  0  0
    8.3173    1.4190    0.8892 O   0  0  0  0  0  0  0  0  0  0  0  0
    7.5866    0.2278    1.0576 C   0  0  1  0  0  0  0  0  0  0  0  0
    6.1329    0.6365    1.2763 C   0  0  0  0  0  0  0  0  0  0  0  0
    5.1758   -0.5492    1.1508 C   0  0  1  0  0  0  0  0  0  0  0  0
    3.8741   -0.0002    1.2211 O   0  0  0  0  0  0  0  0  0  0  0  0
    2.8570   -0.8825    0.7902 C   0  0  1  0  0  0  0  0  0  0  0  0
    1.5691   -0.0700    0.7749 C   0  0  0  0  0  0  0  0  0  0  0  0
    0.4309   -0.8484    0.1228 C   0  0  1  0  0  0  0  0  0  0  0  0
   -0.6621    0.0377    0.0731 O   0  0  0  0  0  0  0  0  0  0  0  0
   -1.9515   -0.5417    0.1850 C   0  0  2  0  0  0  0  0  0  0  0  0
   -2.0933   -1.5976    1.3459 C   0  0  0  0  0  0  0  0  0  0  0  0
   -2.8765    0.6607    0.5074 C   0  0  0  0  0  0  0  0  0  0  0  0
   -4.3387    0.2444    0.4436 C   0  0  1  0  0  0  0  0  0  0  0  0
   -5.1950    1.3467    0.6779 O   0  0  0  0  0  0  0  0  0  0  0  0
   -6.5191    0.8480    0.8063 C   0  0  1  0  0  0  0  0  0  0  0  0
   -7.3829    1.8968    1.4858 C   0  0  1  0  0  0  0  0  0  0  0  0
   -7.7013    2.9618    0.6206 O   0  0  0  0  0  0  0  0  0  0  0  0
   -8.5992    1.2394    2.1717 C   0  0  0  0  0  0  0  0  0  0  0  0
   -9.1518   -0.0562    1.5300 C   0  0  1  0  0  0  0  0  0  0  0  0
  -10.2882   -0.4125    2.3161 O   0  0  0  0  0  0  0  0  0  0  0  0
  -10.9351   -1.5368    1.7570 C   0  0  1  0  0  0  0  0  0  0  0  0
  -11.8162   -2.2913    2.7825 C   0  0  1  0  0  0  0  0  0  0  0  0
  -11.1261   -2.3970    4.0035 O   0  0  0  0  0  0  0  0  0  0  0  0
  -13.2520   -1.7863    3.0000 C   0  0  0  0  0  0  0  0  0  0  0  0
  -14.2250   -2.1756    1.8486 C   0  0  1  0  0  0  0  0  0  0  0  0
  -15.5407   -1.8802    2.2502 O   0  0  0  0  0  0  0  0  0  0  0  0
  -11.7019    3.2950   -2.8687 H   0  0  0  0  0  0  0  0  0  0  0  0
  -11.4996    1.5835   -2.3833 H   0  0  0  0  0  0  0  0  0  0  0  0
  -12.7071    2.6366   -1.5348 H   0  0  0  0  0  0  0  0  0  0  0  0
  -12.8233    3.6225   -4.9151 H   0  0  0  0  0  0  0  0  0  0  0  0
  -14.8515    0.6190   -4.0117 H   0  0  0  0  0  0  0  0  0  0  0  0
  -13.3026    0.3177   -1.2932 H   0  0  0  0  0  0  0  0  0  0  0  0
  -15.6091   -1.1979   -2.6207 H   0  0  0  0  0  0  0  0  0  0  0  0
  -14.8376   -2.9076   -0.8750 H   0  0  0  0  0  0  0  0  0  0  0  0
  -15.9684   -1.6878   -0.1931 H   0  0  0  0  0  0  0  0  0  0  0  0
  -14.0384   -0.4009    0.6772 H   0  0  0  0  0  0  0  0  0  0  0  0
  -12.0341    0.0130    0.7070 H   0  0  0  0  0  0  0  0  0  0  0  0
  -10.8962   -0.4996   -1.4942 H   0  0  0  0  0  0  0  0  0  0  0  0
  -10.0378   -1.8317   -0.6768 H   0  0  0  0  0  0  0  0  0  0  0  0
   -9.9332    1.1592   -0.1265 H   0  0  0  0  0  0  0  0  0  0  0  0
   -6.8541    1.2798   -1.3014 H   0  0  0  0  0  0  0  0  0  0  0  0
   -6.3080   -1.0653   -2.0905 H   0  0  0  0  0  0  0  0  0  0  0  0
   -6.2729   -1.6080   -0.3750 H   0  0  0  0  0  0  0  0  0  0  0  0
   -4.4198    0.4202   -1.7343 H   0  0  0  0  0  0  0  0  0  0  0  0
   -2.2921   -0.3316   -1.9850 H   0  0  0  0  0  0  0  0  0  0  0  0
   -2.0837   -2.7521   -2.5457 H   0  0  0  0  0  0  0  0  0  0  0  0
   -1.4771   -3.1236   -0.9165 H   0  0  0  0  0  0  0  0  0  0  0  0
   -0.3735   -1.1816   -3.0323 H   0  0  0  0  0  0  0  0  0  0  0  0
    0.2956   -2.7826   -2.7449 H   0  0  0  0  0  0  0  0  0  0  0  0
    1.2167   -0.3838   -1.8465 H   0  0  0  0  0  0  0  0  0  0  0  0
    3.2859   -0.5629   -1.3445 H   0  0  0  0  0  0  0  0  0  0  0  0
    4.6481   -2.6343   -1.6125 H   0  0  0  0  0  0  0  0  0  0  0  0
    4.3688   -3.0595    0.1254 H   0  0  0  0  0  0  0  0  0  0  0  0
    5.4230   -0.4327   -1.0244 H   0  0  0  0  0  0  0  0  0  0  0  0
    7.4894   -0.0344   -1.1207 H   0  0  0  0  0  0  0  0  0  0  0  0
    9.3628   -1.7449   -1.1329 H   0  0  0  0  0  0  0  0  0  0  0  0
    9.4352   -1.6019    0.6462 H   0  0  0  0  0  0  0  0  0  0  0  0
   10.1398   -0.0631   -2.6017 H   0  0  0  0  0  0  0  0  0  0  0  0
   10.6053    1.5674   -2.1460 H   0  0  0  0  0  0  0  0  0  0  0  0
    8.9191    1.1495   -2.0696 H   0  0  0  0  0  0  0  0  0  0  0  0
   12.6050    0.7387   -1.5428 H   0  0  0  0  0  0  0  0  0  0  0  0
   13.7590   -1.2751   -0.6676 H   0  0  0  0  0  0  0  0  0  0  0  0
   13.7164   -0.5846    0.9931 H   0  0  0  0  0  0  0  0  0  0  0  0
   15.1656    0.5787   -1.4484 H   0  0  0  0  0  0  0  0  0  0  0  0
   18.2319   -0.2914    0.0013 H   0  0  0  0  0  0  0  0  0  0  0  0
   16.8511    1.0230    2.4302 H   0  0  0  0  0  0  0  0  0  0  0  0
   18.6087    0.8935    2.1185 H   0  0  0  0  0  0  0  0  0  0  0  0
   17.6224   -0.5942    2.3645 H   0  0  0  0  0  0  0  0  0  0  0  0
   18.4298    2.2429   -0.0666 H   0  0  0  0  0  0  0  0  0  0  0  0
   18.3275    1.1706   -1.9686 H   0  0  0  0  0  0  0  0  0  0  0  0
   16.1521    3.3342   -0.6999 H   0  0  0  0  0  0  0  0  0  0  0  0
   16.5160    3.1689    1.0408 H   0  0  0  0  0  0  0  0  0  0  0  0
   14.9766    1.5503    1.4762 H   0  0  0  0  0  0  0  0  0  0  0  0
   12.6725    1.7133    1.4632 H   0  0  0  0  0  0  0  0  0  0  0  0
   11.6161    3.0127   -1.0868 H   0  0  0  0  0  0  0  0  0  0  0  0
   11.9281    3.9105    0.3769 H   0  0  0  0  0  0  0  0  0  0  0  0
    9.5631    3.2597   -0.0569 H   0  0  0  0  0  0  0  0  0  0  0  0
   10.1877    3.0951    1.6046 H   0  0  0  0  0  0  0  0  0  0  0  0
   10.1185    0.7954    1.6699 H   0  0  0  0  0  0  0  0  0  0  0  0
    7.9130   -0.3438    1.9576 H   0  0  0  0  0  0  0  0  0  0  0  0
    5.8602    1.3678    0.4804 H   0  0  0  0  0  0  0  0  0  0  0  0
    6.0136    1.1486    2.2563 H   0  0  0  0  0  0  0  0  0  0  0  0
    5.3286   -1.2768    1.9801 H   0  0  0  0  0  0  0  0  0  0  0  0
    2.7374   -1.7312    1.5030 H   0  0  0  0  0  0  0  0  0  0  0  0
    1.7411    0.8575    0.1811 H   0  0  0  0  0  0  0  0  0  0  0  0
    1.2968    0.2349    1.8098 H   0  0  0  0  0  0  0  0  0  0  0  0
    0.2886   -1.7396    0.7482 H   0  0  0  0  0  0  0  0  0  0  0  0
   -1.7992   -1.1407    2.3145 H   0  0  0  0  0  0  0  0  0  0  0  0
   -1.5146   -2.5266    1.2088 H   0  0  0  0  0  0  0  0  0  0  0  0
   -3.1137   -2.0058    1.4415 H   0  0  0  0  0  0  0  0  0  0  0  0
   -2.7113    1.4641   -0.2481 H   0  0  0  0  0  0  0  0  0  0  0  0
   -2.6345    1.0883    1.5052 H   0  0  0  0  0  0  0  0  0  0  0  0
   -4.4994   -0.5112    1.2359 H   0  0  0  0  0  0  0  0  0  0  0  0
   -6.5063   -0.0055    1.5221 H   0  0  0  0  0  0  0  0  0  0  0  0
   -6.8146    2.3566    2.3258 H   0  0  0  0  0  0  0  0  0  0  0  0
   -8.4165    2.6759    0.0043 H   0  0  0  0  0  0  0  0  0  0  0  0
   -9.3884    2.0099    2.3130 H   0  0  0  0  0  0  0  0  0  0  0  0
   -8.2817    0.9174    3.1899 H   0  0  0  0  0  0  0  0  0  0  0  0
   -8.4271   -0.8952    1.6149 H   0  0  0  0  0  0  0  0  0  0  0  0
  -10.1799   -2.3278    1.5149 H   0  0  0  0  0  0  0  0  0  0  0  0
  -11.9443   -3.3341    2.4117 H   0  0  0  0  0  0  0  0  0  0  0  0
  -11.1392   -1.5024    4.4335 H   0  0  0  0  0  0  0  0  0  0  0  0
  -13.2597   -0.6973    3.2207 H   0  0  0  0  0  0  0  0  0  0  0  0
  -13.6388   -2.3186    3.8976 H   0  0  0  0  0  0  0  0  0  0  0  0
  -14.1707   -3.2771    1.7011 H   0  0  0  0  0  0  0  0  0  0  0  0
  -15.5913   -0.9029    2.4196 H   0  0  0  0  0  0  0  0  0  0  0  0
  1  2  1  0  0  0  0
  1 74  1  0  0  0  0
  1 75  1  0  0  0  0
  1 76  1  0  0  0  0
  2  3  1  0  0  0  0
  2  5  2  0  0  0  0
  3  4  2  0  0  0  0
  3 77  1  0  0  0  0
  5  6  1  0  0  0  0
  5 78  1  0  0  0  0
  6  7  2  0  0  0  0
  6 79  1  0  0  0  0
  7  8  1  0  0  0  0
  7 80  1  0  0  0  0
  8 81  1  0  0  0  0
  8 82  1  0  0  0  0
  9  8  1  0  0  0  0
  9 10  1  0  0  0  0
  9 83  1  1  0  0  0
 10 11  1  0  0  0  0
 11 12  1  0  0  0  0
 11 84  1  1  0  0  0
 12 85  1  0  0  0  0
 12 86  1  0  0  0  0
 13 12  1  0  0  0  0
 13 14  1  0  0  0  0
 13 87  1  6  0  0  0
 14 15  1  0  0  0  0
 15 16  1  0  0  0  0
 15 88  1  6  0  0  0
 16 89  1  0  0  0  0
 16 90  1  0  0  0  0
 17 16  1  0  0  0  0
 17 18  1  0  0  0  0
 17 91  1  6  0  0  0
 18 19  1  0  0  0  0
 19 20  1  0  0  0  0
 19 92  1  6  0  0  0
 20 21  1  0  0  0  0
 20 93  1  0  0  0  0
 20 94  1  0  0  0  0
 21 95  1  0  0  0  0
 21 96  1  0  0  0  0
 22 21  1  0  0  0  0
 22 23  1  0  0  0  0
 22 97  1  6  0  0  0
 23 24  1  0  0  0  0
 24 25  1  0  0  0  0
 24 98  1  6  0  0  0
 25 99  1  0  0  0  0
 25100  1  0  0  0  0
 26 25  1  0  0  0  0
 26 27  1  0  0  0  0
 26101  1  6  0  0  0
 27 28  1  0  0  0  0
 28 29  1  0  0  0  0
 28102  1  6  0  0  0
 29 30  1  0  0  0  0
 29103  1  0  0  0  0
 29104  1  0  0  0  0
 30 31  1  6  0  0  0
 30 32  1  0  0  0  0
 31105  1  0  0  0  0
 31106  1  0  0  0  0
 31107  1  0  0  0  0
 32 33  1  0  0  0  0
 33 34  1  0  0  0  0
 33108  1  6  0  0  0
 34109  1  0  0  0  0
 34110  1  0  0  0  0
 35 34  1  0  0  0  0
 35 36  1  0  0  0  0
 35111  1  6  0  0  0
 36 37  1  0  0  0  0
 37 38  1  0  0  0  0
 37 39  1  0  0  0  0
 37112  1  6  0  0  0
 38113  1  0  0  0  0
 38114  1  0  0  0  0
 38115  1  0  0  0  0
 39 40  1  0  0  0  0
 39 41  1  0  0  0  0
 39116  1  1  0  0  0
 40117  1  0  0  0  0
 41118  1  0  0  0  0
 41119  1  0  0  0  0
 42 41  1  0  0  0  0
 42 43  1  0  0  0  0
 42 35  1  0  0  0  0
 42120  1  1  0  0  0
 43 44  1  0  0  0  0
 44 45  1  0  0  0  0
 44 33  1  0  0  0  0
 44121  1  1  0  0  0
 45 46  1  0  0  0  0
 45122  1  0  0  0  0
 45123  1  0  0  0  0
 46124  1  0  0  0  0
 46125  1  0  0  0  0
 47 46  1  0  0  0  0
 47 48  1  0  0  0  0
 47 30  1  0  0  0  0
 47126  1  1  0  0  0
 48 49  1  0  0  0  0
 49 50  1  0  0  0  0
 49 28  1  0  0  0  0
 49127  1  1  0  0  0
 50128  1  0  0  0  0
 50129  1  0  0  0  0
 51 50  1  0  0  0  0
 51 52  1  0  0  0  0
 51 26  1  0  0  0  0
 51130  1  1  0  0  0
 52 53  1  0  0  0  0
 53 54  1  0  0  0  0
 53 24  1  0  0  0  0
 53131  1  1  0  0  0
 54132  1  0  0  0  0
 54133  1  0  0  0  0
 55 54  1  0  0  0  0
 55 56  1  0  0  0  0
 55 22  1  0  0  0  0
 55134  1  1  0  0  0
 56 57  1  0  0  0  0
 57 58  1  1  0  0  0
 57 59  1  0  0  0  0
 57 19  1  0  0  0  0
 58135  1  0  0  0  0
 58136  1  0  0  0  0
 58137  1  0  0  0  0
 59138  1  0  0  0  0
 59139  1  0  0  0  0
 60 59  1  0  0  0  0
 60 61  1  0  0  0  0
 60 17  1  0  0  0  0
 60140  1  1  0  0  0
 62 61  1  0  0  0  0
 62 63  1  0  0  0  0
 62 15  1  0  0  0  0
 62141  1  1  0  0  0
 63 64  1  0  0  0  0
 63 65  1  0  0  0  0
 63142  1  1  0  0  0
 64143  1  0  0  0  0
 65144  1  0  0  0  0
 65145  1  0  0  0  0
 66 65  1  0  0  0  0
 66 67  1  0  0  0  0
 66 13  1  0  0  0  0
 66146  1  1  0  0  0
 68 67  1  0  0  0  0
 68 69  1  0  0  0  0
 68 11  1  0  0  0  0
 68147  1  6  0  0  0
 69 70  1  0  0  0  0
 69 71  1  0  0  0  0
 69148  1  6  0  0  0
 70149  1  0  0  0  0
 71 72  1  0  0  0  0
 71150  1  0  0  0  0
 71151  1  0  0  0  0
 72 73  1  0  0  0  0
 72  9  1  0  0  0  0
 72152  1  6  0  0  0
 73153  1  0  0  0  0
M  END
>  <IDENTIFIER>
CNP0184035.1

>  <Energy>
2130.07

$$$$
