
 OpenBabel09102508003D

102108  0  0  0  0  0  0  0  0999 V2000
    4.6663   -3.0295    0.3336 C   0  0  0  0  0  0  0  0  0  0  0  0
    4.3679   -1.5855   -0.0566 C   0  0  1  0  0  0  0  0  0  0  0  0
    3.0566   -1.2372    0.3389 O   0  0  0  0  0  0  0  0  0  0  0  0
    2.6433   -0.0077   -0.2726 C   0  0  1  0  0  0  0  0  0  0  0  0
    1.6097    0.5353    0.5285 O   0  0  0  0  0  0  0  0  0  0  0  0
    0.3643    0.6206   -0.1486 C   0  0  1  0  0  0  0  0  0  0  0  0
   -0.4473   -0.6812    0.0806 C   0  0  0  0  0  0  0  0  0  0  0  0
   -1.3316   -0.5229    1.3032 C   0  0  0  0  0  0  0  0  0  0  0  0
   -2.4658    0.5557    1.0734 C   0  0  2  0  0  0  0  0  0  0  0  0
   -2.8651    0.9272    2.5160 C   0  0  0  0  0  0  0  0  0  0  0  0
   -2.7636    2.0518    2.9784 O   0  0  0  0  0  0  0  0  0  0  0  0
   -3.7391   -0.0762    0.2838 C   0  0  1  0  0  0  0  0  0  0  0  0
   -4.5775   -1.0859    1.1475 C   0  0  2  0  0  0  0  0  0  0  0  0
   -3.8647   -2.2634    1.4240 O   0  0  0  0  0  0  0  0  0  0  0  0
   -5.9067   -1.4605    0.4914 C   0  0  0  0  0  0  0  0  0  0  0  0
   -6.8255   -0.2224    0.1904 C   0  0  2  0  0  0  0  0  0  0  0  0
   -7.2473    0.4181    1.5434 C   0  0  0  0  0  0  0  0  0  0  0  0
   -8.0317   -0.7431   -0.6860 C   0  0  1  0  0  0  0  0  0  0  0  0
   -9.4454   -0.3344   -0.2776 C   0  0  0  0  0  0  0  0  0  0  0  0
  -10.3322   -1.1903    0.2141 C   0  0  0  0  0  0  0  0  0  0  0  0
  -11.5243   -0.4264    0.4776 C   0  0  0  0  0  0  0  0  0  0  0  0
  -12.5538   -0.8732    0.9558 O   0  0  0  0  0  0  0  0  0  0  0  0
  -11.3617    0.8595    0.1323 O   0  0  0  0  0  0  0  0  0  0  0  0
  -10.0858    1.0438   -0.3650 C   0  0  0  0  0  0  0  0  0  0  0  0
   -7.7037   -0.3087   -2.1293 C   0  0  0  0  0  0  0  0  0  0  0  0
   -6.2146    0.0309   -2.1147 C   0  0  0  0  0  0  0  0  0  0  0  0
   -6.0722    0.7637   -0.7499 C   0  0  1  0  0  0  0  0  0  0  0  0
   -6.8030    1.9740   -0.8084 O   0  0  0  0  0  0  0  0  0  0  0  0
   -4.6169    1.0990   -0.2482 C   0  0  2  0  0  0  0  0  0  0  0  0
   -3.8334    1.9008   -1.3392 C   0  0  0  0  0  0  0  0  0  0  0  0
   -2.3028    1.7879   -1.2168 C   0  0  0  0  0  0  0  0  0  0  0  0
   -1.8824    1.8450    0.2619 C   0  0  1  0  0  0  0  0  0  0  0  0
   -2.4108    3.0535    0.7708 O   0  0  0  0  0  0  0  0  0  0  0  0
   -0.3441    1.8860    0.4009 C   0  0  0  0  0  0  0  0  0  0  0  0
    3.7744    1.0609   -0.3443 C   0  0  0  0  0  0  0  0  0  0  0  0
    4.7459    0.7753    0.8050 C   0  0  2  0  0  0  0  0  0  0  0  0
    5.6982    1.7919    0.9891 O   0  0  0  0  0  0  0  0  0  0  0  0
    5.4162   -0.5966    0.5379 C   0  0  2  0  0  0  0  0  0  0  0  0
    6.4198   -0.4409   -0.4538 O   0  0  0  0  0  0  0  0  0  0  0  0
    7.7240   -0.7692   -0.0231 C   0  0  2  0  0  0  0  0  0  0  0  0
    8.3237    0.4123    0.5221 O   0  0  0  0  0  0  0  0  0  0  0  0
    9.7547    0.4902    0.4555 C   0  0  2  0  0  0  0  0  0  0  0  0
   10.1939    1.5252   -0.5983 C   0  0  0  0  0  0  0  0  0  0  0  0
    9.6748    2.7901   -0.2869 O   0  0  0  0  0  0  0  0  0  0  0  0
   10.4418   -0.8827    0.2673 C   0  0  1  0  0  0  0  0  0  0  0  0
   10.1007   -1.6790    1.3765 O   0  0  0  0  0  0  0  0  0  0  0  0
    9.9647   -1.5680   -1.0301 C   0  0  2  0  0  0  0  0  0  0  0  0
   10.7246   -1.1159   -2.1236 O   0  0  0  0  0  0  0  0  0  0  0  0
    8.4671   -1.2678   -1.2804 C   0  0  1  0  0  0  0  0  0  0  0  0
    7.8275   -2.3672   -1.8770 O   0  0  0  0  0  0  0  0  0  0  0  0
    3.9211   -3.7092   -0.1326 H   0  0  0  0  0  0  0  0  0  0  0  0
    4.6134   -3.1508    1.4367 H   0  0  0  0  0  0  0  0  0  0  0  0
    5.6795   -3.3262   -0.0134 H   0  0  0  0  0  0  0  0  0  0  0  0
    4.4034   -1.5453   -1.1731 H   0  0  0  0  0  0  0  0  0  0  0  0
    2.3187   -0.2152   -1.3201 H   0  0  0  0  0  0  0  0  0  0  0  0
    0.4715    0.7530   -1.2510 H   0  0  0  0  0  0  0  0  0  0  0  0
    0.2510   -1.5407    0.1763 H   0  0  0  0  0  0  0  0  0  0  0  0
   -1.1041   -0.9216   -0.7763 H   0  0  0  0  0  0  0  0  0  0  0  0
   -0.6465   -0.2156    2.1277 H   0  0  0  0  0  0  0  0  0  0  0  0
   -1.7314   -1.4932    1.6294 H   0  0  0  0  0  0  0  0  0  0  0  0
   -3.1928    0.1488    3.1945 H   0  0  0  0  0  0  0  0  0  0  0  0
   -3.4185   -0.6321   -0.6241 H   0  0  0  0  0  0  0  0  0  0  0  0
   -4.8473   -0.6403    2.1135 H   0  0  0  0  0  0  0  0  0  0  0  0
   -3.6262   -2.6828    0.5550 H   0  0  0  0  0  0  0  0  0  0  0  0
   -6.4518   -2.1647    1.1593 H   0  0  0  0  0  0  0  0  0  0  0  0
   -5.6760   -2.0424   -0.4223 H   0  0  0  0  0  0  0  0  0  0  0  0
   -7.7884   -0.3233    2.1689 H   0  0  0  0  0  0  0  0  0  0  0  0
   -7.8927    1.2958    1.4055 H   0  0  0  0  0  0  0  0  0  0  0  0
   -6.3864    0.8060    2.1184 H   0  0  0  0  0  0  0  0  0  0  0  0
   -8.0051   -1.8565   -0.6481 H   0  0  0  0  0  0  0  0  0  0  0  0
  -10.1799   -2.2470    0.3938 H   0  0  0  0  0  0  0  0  0  0  0  0
   -9.5650    1.8100    0.2342 H   0  0  0  0  0  0  0  0  0  0  0  0
  -10.1469    1.3902   -1.4165 H   0  0  0  0  0  0  0  0  0  0  0  0
   -8.2079    0.6586   -2.3368 H   0  0  0  0  0  0  0  0  0  0  0  0
   -8.0393   -1.0144   -2.9185 H   0  0  0  0  0  0  0  0  0  0  0  0
   -5.9394    0.6352   -3.0042 H   0  0  0  0  0  0  0  0  0  0  0  0
   -5.6064   -0.8910   -2.1567 H   0  0  0  0  0  0  0  0  0  0  0  0
   -6.4856    2.4942   -1.5917 H   0  0  0  0  0  0  0  0  0  0  0  0
   -4.7484    1.7431    0.6491 H   0  0  0  0  0  0  0  0  0  0  0  0
   -4.1647    2.9601   -1.2795 H   0  0  0  0  0  0  0  0  0  0  0  0
   -4.0444    1.5473   -2.3670 H   0  0  0  0  0  0  0  0  0  0  0  0
   -1.8362    2.5939   -1.8249 H   0  0  0  0  0  0  0  0  0  0  0  0
   -1.9745    0.8339   -1.6670 H   0  0  0  0  0  0  0  0  0  0  0  0
   -2.0001    3.8137    0.2782 H   0  0  0  0  0  0  0  0  0  0  0  0
   -0.1459    1.9654    1.4925 H   0  0  0  0  0  0  0  0  0  0  0  0
    0.1098    2.7870   -0.0679 H   0  0  0  0  0  0  0  0  0  0  0  0
    3.3395    2.0832   -0.3103 H   0  0  0  0  0  0  0  0  0  0  0  0
    4.3445    0.9699   -1.2952 H   0  0  0  0  0  0  0  0  0  0  0  0
    4.1355    0.7244    1.7336 H   0  0  0  0  0  0  0  0  0  0  0  0
    6.0706    2.0279    0.1003 H   0  0  0  0  0  0  0  0  0  0  0  0
    5.7976   -0.9318    1.5329 H   0  0  0  0  0  0  0  0  0  0  0  0
    7.7198   -1.5894    0.7310 H   0  0  0  0  0  0  0  0  0  0  0  0
   10.1083    0.8737    1.4379 H   0  0  0  0  0  0  0  0  0  0  0  0
    9.8995    1.2368   -1.6298 H   0  0  0  0  0  0  0  0  0  0  0  0
   11.3025    1.6013   -0.6013 H   0  0  0  0  0  0  0  0  0  0  0  0
    8.7828    2.8491   -0.7184 H   0  0  0  0  0  0  0  0  0  0  0  0
   11.5516   -0.7651    0.2591 H   0  0  0  0  0  0  0  0  0  0  0  0
   10.7482   -2.4313    1.4065 H   0  0  0  0  0  0  0  0  0  0  0  0
   10.1629   -2.6557   -0.8956 H   0  0  0  0  0  0  0  0  0  0  0  0
   10.3946   -1.5960   -2.9277 H   0  0  0  0  0  0  0  0  0  0  0  0
    8.3957   -0.4148   -1.9895 H   0  0  0  0  0  0  0  0  0  0  0  0
    7.8253   -3.0999   -1.2065 H   0  0  0  0  0  0  0  0  0  0  0  0
  1 51  1  0  0  0  0
  1 52  1  0  0  0  0
  1 53  1  0  0  0  0
  2  1  1  0  0  0  0
  2  3  1  0  0  0  0
  2 54  1  6  0  0  0
  3  4  1  0  0  0  0
  4  5  1  0  0  0  0
  4 35  1  0  0  0  0
  4 55  1  6  0  0  0
  6  5  1  0  0  0  0
  6  7  1  0  0  0  0
  6 56  1  6  0  0  0
  7  8  1  0  0  0  0
  7 57  1  0  0  0  0
  7 58  1  0  0  0  0
  8  9  1  0  0  0  0
  8 59  1  0  0  0  0
  8 60  1  0  0  0  0
  9 10  1  1  0  0  0
  9 12  1  0  0  0  0
 10 11  2  0  0  0  0
 10 61  1  0  0  0  0
 12 13  1  0  0  0  0
 12 62  1  6  0  0  0
 13 14  1  0  0  0  0
 13 15  1  0  0  0  0
 13 63  1  1  0  0  0
 14 64  1  0  0  0  0
 15 16  1  0  0  0  0
 15 65  1  0  0  0  0
 15 66  1  0  0  0  0
 16 17  1  1  0  0  0
 16 18  1  0  0  0  0
 17 67  1  0  0  0  0
 17 68  1  0  0  0  0
 17 69  1  0  0  0  0
 18 19  1  0  0  0  0
 18 25  1  0  0  0  0
 18 70  1  1  0  0  0
 19 20  2  0  0  0  0
 20 21  1  0  0  0  0
 20 71  1  0  0  0  0
 21 22  2  0  0  0  0
 21 23  1  0  0  0  0
 23 24  1  0  0  0  0
 24 19  1  0  0  0  0
 24 72  1  0  0  0  0
 24 73  1  0  0  0  0
 25 26  1  0  0  0  0
 25 74  1  0  0  0  0
 25 75  1  0  0  0  0
 26 27  1  0  0  0  0
 26 76  1  0  0  0  0
 26 77  1  0  0  0  0
 27 28  1  6  0  0  0
 27 29  1  0  0  0  0
 27 16  1  0  0  0  0
 28 78  1  0  0  0  0
 29 30  1  0  0  0  0
 29 12  1  0  0  0  0
 29 79  1  1  0  0  0
 30 31  1  0  0  0  0
 30 80  1  0  0  0  0
 30 81  1  0  0  0  0
 31 32  1  0  0  0  0
 31 82  1  0  0  0  0
 31 83  1  0  0  0  0
 32 33  1  1  0  0  0
 32 34  1  0  0  0  0
 32  9  1  0  0  0  0
 33 84  1  0  0  0  0
 34  6  1  0  0  0  0
 34 85  1  0  0  0  0
 34 86  1  0  0  0  0
 35 36  1  0  0  0  0
 35 87  1  0  0  0  0
 35 88  1  0  0  0  0
 36 37  1  0  0  0  0
 36 38  1  0  0  0  0
 36 89  1  1  0  0  0
 37 90  1  0  0  0  0
 38 39  1  0  0  0  0
 38  2  1  0  0  0  0
 38 91  1  1  0  0  0
 40 39  1  0  0  0  0
 40 41  1  0  0  0  0
 40 92  1  1  0  0  0
 41 42  1  0  0  0  0
 42 43  1  0  0  0  0
 42 45  1  0  0  0  0
 42 93  1  1  0  0  0
 43 44  1  0  0  0  0
 43 94  1  0  0  0  0
 43 95  1  0  0  0  0
 44 96  1  0  0  0  0
 45 46  1  0  0  0  0
 45 47  1  0  0  0  0
 45 97  1  6  0  0  0
 46 98  1  0  0  0  0
 47 48  1  0  0  0  0
 47 49  1  0  0  0  0
 47 99  1  1  0  0  0
 48100  1  0  0  0  0
 49 50  1  0  0  0  0
 49 40  1  0  0  0  0
 49101  1  6  0  0  0
 50102  1  0  0  0  0
M  END
>  <IDENTIFIER>
CNP0490429.1

>  <Energy>
1628.25

$$$$
