
 OpenBabel09052520163D

102109  0  0  0  0  0  0  0  0999 V2000
   -4.3881   -2.8525   -2.6378 C   0  0  0  0  0  0  0  0  0  0  0  0
   -4.1121   -1.5982   -2.0553 O   0  0  0  0  0  0  0  0  0  0  0  0
   -4.6402   -1.5214   -0.7377 C   0  0  1  0  0  0  0  0  0  0  0  0
   -3.5180   -1.8047    0.2898 C   0  0  2  0  0  0  0  0  0  0  0  0
   -4.0369   -1.9367    1.5957 O   0  0  0  0  0  0  0  0  0  0  0  0
   -2.4614   -0.6793    0.1775 C   0  0  2  0  0  0  0  0  0  0  0  0
   -1.3823   -0.9325    1.0656 O   0  0  0  0  0  0  0  0  0  0  0  0
   -0.1691   -0.3314    0.6126 C   0  0  1  0  0  0  0  0  0  0  0  0
    0.1677    0.9068    1.4602 C   0  0  0  0  0  0  0  0  0  0  0  0
    1.5247    1.5191    1.0207 C   0  0  0  0  0  0  0  0  0  0  0  0
    2.7262    0.5061    1.0856 C   0  0  1  0  0  0  0  0  0  0  0  0
    2.9141    0.1233    2.5851 C   0  0  0  0  0  0  0  0  0  0  0  0
    2.3322   -0.7730    0.2501 C   0  0  1  0  0  0  0  0  0  0  0  0
    0.9701   -1.3748    0.6925 C   0  0  0  0  0  0  0  0  0  0  0  0
    2.3774   -0.5601   -1.3174 C   0  0  0  0  0  0  0  0  0  0  0  0
    3.2380    0.6307   -1.8236 C   0  0  2  0  0  0  0  0  0  0  0  0
    4.5184    1.1893   -2.0585 O   0  0  0  0  0  0  0  0  0  0  0  0
    4.4615    0.4862   -0.8840 C   0  0  1  0  0  0  0  0  0  0  0  0
    4.0652    1.1708    0.4491 C   0  0  2  0  0  0  0  0  0  0  0  0
    5.3593    1.3748    1.2744 C   0  0  0  0  0  0  0  0  0  0  0  0
    6.1226    0.0831    1.5743 C   0  0  0  0  0  0  0  0  0  0  0  0
    6.4764   -0.8207    0.3451 C   0  0  2  0  0  0  0  0  0  0  0  0
    6.4213   -2.2841    0.9173 C   0  0  0  0  0  0  0  0  0  0  0  0
    7.9468   -0.6541   -0.1885 C   0  0  2  0  0  0  0  0  0  0  0  0
    8.6170    0.7274   -0.0933 C   0  0  0  0  0  0  0  0  0  0  0  0
    9.5943    0.9662    0.7787 C   0  0  0  0  0  0  0  0  0  0  0  0
   10.0161    2.3240    0.5665 C   0  0  0  0  0  0  0  0  0  0  0  0
   10.8991    2.8921    1.1885 O   0  0  0  0  0  0  0  0  0  0  0  0
    9.3241    2.8921   -0.4293 O   0  0  0  0  0  0  0  0  0  0  0  0
    8.4198    1.9789   -0.9367 C   0  0  0  0  0  0  0  0  0  0  0  0
    7.8415   -1.1551   -1.6287 C   0  0  0  0  0  0  0  0  0  0  0  0
    6.5608   -0.4918   -2.0975 C   0  0  0  0  0  0  0  0  0  0  0  0
    5.5219   -0.7044   -0.9383 C   0  0  2  0  0  0  0  0  0  0  0  0
    4.8688   -1.9410   -1.1390 O   0  0  0  0  0  0  0  0  0  0  0  0
   -3.0390    0.5853    0.4905 O   0  0  0  0  0  0  0  0  0  0  0  0
   -4.0667    0.9563   -0.4238 C   0  0  1  0  0  0  0  0  0  0  0  0
   -3.4890    1.3938   -1.7841 C   0  0  0  0  0  0  0  0  0  0  0  0
   -5.2043   -0.1053   -0.5111 C   0  0  2  0  0  0  0  0  0  0  0  0
   -5.9495   -0.0953    0.7054 O   0  0  0  0  0  0  0  0  0  0  0  0
   -7.3589    0.0005    0.5126 C   0  0  2  0  0  0  0  0  0  0  0  0
   -7.8220    1.2185    1.0839 O   0  0  0  0  0  0  0  0  0  0  0  0
   -9.1399    1.4683    0.6114 C   0  0  2  0  0  0  0  0  0  0  0  0
   -9.5328    2.9131    0.9522 C   0  0  0  0  0  0  0  0  0  0  0  0
  -10.8123    3.2197    0.4660 O   0  0  0  0  0  0  0  0  0  0  0  0
  -10.1343    0.4464    1.2247 C   0  0  1  0  0  0  0  0  0  0  0  0
  -11.3290    0.4104    0.4840 O   0  0  0  0  0  0  0  0  0  0  0  0
   -9.5410   -0.9395    1.3859 C   0  0  0  0  0  0  0  0  0  0  0  0
  -10.2340   -1.8273    1.8603 O   0  0  0  0  0  0  0  0  0  0  0  0
   -8.0605   -1.1914    1.1873 C   0  0  1  0  0  0  0  0  0  0  0  0
   -7.8351   -2.3745    0.4628 O   0  0  0  0  0  0  0  0  0  0  0  0
   -3.8631   -2.9083   -3.6128 H   0  0  0  0  0  0  0  0  0  0  0  0
   -5.4767   -2.9622   -2.8369 H   0  0  0  0  0  0  0  0  0  0  0  0
   -4.0037   -3.6875   -2.0113 H   0  0  0  0  0  0  0  0  0  0  0  0
   -5.4783   -2.2460   -0.5981 H   0  0  0  0  0  0  0  0  0  0  0  0
   -3.0326   -2.7721    0.0391 H   0  0  0  0  0  0  0  0  0  0  0  0
   -4.0420   -1.0526    2.0443 H   0  0  0  0  0  0  0  0  0  0  0  0
   -2.1044   -0.7266   -0.8739 H   0  0  0  0  0  0  0  0  0  0  0  0
   -0.2339    0.0289   -0.4327 H   0  0  0  0  0  0  0  0  0  0  0  0
    0.1689    0.6403    2.5338 H   0  0  0  0  0  0  0  0  0  0  0  0
   -0.6306    1.6690    1.3331 H   0  0  0  0  0  0  0  0  0  0  0  0
    1.7451    2.4118    1.6456 H   0  0  0  0  0  0  0  0  0  0  0  0
    1.3748    1.8829   -0.0119 H   0  0  0  0  0  0  0  0  0  0  0  0
    1.9958   -0.2380    3.0737 H   0  0  0  0  0  0  0  0  0  0  0  0
    3.2619    0.9928    3.1800 H   0  0  0  0  0  0  0  0  0  0  0  0
    3.5767   -0.7406    2.7147 H   0  0  0  0  0  0  0  0  0  0  0  0
    3.1201   -1.5219    0.4682 H   0  0  0  0  0  0  0  0  0  0  0  0
    1.0405   -1.7405    1.7379 H   0  0  0  0  0  0  0  0  0  0  0  0
    0.7291   -2.2578    0.0609 H   0  0  0  0  0  0  0  0  0  0  0  0
    1.3779   -0.3060   -1.7102 H   0  0  0  0  0  0  0  0  0  0  0  0
    2.5873   -1.5211   -1.8247 H   0  0  0  0  0  0  0  0  0  0  0  0
    2.6326    1.5452   -1.6800 H   0  0  0  0  0  0  0  0  0  0  0  0
    3.7778    2.2214    0.2110 H   0  0  0  0  0  0  0  0  0  0  0  0
    5.1340    1.9170    2.2163 H   0  0  0  0  0  0  0  0  0  0  0  0
    6.0299    2.0346    0.7023 H   0  0  0  0  0  0  0  0  0  0  0  0
    5.5025   -0.4737    2.2727 H   0  0  0  0  0  0  0  0  0  0  0  0
    7.0367    0.2876    2.1728 H   0  0  0  0  0  0  0  0  0  0  0  0
    7.1117   -2.3968    1.7825 H   0  0  0  0  0  0  0  0  0  0  0  0
    6.6982   -3.0555    0.1707 H   0  0  0  0  0  0  0  0  0  0  0  0
    5.3974   -2.5283    1.2771 H   0  0  0  0  0  0  0  0  0  0  0  0
    8.6365   -1.3131    0.3884 H   0  0  0  0  0  0  0  0  0  0  0  0
    9.9946    0.2714    1.5066 H   0  0  0  0  0  0  0  0  0  0  0  0
    8.6741    1.7753   -1.9986 H   0  0  0  0  0  0  0  0  0  0  0  0
    7.3981    2.3894   -0.8745 H   0  0  0  0  0  0  0  0  0  0  0  0
    7.6771   -2.2529   -1.6476 H   0  0  0  0  0  0  0  0  0  0  0  0
    8.7348   -0.9341   -2.2517 H   0  0  0  0  0  0  0  0  0  0  0  0
    6.2151   -0.8093   -3.1045 H   0  0  0  0  0  0  0  0  0  0  0  0
    6.7869    0.5788   -2.1988 H   0  0  0  0  0  0  0  0  0  0  0  0
    4.7085   -2.0776   -2.1086 H   0  0  0  0  0  0  0  0  0  0  0  0
   -4.5420    1.8794   -0.0263 H   0  0  0  0  0  0  0  0  0  0  0  0
   -2.9960    0.5791   -2.3439 H   0  0  0  0  0  0  0  0  0  0  0  0
   -2.7431    2.2014   -1.6216 H   0  0  0  0  0  0  0  0  0  0  0  0
   -4.3020    1.7976   -2.4231 H   0  0  0  0  0  0  0  0  0  0  0  0
   -5.8253    0.1827   -1.3887 H   0  0  0  0  0  0  0  0  0  0  0  0
   -7.6534   -0.0575   -0.5633 H   0  0  0  0  0  0  0  0  0  0  0  0
   -9.1616    1.4042   -0.5019 H   0  0  0  0  0  0  0  0  0  0  0  0
   -8.7853    3.6247    0.5331 H   0  0  0  0  0  0  0  0  0  0  0  0
   -9.5273    3.0568    2.0541 H   0  0  0  0  0  0  0  0  0  0  0  0
  -10.7103    3.4038   -0.5043 H   0  0  0  0  0  0  0  0  0  0  0  0
  -10.3792    0.7584    2.2630 H   0  0  0  0  0  0  0  0  0  0  0  0
  -11.1115    0.0324   -0.4086 H   0  0  0  0  0  0  0  0  0  0  0  0
   -7.6440   -1.3289    2.2090 H   0  0  0  0  0  0  0  0  0  0  0  0
   -8.3128   -2.2911   -0.4046 H   0  0  0  0  0  0  0  0  0  0  0  0
  1  2  1  0  0  0  0
  1 51  1  0  0  0  0
  1 52  1  0  0  0  0
  1 53  1  0  0  0  0
  3  2  1  0  0  0  0
  3  4  1  0  0  0  0
  3 54  1  1  0  0  0
  4  5  1  0  0  0  0
  4  6  1  0  0  0  0
  4 55  1  6  0  0  0
  5 56  1  0  0  0  0
  6  7  1  0  0  0  0
  6 35  1  0  0  0  0
  6 57  1  6  0  0  0
  8  7  1  0  0  0  0
  8  9  1  0  0  0  0
  8 58  1  6  0  0  0
  9 10  1  0  0  0  0
  9 59  1  0  0  0  0
  9 60  1  0  0  0  0
 10 11  1  0  0  0  0
 10 61  1  0  0  0  0
 10 62  1  0  0  0  0
 11 12  1  1  0  0  0
 11 13  1  0  0  0  0
 12 63  1  0  0  0  0
 12 64  1  0  0  0  0
 12 65  1  0  0  0  0
 13 14  1  0  0  0  0
 13 15  1  0  0  0  0
 13 66  1  1  0  0  0
 14  8  1  0  0  0  0
 14 67  1  0  0  0  0
 14 68  1  0  0  0  0
 15 69  1  0  0  0  0
 15 70  1  0  0  0  0
 16 15  1  0  0  0  0
 16 17  1  0  0  0  0
 16 71  1  1  0  0  0
 18 17  1  6  0  0  0
 18 19  1  0  0  0  0
 18 16  1  0  0  0  0
 19 20  1  0  0  0  0
 19 11  1  0  0  0  0
 19 72  1  6  0  0  0
 20 21  1  0  0  0  0
 20 73  1  0  0  0  0
 20 74  1  0  0  0  0
 21 22  1  0  0  0  0
 21 75  1  0  0  0  0
 21 76  1  0  0  0  0
 22 23  1  1  0  0  0
 22 24  1  0  0  0  0
 23 77  1  0  0  0  0
 23 78  1  0  0  0  0
 23 79  1  0  0  0  0
 24 25  1  0  0  0  0
 24 31  1  0  0  0  0
 24 80  1  1  0  0  0
 25 26  2  0  0  0  0
 26 27  1  0  0  0  0
 26 81  1  0  0  0  0
 27 28  2  0  0  0  0
 27 29  1  0  0  0  0
 29 30  1  0  0  0  0
 30 25  1  0  0  0  0
 30 82  1  0  0  0  0
 30 83  1  0  0  0  0
 31 32  1  0  0  0  0
 31 84  1  0  0  0  0
 31 85  1  0  0  0  0
 32 33  1  0  0  0  0
 32 86  1  0  0  0  0
 32 87  1  0  0  0  0
 33 34  1  6  0  0  0
 33 22  1  0  0  0  0
 33 18  1  0  0  0  0
 34 88  1  0  0  0  0
 35 36  1  0  0  0  0
 36 37  1  0  0  0  0
 36 38  1  0  0  0  0
 36 89  1  1  0  0  0
 37 90  1  0  0  0  0
 37 91  1  0  0  0  0
 37 92  1  0  0  0  0
 38 39  1  0  0  0  0
 38  3  1  0  0  0  0
 38 93  1  6  0  0  0
 40 39  1  0  0  0  0
 40 41  1  0  0  0  0
 40 94  1  6  0  0  0
 41 42  1  0  0  0  0
 42 43  1  0  0  0  0
 42 45  1  0  0  0  0
 42 95  1  6  0  0  0
 43 44  1  0  0  0  0
 43 96  1  0  0  0  0
 43 97  1  0  0  0  0
 44 98  1  0  0  0  0
 45 46  1  0  0  0  0
 45 47  1  0  0  0  0
 45 99  1  1  0  0  0
 46100  1  0  0  0  0
 47 48  2  0  0  0  0
 47 49  1  0  0  0  0
 49 50  1  0  0  0  0
 49 40  1  0  0  0  0
 49101  1  1  0  0  0
 50102  1  0  0  0  0
M  END
>  <IDENTIFIER>
CNP0166209.1

>  <Energy>
3259.04

$$$$
