
 OpenBabel09122522483D

111119  0  0  0  0  0  0  0  0999 V2000
   12.5994   -0.6342   -3.2138 C   0  0  0  0  0  0  0  0  0  0  0  0
   11.0769   -0.8228   -3.2175 C   0  0  2  0  0  0  0  0  0  0  0  0
   10.5025   -0.3827   -1.9810 O   0  0  0  0  0  0  0  0  0  0  0  0
   10.5468   -1.4245   -1.0054 C   0  0  1  0  0  0  0  0  0  0  0  0
   10.4034   -0.9147    0.3037 O   0  0  0  0  0  0  0  0  0  0  0  0
    9.0847   -0.4513    0.4594 C   0  0  2  0  0  0  0  0  0  0  0  0
    8.8865    0.2221    1.8311 C   0  0  1  0  0  0  0  0  0  0  0  0
    9.8974    1.3509    2.0377 C   0  0  0  0  0  0  0  0  0  0  0  0
    7.5842    0.7803    1.8979 O   0  0  0  0  0  0  0  0  0  0  0  0
    6.5761   -0.2185    1.8220 C   0  0  1  0  0  0  0  0  0  0  0  0
    5.2314    0.4973    1.7791 C   0  0  0  0  0  0  0  0  0  0  0  0
    5.0009    1.3898    0.7231 C   0  0  0  0  0  0  0  0  0  0  0  0
    3.7917    2.0407    0.5910 C   0  0  0  0  0  0  0  0  0  0  0  0
    2.7680    1.8426    1.5218 C   0  0  0  0  0  0  0  0  0  0  0  0
    1.4760    2.5410    1.3221 C   0  0  0  0  0  0  0  0  0  0  0  0
    1.3300    3.2399    0.3300 O   0  0  0  0  0  0  0  0  0  0  0  0
    0.3533    2.3926    2.2977 C   0  0  0  0  0  0  0  0  0  0  0  0
    0.5396    1.5966    3.3771 C   0  0  0  0  0  0  0  0  0  0  0  0
   -0.5354    1.4100    4.3697 C   0  0  0  0  0  0  0  0  0  0  0  0
   -1.7040    2.0338    4.2862 C   0  0  0  0  0  0  0  0  0  0  0  0
   -2.0789    2.9847    3.1783 C   0  0  2  0  0  0  0  0  0  0  0  0
   -2.2270    4.2525    3.7862 O   0  0  0  0  0  0  0  0  0  0  0  0
   -3.4605    2.5637    2.5784 C   0  0  0  0  0  0  0  0  0  0  0  0
   -3.4851    1.2261    1.7512 C   0  0  1  0  0  0  0  0  0  0  0  0
   -3.5848    0.0129    2.7234 C   0  0  0  0  0  0  0  0  0  0  0  0
   -4.6630    1.3403    0.9428 O   0  0  0  0  0  0  0  0  0  0  0  0
   -4.9969    0.2020    0.1517 C   0  0  1  0  0  0  0  0  0  0  0  0
   -6.3579   -0.3545    0.6818 C   0  0  0  0  0  0  0  0  0  0  0  0
   -7.4659    0.4932    0.0946 C   0  0  0  0  0  0  0  0  0  0  0  0
   -7.4407    0.3975   -1.4478 C   0  0  2  0  0  0  0  0  0  0  0  0
   -8.3864   -0.5613   -1.9191 O   0  0  0  0  0  0  0  0  0  0  0  0
   -9.3598   -0.0119   -2.8101 C   0  0  1  0  0  0  0  0  0  0  0  0
   -9.3984   -0.7906   -4.1523 C   0  0  0  0  0  0  0  0  0  0  0  0
  -10.4152   -1.9431   -4.1386 C   0  0  0  0  0  0  0  0  0  0  0  0
  -10.5331   -2.4732   -2.7129 C   0  0  2  0  0  0  0  0  0  0  0  0
  -11.3172   -3.6408   -2.6233 O   0  0  0  0  0  0  0  0  0  0  0  0
  -11.0802   -1.3154   -1.7996 C   0  0  2  0  0  0  0  0  0  0  0  0
  -12.6146   -1.2545   -1.8096 C   0  0  0  0  0  0  0  0  0  0  0  0
  -10.6239   -0.0064   -2.1752 O   0  0  0  0  0  0  0  0  0  0  0  0
   -6.0235    0.0530   -2.0073 C   0  0  2  0  0  0  0  0  0  0  0  0
   -5.7208   -1.4412   -2.2761 C   0  0  0  0  0  0  0  0  0  0  0  0
   -5.0025    0.6350   -1.2158 O   0  0  0  0  0  0  0  0  0  0  0  0
   -2.1948    1.1210    0.8639 C   0  0  0  0  0  0  0  0  0  0  0  0
   -1.5457    2.4660    0.7250 C   0  0  0  0  0  0  0  0  0  0  0  0
   -1.5394    3.0340   -0.3571 O   0  0  0  0  0  0  0  0  0  0  0  0
   -0.9871    3.1113    2.0110 C   0  0  2  0  0  0  0  0  0  0  0  0
   -0.7205    4.4934    1.8310 O   0  0  0  0  0  0  0  0  0  0  0  0
    1.8287    0.8621    3.5947 C   0  0  0  0  0  0  0  0  0  0  0  0
    1.9281    0.1575    4.5846 O   0  0  0  0  0  0  0  0  0  0  0  0
    2.9668    0.9852    2.6272 C   0  0  0  0  0  0  0  0  0  0  0  0
    4.2229    0.2923    2.7499 C   0  0  0  0  0  0  0  0  0  0  0  0
    4.5033   -0.5687    3.7566 O   0  0  0  0  0  0  0  0  0  0  0  0
    6.7081   -1.0839    0.5367 C   0  0  0  0  0  0  0  0  0  0  0  0
    8.1190   -1.6407    0.3682 C   0  0  1  0  0  0  0  0  0  0  0  0
    8.1874   -2.2698   -0.8967 O   0  0  0  0  0  0  0  0  0  0  0  0
    9.5142   -2.5553   -1.3198 C   0  0  1  0  0  0  0  0  0  0  0  0
    9.4341   -2.7569   -2.8500 C   0  0  0  0  0  0  0  0  0  0  0  0
   10.6497   -2.2438   -3.5598 C   0  0  0  0  0  0  0  0  0  0  0  0
   11.1819   -2.8854   -4.4524 O   0  0  0  0  0  0  0  0  0  0  0  0
   12.8379    0.4293   -2.9984 H   0  0  0  0  0  0  0  0  0  0  0  0
   13.0130   -0.8854   -4.2137 H   0  0  0  0  0  0  0  0  0  0  0  0
   13.1005   -1.2719   -2.4597 H   0  0  0  0  0  0  0  0  0  0  0  0
   10.6861   -0.1704   -4.0282 H   0  0  0  0  0  0  0  0  0  0  0  0
   11.5533   -1.8968   -1.0253 H   0  0  0  0  0  0  0  0  0  0  0  0
    8.8514    0.3195   -0.3151 H   0  0  0  0  0  0  0  0  0  0  0  0
    9.0469   -0.5087    2.6592 H   0  0  0  0  0  0  0  0  0  0  0  0
    9.7855    2.1232    1.2472 H   0  0  0  0  0  0  0  0  0  0  0  0
   10.9352    0.9554    2.0154 H   0  0  0  0  0  0  0  0  0  0  0  0
    9.7300    1.8257    3.0280 H   0  0  0  0  0  0  0  0  0  0  0  0
    6.6553   -0.8804    2.7132 H   0  0  0  0  0  0  0  0  0  0  0  0
    5.7629    1.5806   -0.0212 H   0  0  0  0  0  0  0  0  0  0  0  0
    3.6600    2.7048   -0.2544 H   0  0  0  0  0  0  0  0  0  0  0  0
   -0.3739    0.7576    5.2225 H   0  0  0  0  0  0  0  0  0  0  0  0
   -2.4268    1.8681    5.0811 H   0  0  0  0  0  0  0  0  0  0  0  0
   -2.9805    4.2150    4.4336 H   0  0  0  0  0  0  0  0  0  0  0  0
   -3.7246    3.3893    1.8766 H   0  0  0  0  0  0  0  0  0  0  0  0
   -4.2673    2.5553    3.3445 H   0  0  0  0  0  0  0  0  0  0  0  0
   -4.4854    0.1099    3.3649 H   0  0  0  0  0  0  0  0  0  0  0  0
   -2.6997   -0.0681    3.3764 H   0  0  0  0  0  0  0  0  0  0  0  0
   -3.6330   -0.9640    2.2083 H   0  0  0  0  0  0  0  0  0  0  0  0
   -4.2506   -0.6117    0.2355 H   0  0  0  0  0  0  0  0  0  0  0  0
   -6.3675   -0.3396    1.7926 H   0  0  0  0  0  0  0  0  0  0  0  0
   -6.5496   -1.4022    0.3926 H   0  0  0  0  0  0  0  0  0  0  0  0
   -7.2410    1.5395    0.4065 H   0  0  0  0  0  0  0  0  0  0  0  0
   -8.4752    0.2489    0.4907 H   0  0  0  0  0  0  0  0  0  0  0  0
   -7.6800    1.4448   -1.7423 H   0  0  0  0  0  0  0  0  0  0  0  0
   -9.1196    1.0280   -3.1205 H   0  0  0  0  0  0  0  0  0  0  0  0
   -8.3681   -1.1587   -4.3479 H   0  0  0  0  0  0  0  0  0  0  0  0
   -9.6791   -0.1345   -5.0053 H   0  0  0  0  0  0  0  0  0  0  0  0
  -10.1193   -2.7149   -4.8812 H   0  0  0  0  0  0  0  0  0  0  0  0
  -11.4145   -1.5565   -4.4363 H   0  0  0  0  0  0  0  0  0  0  0  0
   -9.5028   -2.7526   -2.4056 H   0  0  0  0  0  0  0  0  0  0  0  0
  -12.0927   -3.5440   -3.2336 H   0  0  0  0  0  0  0  0  0  0  0  0
  -10.7891   -1.5351   -0.7490 H   0  0  0  0  0  0  0  0  0  0  0  0
  -13.0031   -1.0327   -2.8250 H   0  0  0  0  0  0  0  0  0  0  0  0
  -12.9570   -0.4517   -1.1222 H   0  0  0  0  0  0  0  0  0  0  0  0
  -13.0536   -2.2091   -1.4500 H   0  0  0  0  0  0  0  0  0  0  0  0
   -5.9838    0.5080   -3.0216 H   0  0  0  0  0  0  0  0  0  0  0  0
   -5.6878   -2.0774   -1.3773 H   0  0  0  0  0  0  0  0  0  0  0  0
   -4.7258   -1.5272   -2.7614 H   0  0  0  0  0  0  0  0  0  0  0  0
   -6.4715   -1.8730   -2.9693 H   0  0  0  0  0  0  0  0  0  0  0  0
   -2.4121    0.6634   -0.1228 H   0  0  0  0  0  0  0  0  0  0  0  0
   -1.4313    0.4757    1.3489 H   0  0  0  0  0  0  0  0  0  0  0  0
   -0.4576    4.6972    0.8995 H   0  0  0  0  0  0  0  0  0  0  0  0
    3.9273   -0.8285    4.4805 H   0  0  0  0  0  0  0  0  0  0  0  0
    6.5143   -0.4643   -0.3636 H   0  0  0  0  0  0  0  0  0  0  0  0
    5.9602   -1.9069    0.5434 H   0  0  0  0  0  0  0  0  0  0  0  0
    8.3307   -2.3805    1.1743 H   0  0  0  0  0  0  0  0  0  0  0  0
    9.8724   -3.4787   -0.8126 H   0  0  0  0  0  0  0  0  0  0  0  0
    8.6389   -2.0705   -3.2211 H   0  0  0  0  0  0  0  0  0  0  0  0
    9.1207   -3.7847   -3.1323 H   0  0  0  0  0  0  0  0  0  0  0  0
  1 60  1  0  0  0  0
  1 61  1  0  0  0  0
  1 62  1  0  0  0  0
  2  1  1  0  0  0  0
  2  3  1  0  0  0  0
  2 63  1  6  0  0  0
  4  3  1  0  0  0  0
  4  5  1  0  0  0  0
  4 64  1  6  0  0  0
  6  5  1  0  0  0  0
  6  7  1  0  0  0  0
  6 65  1  6  0  0  0
  7  8  1  0  0  0  0
  7  9  1  0  0  0  0
  7 66  1  1  0  0  0
  8 67  1  0  0  0  0
  8 68  1  0  0  0  0
  8 69  1  0  0  0  0
  9 10  1  0  0  0  0
 10 11  1  0  0  0  0
 10 53  1  0  0  0  0
 10 70  1  1  0  0  0
 11 12  2  0  0  0  0
 12 13  1  0  0  0  0
 12 71  1  0  0  0  0
 13 14  2  0  0  0  0
 13 72  1  0  0  0  0
 14 15  1  0  0  0  0
 15 16  2  0  0  0  0
 15 17  1  0  0  0  0
 17 18  2  0  0  0  0
 18 19  1  0  0  0  0
 18 48  1  0  0  0  0
 19 20  2  0  0  0  0
 19 73  1  0  0  0  0
 20 21  1  0  0  0  0
 20 74  1  0  0  0  0
 21 22  1  1  0  0  0
 21 23  1  0  0  0  0
 22 75  1  0  0  0  0
 23 24  1  0  0  0  0
 23 76  1  0  0  0  0
 23 77  1  0  0  0  0
 24 25  1  0  0  0  0
 24 26  1  6  0  0  0
 24 43  1  0  0  0  0
 25 78  1  0  0  0  0
 25 79  1  0  0  0  0
 25 80  1  0  0  0  0
 27 26  1  0  0  0  0
 27 28  1  0  0  0  0
 27 81  1  1  0  0  0
 28 29  1  0  0  0  0
 28 82  1  0  0  0  0
 28 83  1  0  0  0  0
 29 30  1  0  0  0  0
 29 84  1  0  0  0  0
 29 85  1  0  0  0  0
 30 31  1  0  0  0  0
 30 40  1  0  0  0  0
 30 86  1  6  0  0  0
 32 31  1  0  0  0  0
 32 33  1  0  0  0  0
 32 87  1  6  0  0  0
 33 34  1  0  0  0  0
 33 88  1  0  0  0  0
 33 89  1  0  0  0  0
 34 35  1  0  0  0  0
 34 90  1  0  0  0  0
 34 91  1  0  0  0  0
 35 36  1  0  0  0  0
 35 37  1  0  0  0  0
 35 92  1  1  0  0  0
 36 93  1  0  0  0  0
 37 38  1  0  0  0  0
 37 39  1  0  0  0  0
 37 94  1  1  0  0  0
 38 95  1  0  0  0  0
 38 96  1  0  0  0  0
 38 97  1  0  0  0  0
 39 32  1  0  0  0  0
 40 41  1  0  0  0  0
 40 42  1  0  0  0  0
 40 98  1  6  0  0  0
 41 99  1  0  0  0  0
 41100  1  0  0  0  0
 41101  1  0  0  0  0
 42 27  1  0  0  0  0
 43 44  1  0  0  0  0
 43102  1  0  0  0  0
 43103  1  0  0  0  0
 44 45  2  0  0  0  0
 44 46  1  0  0  0  0
 46 47  1  6  0  0  0
 46 17  1  0  0  0  0
 46 21  1  0  0  0  0
 47104  1  0  0  0  0
 48 49  2  0  0  0  0
 48 50  1  0  0  0  0
 50 51  2  0  0  0  0
 50 14  1  0  0  0  0
 51 52  1  0  0  0  0
 51 11  1  0  0  0  0
 52105  1  0  0  0  0
 53106  1  0  0  0  0
 53107  1  0  0  0  0
 54 53  1  0  0  0  0
 54 55  1  0  0  0  0
 54  6  1  0  0  0  0
 54108  1  1  0  0  0
 55 56  1  0  0  0  0
 56 57  1  0  0  0  0
 56  4  1  0  0  0  0
 56109  1  1  0  0  0
 57 58  1  0  0  0  0
 57110  1  0  0  0  0
 57111  1  0  0  0  0
 58 59  2  0  0  0  0
 58  2  1  0  0  0  0
M  END
>  <IDENTIFIER>
CNP0123327.1

>  <Energy>
1588.95

$$$$
