
 OpenBabel09072500413D

119126  0  0  0  0  0  0  0  0999 V2000
    1.6824    3.1759   -1.7307 C   0  0  0  0  0  0  0  0  0  0  0  0
    1.6636    1.8759   -1.1805 O   0  0  0  0  0  0  0  0  0  0  0  0
    1.9522    1.9094    0.2104 C   0  0  1  0  0  0  0  0  0  0  0  0
    0.6655    2.1107    1.0321 C   0  0  0  0  0  0  0  0  0  0  0  0
   -0.2860    0.9091    0.8652 C   0  0  2  0  0  0  0  0  0  0  0  0
   -1.3628    1.1107    1.7661 O   0  0  0  0  0  0  0  0  0  0  0  0
   -2.6413    0.8415    1.2143 C   0  0  2  0  0  0  0  0  0  0  0  0
   -3.6357    1.7595    1.9316 C   0  0  0  0  0  0  0  0  0  0  0  0
   -5.0553    1.4866    1.4763 C   0  0  0  0  0  0  0  0  0  0  0  0
   -5.7972    2.5194    1.0271 C   0  0  0  0  0  0  0  0  0  0  0  0
   -7.2346    2.3990    0.6236 C   0  0  0  0  0  0  0  0  0  0  0  0
   -7.8688    1.0613    1.0351 C   0  0  1  0  0  0  0  0  0  0  0  0
   -9.2055    0.9517    0.3930 C   0  0  0  0  0  0  0  0  0  0  0  0
  -10.1727    0.7643    1.1145 O   0  0  0  0  0  0  0  0  0  0  0  0
   -9.3215    1.0365   -0.9668 O   0  0  0  0  0  0  0  0  0  0  0  0
  -10.3593    0.5376   -1.7407 C   0  0  2  0  0  0  0  0  0  0  0  0
  -11.7641    0.9485   -1.3045 C   0  0  0  0  0  0  0  0  0  0  0  0
  -12.6182   -0.0230   -1.8394 O   0  0  0  0  0  0  0  0  0  0  0  0
  -11.9238   -1.2481   -1.6761 C   0  0  2  0  0  0  0  0  0  0  0  0
  -12.4779   -2.2835   -2.6631 C   0  0  0  0  0  0  0  0  0  0  0  0
  -12.0676   -1.7406   -0.3862 O   0  0  0  0  0  0  0  0  0  0  0  0
  -10.8795   -2.0666    0.1599 C   0  0  0  0  0  0  0  0  0  0  0  0
   -9.8621   -1.7049   -0.6078 C   0  0  0  0  0  0  0  0  0  0  0  0
   -8.4021   -2.0633   -0.3772 C   0  0  0  0  0  0  0  0  0  0  0  0
   -7.6037   -1.5333    0.8474 C   0  0  0  0  0  0  0  0  0  0  0  0
   -6.9294   -0.1150    0.6959 C   0  0  2  0  0  0  0  0  0  0  0  0
   -5.5858    0.0424    1.5514 C   0  0  2  0  0  0  0  0  0  0  0  0
   -5.7998   -0.3142    3.0490 C   0  0  0  0  0  0  0  0  0  0  0  0
   -4.4837   -0.8920    0.9351 C   0  0  0  0  0  0  0  0  0  0  0  0
   -3.0523   -0.6310    1.4651 C   0  0  1  0  0  0  0  0  0  0  0  0
   -2.1470   -1.5223    0.8639 O   0  0  0  0  0  0  0  0  0  0  0  0
  -10.4048   -0.9905   -1.8113 C   0  0  2  0  0  0  0  0  0  0  0  0
   -9.8751   -1.4948   -3.0160 O   0  0  0  0  0  0  0  0  0  0  0  0
    0.3667   -0.2960    1.2320 O   0  0  0  0  0  0  0  0  0  0  0  0
    1.4988   -0.5458    0.4135 C   0  0  2  0  0  0  0  0  0  0  0  0
    2.0451   -1.9248    0.7778 C   0  0  0  0  0  0  0  0  0  0  0  0
    2.5614    0.5613    0.6329 C   0  0  1  0  0  0  0  0  0  0  0  0
    3.7339    0.2933   -0.1318 O   0  0  0  0  0  0  0  0  0  0  0  0
    4.9244    0.2465    0.6530 C   0  0  1  0  0  0  0  0  0  0  0  0
    5.7320   -1.0205    0.3305 C   0  0  0  0  0  0  0  0  0  0  0  0
    6.3283   -0.9215   -1.0800 C   0  0  2  0  0  0  0  0  0  0  0  0
    7.0687   -2.0646   -1.4399 O   0  0  0  0  0  0  0  0  0  0  0  0
    7.2062    0.3391   -1.1247 C   0  0  2  0  0  0  0  0  0  0  0  0
    8.2411    0.2480   -0.1525 O   0  0  0  0  0  0  0  0  0  0  0  0
    9.5043   -0.1176   -0.6819 C   0  0  1  0  0  0  0  0  0  0  0  0
   10.5642    0.7684    0.0090 C   0  0  0  0  0  0  0  0  0  0  0  0
   11.9709    0.2914   -0.3634 C   0  0  1  0  0  0  0  0  0  0  0  0
   12.9020    0.9888    0.4513 O   0  0  0  0  0  0  0  0  0  0  0  0
   13.8283    1.7004   -0.3355 C   0  0  0  0  0  0  0  0  0  0  0  0
   12.0915   -1.2495   -0.1638 C   0  0  1  0  0  0  0  0  0  0  0  0
   13.1820   -1.5907    0.6566 O   0  0  0  0  0  0  0  0  0  0  0  0
   10.7648   -1.8751    0.3496 C   0  0  2  0  0  0  0  0  0  0  0  0
   10.8620   -3.4002    0.4103 C   0  0  0  0  0  0  0  0  0  0  0  0
    9.6918   -1.5254   -0.5105 O   0  0  0  0  0  0  0  0  0  0  0  0
    6.3472    1.5750   -0.7603 C   0  0  1  0  0  0  0  0  0  0  0  0
    5.3892    2.0207   -1.8760 C   0  0  0  0  0  0  0  0  0  0  0  0
    5.6881    1.4438    0.5025 O   0  0  0  0  0  0  0  0  0  0  0  0
    1.4290    3.1017   -2.8080 H   0  0  0  0  0  0  0  0  0  0  0  0
    2.6924    3.6307   -1.6671 H   0  0  0  0  0  0  0  0  0  0  0  0
    0.9192    3.8331   -1.2638 H   0  0  0  0  0  0  0  0  0  0  0  0
    2.6934    2.7071    0.4587 H   0  0  0  0  0  0  0  0  0  0  0  0
    0.1512    3.0526    0.7490 H   0  0  0  0  0  0  0  0  0  0  0  0
    0.9430    2.1910    2.1069 H   0  0  0  0  0  0  0  0  0  0  0  0
   -0.6095    0.8577   -0.2027 H   0  0  0  0  0  0  0  0  0  0  0  0
   -2.7019    1.0828    0.1265 H   0  0  0  0  0  0  0  0  0  0  0  0
   -3.3431    2.8202    1.7637 H   0  0  0  0  0  0  0  0  0  0  0  0
   -3.5698    1.5737    3.0240 H   0  0  0  0  0  0  0  0  0  0  0  0
   -5.3572    3.5095    0.9504 H   0  0  0  0  0  0  0  0  0  0  0  0
   -7.2657    2.5500   -0.4768 H   0  0  0  0  0  0  0  0  0  0  0  0
   -7.8246    3.2092    1.1056 H   0  0  0  0  0  0  0  0  0  0  0  0
   -8.0267    1.0480    2.1337 H   0  0  0  0  0  0  0  0  0  0  0  0
  -10.2575    0.8991   -2.7891 H   0  0  0  0  0  0  0  0  0  0  0  0
  -12.0046    1.9675   -1.6751 H   0  0  0  0  0  0  0  0  0  0  0  0
  -11.9567    0.9455   -0.2189 H   0  0  0  0  0  0  0  0  0  0  0  0
  -13.5594   -2.4463   -2.4690 H   0  0  0  0  0  0  0  0  0  0  0  0
  -11.9464   -3.2526   -2.5497 H   0  0  0  0  0  0  0  0  0  0  0  0
  -12.3596   -1.9233   -3.7073 H   0  0  0  0  0  0  0  0  0  0  0  0
  -10.7785   -2.6111    1.0884 H   0  0  0  0  0  0  0  0  0  0  0  0
   -7.8054   -1.8322   -1.2850 H   0  0  0  0  0  0  0  0  0  0  0  0
   -8.4154   -3.1734   -0.3009 H   0  0  0  0  0  0  0  0  0  0  0  0
   -6.7730   -2.2574    0.8716 H   0  0  0  0  0  0  0  0  0  0  0  0
   -8.1433   -1.6673    1.8086 H   0  0  0  0  0  0  0  0  0  0  0  0
   -6.6405   -0.0074   -0.3745 H   0  0  0  0  0  0  0  0  0  0  0  0
   -6.1529   -1.3590    3.1643 H   0  0  0  0  0  0  0  0  0  0  0  0
   -6.5340    0.3587    3.5334 H   0  0  0  0  0  0  0  0  0  0  0  0
   -4.8687   -0.2209    3.6401 H   0  0  0  0  0  0  0  0  0  0  0  0
   -4.4533   -0.7291   -0.1648 H   0  0  0  0  0  0  0  0  0  0  0  0
   -4.7110   -1.9614    1.1144 H   0  0  0  0  0  0  0  0  0  0  0  0
   -3.0208   -0.8290    2.5569 H   0  0  0  0  0  0  0  0  0  0  0  0
   -2.1698   -1.3647   -0.1156 H   0  0  0  0  0  0  0  0  0  0  0  0
   -8.9686   -1.1069   -3.1279 H   0  0  0  0  0  0  0  0  0  0  0  0
    1.1989   -0.6036   -0.6593 H   0  0  0  0  0  0  0  0  0  0  0  0
    2.3823   -1.9453    1.8361 H   0  0  0  0  0  0  0  0  0  0  0  0
    2.8884   -2.1933    0.1118 H   0  0  0  0  0  0  0  0  0  0  0  0
    1.2519   -2.6897    0.6385 H   0  0  0  0  0  0  0  0  0  0  0  0
    2.7428    0.6118    1.7319 H   0  0  0  0  0  0  0  0  0  0  0  0
    4.7222    0.1263    1.7403 H   0  0  0  0  0  0  0  0  0  0  0  0
    5.0972   -1.9231    0.4289 H   0  0  0  0  0  0  0  0  0  0  0  0
    6.5557   -1.1170    1.0732 H   0  0  0  0  0  0  0  0  0  0  0  0
    5.4939   -0.8361   -1.8078 H   0  0  0  0  0  0  0  0  0  0  0  0
    7.3743   -2.5320   -0.6198 H   0  0  0  0  0  0  0  0  0  0  0  0
    7.5944    0.4986   -2.1566 H   0  0  0  0  0  0  0  0  0  0  0  0
    9.6173    0.0965   -1.7691 H   0  0  0  0  0  0  0  0  0  0  0  0
   10.4370    0.6880    1.1110 H   0  0  0  0  0  0  0  0  0  0  0  0
   10.4241    1.8381   -0.2602 H   0  0  0  0  0  0  0  0  0  0  0  0
   12.0921    0.4933   -1.4585 H   0  0  0  0  0  0  0  0  0  0  0  0
   14.5234    2.2349    0.3440 H   0  0  0  0  0  0  0  0  0  0  0  0
   13.3171    2.4706   -0.9544 H   0  0  0  0  0  0  0  0  0  0  0  0
   14.4366    1.0074   -0.9573 H   0  0  0  0  0  0  0  0  0  0  0  0
   12.2833   -1.6937   -1.1667 H   0  0  0  0  0  0  0  0  0  0  0  0
   12.9560   -1.3096    1.5815 H   0  0  0  0  0  0  0  0  0  0  0  0
   10.5387   -1.5338    1.3851 H   0  0  0  0  0  0  0  0  0  0  0  0
   11.0659   -3.8184   -0.5982 H   0  0  0  0  0  0  0  0  0  0  0  0
    9.9035   -3.8210    0.7827 H   0  0  0  0  0  0  0  0  0  0  0  0
   11.6714   -3.7119    1.1041 H   0  0  0  0  0  0  0  0  0  0  0  0
    7.0646    2.4203   -0.6603 H   0  0  0  0  0  0  0  0  0  0  0  0
    4.6198    1.2665   -2.1219 H   0  0  0  0  0  0  0  0  0  0  0  0
    5.9639    2.2285   -2.8035 H   0  0  0  0  0  0  0  0  0  0  0  0
    4.8901    2.9606   -1.5665 H   0  0  0  0  0  0  0  0  0  0  0  0
  1  2  1  0  0  0  0
  1 58  1  0  0  0  0
  1 59  1  0  0  0  0
  1 60  1  0  0  0  0
  3  2  1  0  0  0  0
  3  4  1  0  0  0  0
  3 61  1  1  0  0  0
  4  5  1  0  0  0  0
  4 62  1  0  0  0  0
  4 63  1  0  0  0  0
  5  6  1  0  0  0  0
  5 34  1  0  0  0  0
  5 64  1  6  0  0  0
  7  6  1  0  0  0  0
  7  8  1  0  0  0  0
  7 65  1  6  0  0  0
  8  9  1  0  0  0  0
  8 66  1  0  0  0  0
  8 67  1  0  0  0  0
  9 10  2  0  0  0  0
 10 11  1  0  0  0  0
 10 68  1  0  0  0  0
 11 69  1  0  0  0  0
 11 70  1  0  0  0  0
 12 11  1  0  0  0  0
 12 13  1  0  0  0  0
 12 71  1  1  0  0  0
 13 14  2  0  0  0  0
 13 15  1  0  0  0  0
 15 16  1  0  0  0  0
 16 17  1  0  0  0  0
 16 72  1  6  0  0  0
 17 18  1  0  0  0  0
 17 73  1  0  0  0  0
 17 74  1  0  0  0  0
 18 19  1  0  0  0  0
 19 20  1  6  0  0  0
 19 21  1  0  0  0  0
 20 75  1  0  0  0  0
 20 76  1  0  0  0  0
 20 77  1  0  0  0  0
 21 22  1  0  0  0  0
 22 23  2  0  0  0  0
 22 78  1  0  0  0  0
 23 24  1  0  0  0  0
 23 32  1  0  0  0  0
 24 25  1  0  0  0  0
 24 79  1  0  0  0  0
 24 80  1  0  0  0  0
 25 81  1  0  0  0  0
 25 82  1  0  0  0  0
 26 25  1  0  0  0  0
 26 27  1  0  0  0  0
 26 12  1  0  0  0  0
 26 83  1  6  0  0  0
 27 28  1  1  0  0  0
 27 29  1  0  0  0  0
 27  9  1  0  0  0  0
 28 84  1  0  0  0  0
 28 85  1  0  0  0  0
 28 86  1  0  0  0  0
 29 30  1  0  0  0  0
 29 87  1  0  0  0  0
 29 88  1  0  0  0  0
 30 31  1  0  0  0  0
 30  7  1  0  0  0  0
 30 89  1  1  0  0  0
 31 90  1  0  0  0  0
 32 33  1  6  0  0  0
 32 16  1  0  0  0  0
 32 19  1  0  0  0  0
 33 91  1  0  0  0  0
 34 35  1  0  0  0  0
 35 36  1  0  0  0  0
 35 37  1  0  0  0  0
 35 92  1  6  0  0  0
 36 93  1  0  0  0  0
 36 94  1  0  0  0  0
 36 95  1  0  0  0  0
 37 38  1  0  0  0  0
 37  3  1  0  0  0  0
 37 96  1  1  0  0  0
 39 38  1  0  0  0  0
 39 40  1  0  0  0  0
 39 97  1  1  0  0  0
 40 41  1  0  0  0  0
 40 98  1  0  0  0  0
 40 99  1  0  0  0  0
 41 42  1  0  0  0  0
 41 43  1  0  0  0  0
 41100  1  6  0  0  0
 42101  1  0  0  0  0
 43 44  1  0  0  0  0
 43 55  1  0  0  0  0
 43102  1  6  0  0  0
 45 44  1  0  0  0  0
 45 46  1  0  0  0  0
 45103  1  6  0  0  0
 46 47  1  0  0  0  0
 46104  1  0  0  0  0
 46105  1  0  0  0  0
 47 48  1  0  0  0  0
 47 50  1  0  0  0  0
 47106  1  6  0  0  0
 48 49  1  0  0  0  0
 49107  1  0  0  0  0
 49108  1  0  0  0  0
 49109  1  0  0  0  0
 50 51  1  0  0  0  0
 50 52  1  0  0  0  0
 50110  1  6  0  0  0
 51111  1  0  0  0  0
 52 53  1  0  0  0  0
 52 54  1  0  0  0  0
 52112  1  1  0  0  0
 53113  1  0  0  0  0
 53114  1  0  0  0  0
 53115  1  0  0  0  0
 54 45  1  0  0  0  0
 55 56  1  0  0  0  0
 55 57  1  0  0  0  0
 55116  1  1  0  0  0
 56117  1  0  0  0  0
 56118  1  0  0  0  0
 56119  1  0  0  0  0
 57 39  1  0  0  0  0
M  END
>  <IDENTIFIER>
CNP0417684.2

>  <Energy>
1467.15

$$$$
