
 OpenBabel09052521573D

102109  0  0  0  0  0  0  0  0999 V2000
   -3.7526   -2.7998   -0.4788 C   0  0  0  0  0  0  0  0  0  0  0  0
   -3.3930   -1.4383   -0.4079 O   0  0  0  0  0  0  0  0  0  0  0  0
   -4.0007   -0.6938   -1.4521 C   0  0  2  0  0  0  0  0  0  0  0  0
   -2.9431    0.1065   -2.2132 C   0  0  0  0  0  0  0  0  0  0  0  0
   -2.3094    1.1971   -1.3258 C   0  0  2  0  0  0  0  0  0  0  0  0
   -1.4376    0.6186   -0.3581 O   0  0  0  0  0  0  0  0  0  0  0  0
   -0.0768    0.9923   -0.5454 C   0  0  1  0  0  0  0  0  0  0  0  0
    0.2910    2.0767    0.5013 C   0  0  0  0  0  0  0  0  0  0  0  0
    1.8045    2.2635    0.5084 C   0  0  0  0  0  0  0  0  0  0  0  0
    2.5637    0.9670    0.9844 C   0  0  1  0  0  0  0  0  0  0  0  0
    2.9097    1.1053    2.4917 C   0  0  0  0  0  0  0  0  0  0  0  0
    1.6336   -0.3177    0.8284 C   0  0  2  0  0  0  0  0  0  0  0  0
    2.4051   -1.6484    1.0073 C   0  0  0  0  0  0  0  0  0  0  0  0
    3.6038   -1.7670    0.0685 C   0  0  0  0  0  0  0  0  0  0  0  0
    4.5299   -0.5642    0.2908 C   0  0  1  0  0  0  0  0  0  0  0  0
    5.4426   -0.8258    1.3162 O   0  0  0  0  0  0  0  0  0  0  0  0
    5.9964   -0.6395    0.0091 C   0  0  1  0  0  0  0  0  0  0  0  0
    6.4671   -1.7867   -0.8814 C   0  0  0  0  0  0  0  0  0  0  0  0
    7.2857   -0.9926   -1.8976 C   0  0  0  0  0  0  0  0  0  0  0  0
    8.0285    0.0740   -1.0645 C   0  0  2  0  0  0  0  0  0  0  0  0
    9.3020   -0.5272   -0.4518 C   0  0  0  0  0  0  0  0  0  0  0  0
    9.4204   -1.4787    0.4747 C   0  0  0  0  0  0  0  0  0  0  0  0
   10.8334   -1.6601    0.6839 C   0  0  0  0  0  0  0  0  0  0  0  0
   11.3312   -2.4469    1.4723 O   0  0  0  0  0  0  0  0  0  0  0  0
   11.5473   -0.8400   -0.0990 O   0  0  0  0  0  0  0  0  0  0  0  0
   10.6861   -0.0737   -0.8606 C   0  0  0  0  0  0  0  0  0  0  0  0
    6.9344    0.5834   -0.0581 C   0  0  2  0  0  0  0  0  0  0  0  0
    7.5475    1.0291    1.3044 C   0  0  0  0  0  0  0  0  0  0  0  0
    6.1124    1.7576   -0.6587 C   0  0  0  0  0  0  0  0  0  0  0  0
    4.8472    2.0332    0.1786 C   0  0  0  0  0  0  0  0  0  0  0  0
    3.8721    0.8257    0.1105 C   0  0  2  0  0  0  0  0  0  0  0  0
    0.8450   -0.2598   -0.4901 C   0  0  0  0  0  0  0  0  0  0  0  0
   -3.2622    2.0584   -0.7045 O   0  0  0  0  0  0  0  0  0  0  0  0
   -4.3162    1.3893   -0.0155 C   0  0  2  0  0  0  0  0  0  0  0  0
   -3.8750    0.9137    1.3816 C   0  0  0  0  0  0  0  0  0  0  0  0
   -5.0085    0.3236   -0.9021 C   0  0  2  0  0  0  0  0  0  0  0  0
   -6.0490   -0.3388   -0.1917 O   0  0  0  0  0  0  0  0  0  0  0  0
   -7.3568    0.0846   -0.5722 C   0  0  2  0  0  0  0  0  0  0  0  0
   -7.9280    0.7669    0.5525 O   0  0  0  0  0  0  0  0  0  0  0  0
   -9.3349    0.6402    0.5893 C   0  0  2  0  0  0  0  0  0  0  0  0
   -9.9194    1.6316    1.6040 C   0  0  0  0  0  0  0  0  0  0  0  0
  -11.3213    1.5757    1.6167 O   0  0  0  0  0  0  0  0  0  0  0  0
   -9.7318   -0.8334    0.9157 C   0  0  1  0  0  0  0  0  0  0  0  0
  -11.0762   -1.0587    0.5646 O   0  0  0  0  0  0  0  0  0  0  0  0
   -8.7719   -1.8465    0.2078 C   0  0  2  0  0  0  0  0  0  0  0  0
   -7.7467   -2.2869    1.0730 O   0  0  0  0  0  0  0  0  0  0  0  0
   -8.1469   -1.1883   -1.0330 C   0  0  1  0  0  0  0  0  0  0  0  0
   -9.1701   -0.8460   -1.9344 O   0  0  0  0  0  0  0  0  0  0  0  0
   -3.2905   -3.3297    0.3793 H   0  0  0  0  0  0  0  0  0  0  0  0
   -3.3559   -3.2655   -1.4078 H   0  0  0  0  0  0  0  0  0  0  0  0
   -4.8543   -2.9302   -0.3923 H   0  0  0  0  0  0  0  0  0  0  0  0
   -4.5236   -1.3425   -2.1991 H   0  0  0  0  0  0  0  0  0  0  0  0
   -3.4467    0.6114   -3.0684 H   0  0  0  0  0  0  0  0  0  0  0  0
   -2.1617   -0.5616   -2.6362 H   0  0  0  0  0  0  0  0  0  0  0  0
   -1.7807    1.8478   -2.0565 H   0  0  0  0  0  0  0  0  0  0  0  0
    0.1324    1.3993   -1.5619 H   0  0  0  0  0  0  0  0  0  0  0  0
   -0.0386    1.7859    1.5228 H   0  0  0  0  0  0  0  0  0  0  0  0
   -0.2297    3.0219    0.2368 H   0  0  0  0  0  0  0  0  0  0  0  0
    2.1178    3.1501    1.1015 H   0  0  0  0  0  0  0  0  0  0  0  0
    2.0503    2.5002   -0.5508 H   0  0  0  0  0  0  0  0  0  0  0  0
    1.9818    1.1856    3.0972 H   0  0  0  0  0  0  0  0  0  0  0  0
    3.5035    2.0186    2.6941 H   0  0  0  0  0  0  0  0  0  0  0  0
    3.4950    0.2417    2.8643 H   0  0  0  0  0  0  0  0  0  0  0  0
    0.8508   -0.3192    1.6202 H   0  0  0  0  0  0  0  0  0  0  0  0
    1.7191   -2.5089    0.8527 H   0  0  0  0  0  0  0  0  0  0  0  0
    2.7777   -1.7204    2.0509 H   0  0  0  0  0  0  0  0  0  0  0  0
    3.2653   -1.7812   -0.9886 H   0  0  0  0  0  0  0  0  0  0  0  0
    4.1220   -2.7279    0.2805 H   0  0  0  0  0  0  0  0  0  0  0  0
    5.6815   -2.3789   -1.3924 H   0  0  0  0  0  0  0  0  0  0  0  0
    7.0999   -2.4856   -0.3174 H   0  0  0  0  0  0  0  0  0  0  0  0
    6.5640   -0.4635   -2.5607 H   0  0  0  0  0  0  0  0  0  0  0  0
    7.9384   -1.6114   -2.5502 H   0  0  0  0  0  0  0  0  0  0  0  0
    8.3901    0.8944   -1.7236 H   0  0  0  0  0  0  0  0  0  0  0  0
    8.6428   -2.0057    1.0024 H   0  0  0  0  0  0  0  0  0  0  0  0
   10.8545   -0.2701   -1.9408 H   0  0  0  0  0  0  0  0  0  0  0  0
   10.8314    1.0038   -0.6377 H   0  0  0  0  0  0  0  0  0  0  0  0
    8.2402    1.8838    1.1466 H   0  0  0  0  0  0  0  0  0  0  0  0
    8.1024    0.2177    1.8044 H   0  0  0  0  0  0  0  0  0  0  0  0
    6.7887    1.3296    2.0481 H   0  0  0  0  0  0  0  0  0  0  0  0
    5.7884    1.5310   -1.6979 H   0  0  0  0  0  0  0  0  0  0  0  0
    6.7472    2.6695   -0.7041 H   0  0  0  0  0  0  0  0  0  0  0  0
    4.3432    2.9343   -0.2301 H   0  0  0  0  0  0  0  0  0  0  0  0
    5.1205    2.2805    1.2150 H   0  0  0  0  0  0  0  0  0  0  0  0
    3.5530    0.7974   -0.9542 H   0  0  0  0  0  0  0  0  0  0  0  0
    0.2398   -1.1760   -0.6640 H   0  0  0  0  0  0  0  0  0  0  0  0
    1.5798   -0.2124   -1.3206 H   0  0  0  0  0  0  0  0  0  0  0  0
   -5.0988    2.1543    0.1811 H   0  0  0  0  0  0  0  0  0  0  0  0
   -3.0854    0.1429    1.3587 H   0  0  0  0  0  0  0  0  0  0  0  0
   -4.7442    0.4998    1.9350 H   0  0  0  0  0  0  0  0  0  0  0  0
   -3.4819    1.7793    1.9559 H   0  0  0  0  0  0  0  0  0  0  0  0
   -5.3709    0.8634   -1.8079 H   0  0  0  0  0  0  0  0  0  0  0  0
   -7.3578    0.7859   -1.4355 H   0  0  0  0  0  0  0  0  0  0  0  0
   -9.7345    0.9485   -0.4044 H   0  0  0  0  0  0  0  0  0  0  0  0
   -9.5839    2.6675    1.3665 H   0  0  0  0  0  0  0  0  0  0  0  0
   -9.5426    1.3967    2.6218 H   0  0  0  0  0  0  0  0  0  0  0  0
  -11.6322    2.0669    0.8119 H   0  0  0  0  0  0  0  0  0  0  0  0
   -9.6543   -1.0337    2.0067 H   0  0  0  0  0  0  0  0  0  0  0  0
  -11.1574   -0.9646   -0.4194 H   0  0  0  0  0  0  0  0  0  0  0  0
   -9.3495   -2.7564   -0.0642 H   0  0  0  0  0  0  0  0  0  0  0  0
   -7.4438   -1.5296    1.6374 H   0  0  0  0  0  0  0  0  0  0  0  0
   -7.4642   -1.9042   -1.5491 H   0  0  0  0  0  0  0  0  0  0  0  0
   -8.7333   -0.6470   -2.8037 H   0  0  0  0  0  0  0  0  0  0  0  0
  1  2  1  0  0  0  0
  1 49  1  0  0  0  0
  1 50  1  0  0  0  0
  1 51  1  0  0  0  0
  3  2  1  0  0  0  0
  3  4  1  0  0  0  0
  3 52  1  6  0  0  0
  4  5  1  0  0  0  0
  4 53  1  0  0  0  0
  4 54  1  0  0  0  0
  5  6  1  0  0  0  0
  5 33  1  0  0  0  0
  5 55  1  6  0  0  0
  7  6  1  0  0  0  0
  7  8  1  0  0  0  0
  7 56  1  6  0  0  0
  8  9  1  0  0  0  0
  8 57  1  0  0  0  0
  8 58  1  0  0  0  0
  9 10  1  0  0  0  0
  9 59  1  0  0  0  0
  9 60  1  0  0  0  0
 10 11  1  1  0  0  0
 10 12  1  0  0  0  0
 11 61  1  0  0  0  0
 11 62  1  0  0  0  0
 11 63  1  0  0  0  0
 12 13  1  0  0  0  0
 12 32  1  0  0  0  0
 12 64  1  1  0  0  0
 13 14  1  0  0  0  0
 13 65  1  0  0  0  0
 13 66  1  0  0  0  0
 14 67  1  0  0  0  0
 14 68  1  0  0  0  0
 15 14  1  0  0  0  0
 15 16  1  1  0  0  0
 17 16  1  1  0  0  0
 17 18  1  0  0  0  0
 17 15  1  0  0  0  0
 18 19  1  0  0  0  0
 18 69  1  0  0  0  0
 18 70  1  0  0  0  0
 19 20  1  0  0  0  0
 19 71  1  0  0  0  0
 19 72  1  0  0  0  0
 20 21  1  0  0  0  0
 20 27  1  0  0  0  0
 20 73  1  6  0  0  0
 21 22  2  0  0  0  0
 22 23  1  0  0  0  0
 22 74  1  0  0  0  0
 23 24  2  0  0  0  0
 23 25  1  0  0  0  0
 25 26  1  0  0  0  0
 26 21  1  0  0  0  0
 26 75  1  0  0  0  0
 26 76  1  0  0  0  0
 27 28  1  1  0  0  0
 27 29  1  0  0  0  0
 27 17  1  0  0  0  0
 28 77  1  0  0  0  0
 28 78  1  0  0  0  0
 28 79  1  0  0  0  0
 29 30  1  0  0  0  0
 29 80  1  0  0  0  0
 29 81  1  0  0  0  0
 30 82  1  0  0  0  0
 30 83  1  0  0  0  0
 31 30  1  0  0  0  0
 31 10  1  0  0  0  0
 31 15  1  0  0  0  0
 31 84  1  6  0  0  0
 32  7  1  0  0  0  0
 32 85  1  0  0  0  0
 32 86  1  0  0  0  0
 33 34  1  0  0  0  0
 34 35  1  0  0  0  0
 34 36  1  0  0  0  0
 34 87  1  1  0  0  0
 35 88  1  0  0  0  0
 35 89  1  0  0  0  0
 35 90  1  0  0  0  0
 36 37  1  0  0  0  0
 36  3  1  0  0  0  0
 36 91  1  6  0  0  0
 38 37  1  0  0  0  0
 38 39  1  0  0  0  0
 38 92  1  6  0  0  0
 39 40  1  0  0  0  0
 40 41  1  0  0  0  0
 40 43  1  0  0  0  0
 40 93  1  6  0  0  0
 41 42  1  0  0  0  0
 41 94  1  0  0  0  0
 41 95  1  0  0  0  0
 42 96  1  0  0  0  0
 43 44  1  0  0  0  0
 43 45  1  0  0  0  0
 43 97  1  1  0  0  0
 44 98  1  0  0  0  0
 45 46  1  0  0  0  0
 45 47  1  0  0  0  0
 45 99  1  6  0  0  0
 46100  1  0  0  0  0
 47 48  1  0  0  0  0
 47 38  1  0  0  0  0
 47101  1  6  0  0  0
 48102  1  0  0  0  0
M  END
>  <IDENTIFIER>
CNP0531993.1

>  <Energy>
2917.72

$$$$
