
 OpenBabel09082504313D

107115  0  0  0  0  0  0  0  0999 V2000
  -12.7085   -0.0578   -4.1077 C   0  0  0  0  0  0  0  0  0  0  0  0
  -11.6493    0.4086   -3.1079 C   0  0  2  0  0  0  0  0  0  0  0  0
  -12.0240   -0.1126   -1.8320 O   0  0  0  0  0  0  0  0  0  0  0  0
  -11.3409    0.5167   -0.7630 C   0  0  1  0  0  0  0  0  0  0  0  0
   -9.9337    0.3499   -0.9213 O   0  0  0  0  0  0  0  0  0  0  0  0
   -9.2908   -0.1613    0.2405 C   0  0  1  0  0  0  0  0  0  0  0  0
   -8.6976   -1.5484   -0.1100 C   0  0  0  0  0  0  0  0  0  0  0  0
   -7.4826   -1.8062    0.7740 C   0  0  0  0  0  0  0  0  0  0  0  0
   -6.4137   -0.7231    0.4224 C   0  0  2  0  0  0  0  0  0  0  0  0
   -5.5383   -0.5623    1.5283 O   0  0  0  0  0  0  0  0  0  0  0  0
   -4.1563   -0.8253    1.2990 C   0  0  1  0  0  0  0  0  0  0  0  0
   -3.9511   -2.3445    1.0670 C   0  0  0  0  0  0  0  0  0  0  0  0
   -3.5762    0.0071    0.1191 C   0  0  0  0  0  0  0  0  0  0  0  0
   -2.0763   -0.1095    0.1102 C   0  0  0  0  0  0  0  0  0  0  0  0
   -1.5041   -0.5818   -0.8622 O   0  0  0  0  0  0  0  0  0  0  0  0
   -1.3090    0.3535    1.3491 C   0  0  2  0  0  0  0  0  0  0  0  0
   -1.5224    1.7344    1.5755 O   0  0  0  0  0  0  0  0  0  0  0  0
    0.1999    0.0772    1.1652 C   0  0  0  0  0  0  0  0  0  0  0  0
    0.7408   -1.0837    1.6266 C   0  0  0  0  0  0  0  0  0  0  0  0
   -0.1116   -2.0904    2.3172 C   0  0  0  0  0  0  0  0  0  0  0  0
   -1.3571   -1.8054    2.6975 C   0  0  0  0  0  0  0  0  0  0  0  0
   -1.8777   -0.3932    2.6023 C   0  0  1  0  0  0  0  0  0  0  0  0
   -1.3946    0.2795    3.7459 O   0  0  0  0  0  0  0  0  0  0  0  0
   -3.4411   -0.3409    2.6056 C   0  0  0  0  0  0  0  0  0  0  0  0
    2.1682   -1.4230    1.3701 C   0  0  0  0  0  0  0  0  0  0  0  0
    2.6159   -2.4650    1.8265 O   0  0  0  0  0  0  0  0  0  0  0  0
    3.0279   -0.5331    0.5316 C   0  0  0  0  0  0  0  0  0  0  0  0
    2.4583    0.6498    0.0298 C   0  0  0  0  0  0  0  0  0  0  0  0
    3.2175    1.4893   -0.7884 C   0  0  0  0  0  0  0  0  0  0  0  0
    4.5226    1.1605   -1.1243 C   0  0  0  0  0  0  0  0  0  0  0  0
    5.1411   -0.0101   -0.6453 C   0  0  0  0  0  0  0  0  0  0  0  0
    6.5704   -0.2499   -1.1591 C   0  0  1  0  0  0  0  0  0  0  0  0
    7.5344    0.8765   -0.7091 C   0  0  0  0  0  0  0  0  0  0  0  0
    8.8979    0.6333   -1.3594 C   0  0  1  0  0  0  0  0  0  0  0  0
    9.8237    1.6206   -0.9505 O   0  0  0  0  0  0  0  0  0  0  0  0
   11.0673    1.3677   -1.5845 C   0  0  1  0  0  0  0  0  0  0  0  0
   12.1045    2.3968   -1.1275 C   0  0  0  0  0  0  0  0  0  0  0  0
   12.5167    2.0992    0.2831 C   0  0  0  0  0  0  0  0  0  0  0  0
   13.3872    2.7698    0.8186 O   0  0  0  0  0  0  0  0  0  0  0  0
   11.8917    0.8977    0.9705 C   0  0  2  0  0  0  0  0  0  0  0  0
   12.5410    0.6104    2.3250 C   0  0  0  0  0  0  0  0  0  0  0  0
   11.9996   -0.2586    0.1484 O   0  0  0  0  0  0  0  0  0  0  0  0
   11.5895   -0.0624   -1.2155 C   0  0  1  0  0  0  0  0  0  0  0  0
   10.6346   -1.0429   -1.5831 O   0  0  0  0  0  0  0  0  0  0  0  0
    9.3949   -0.7667   -0.9555 C   0  0  2  0  0  0  0  0  0  0  0  0
    8.3284   -1.7922   -1.3943 C   0  0  1  0  0  0  0  0  0  0  0  0
    8.7458   -3.2095   -0.9982 C   0  0  0  0  0  0  0  0  0  0  0  0
    7.0899   -1.5063   -0.7638 O   0  0  0  0  0  0  0  0  0  0  0  0
    4.3754   -0.8697    0.2154 C   0  0  0  0  0  0  0  0  0  0  0  0
    4.8602   -2.0139    0.7542 O   0  0  0  0  0  0  0  0  0  0  0  0
    1.0482    0.9965    0.3459 C   0  0  0  0  0  0  0  0  0  0  0  0
    0.5693    2.0236   -0.1105 O   0  0  0  0  0  0  0  0  0  0  0  0
   -6.9615    0.5522    0.0626 O   0  0  0  0  0  0  0  0  0  0  0  0
   -8.1692    0.7937    0.7527 C   0  0  1  0  0  0  0  0  0  0  0  0
   -8.5511    2.2702    0.6740 C   0  0  0  0  0  0  0  0  0  0  0  0
  -11.6791    1.9850   -0.7190 C   0  0  0  0  0  0  0  0  0  0  0  0
  -11.7351    2.6686   -1.8622 C   0  0  0  0  0  0  0  0  0  0  0  0
  -11.5772    1.9308   -3.1244 C   0  0  0  0  0  0  0  0  0  0  0  0
  -11.4098    2.5385   -4.1708 O   0  0  0  0  0  0  0  0  0  0  0  0
  -12.7605   -1.1674   -4.1099 H   0  0  0  0  0  0  0  0  0  0  0  0
  -12.4572    0.2814   -5.1351 H   0  0  0  0  0  0  0  0  0  0  0  0
  -13.7071    0.3430   -3.8274 H   0  0  0  0  0  0  0  0  0  0  0  0
  -10.6714   -0.0169   -3.4239 H   0  0  0  0  0  0  0  0  0  0  0  0
  -11.7486    0.0658    0.1677 H   0  0  0  0  0  0  0  0  0  0  0  0
   -9.9583   -0.2619    1.1269 H   0  0  0  0  0  0  0  0  0  0  0  0
   -8.3305   -1.5535   -1.1619 H   0  0  0  0  0  0  0  0  0  0  0  0
   -9.4818   -2.3302   -0.0223 H   0  0  0  0  0  0  0  0  0  0  0  0
   -7.0542   -2.8220    0.6330 H   0  0  0  0  0  0  0  0  0  0  0  0
   -7.8142   -1.7233    1.8321 H   0  0  0  0  0  0  0  0  0  0  0  0
   -5.9328   -1.0999   -0.5021 H   0  0  0  0  0  0  0  0  0  0  0  0
   -4.5036   -2.6922    0.1716 H   0  0  0  0  0  0  0  0  0  0  0  0
   -4.3184   -2.9198    1.9429 H   0  0  0  0  0  0  0  0  0  0  0  0
   -2.8939   -2.6058    0.8770 H   0  0  0  0  0  0  0  0  0  0  0  0
   -3.8442    1.0776    0.2499 H   0  0  0  0  0  0  0  0  0  0  0  0
   -3.9738   -0.3243   -0.8615 H   0  0  0  0  0  0  0  0  0  0  0  0
   -1.7193    2.1952    0.7181 H   0  0  0  0  0  0  0  0  0  0  0  0
    0.2674   -3.0922    2.4945 H   0  0  0  0  0  0  0  0  0  0  0  0
   -1.9511   -2.5728    3.1876 H   0  0  0  0  0  0  0  0  0  0  0  0
   -1.8057   -0.1360    4.5503 H   0  0  0  0  0  0  0  0  0  0  0  0
   -3.7277    0.7261    2.7491 H   0  0  0  0  0  0  0  0  0  0  0  0
   -3.8381   -0.8965    3.4842 H   0  0  0  0  0  0  0  0  0  0  0  0
    2.7943    2.4008   -1.1924 H   0  0  0  0  0  0  0  0  0  0  0  0
    5.0516    1.8330   -1.7874 H   0  0  0  0  0  0  0  0  0  0  0  0
    6.4813   -0.2393   -2.2718 H   0  0  0  0  0  0  0  0  0  0  0  0
    7.6264    0.8685    0.3997 H   0  0  0  0  0  0  0  0  0  0  0  0
    7.1726    1.8769   -1.0238 H   0  0  0  0  0  0  0  0  0  0  0  0
    8.7551    0.6886   -2.4660 H   0  0  0  0  0  0  0  0  0  0  0  0
   10.9381    1.4789   -2.6867 H   0  0  0  0  0  0  0  0  0  0  0  0
   11.7033    3.4277   -1.2313 H   0  0  0  0  0  0  0  0  0  0  0  0
   13.0115    2.3020   -1.7640 H   0  0  0  0  0  0  0  0  0  0  0  0
   10.8185    1.0989    1.1733 H   0  0  0  0  0  0  0  0  0  0  0  0
   13.6202    0.3798    2.1958 H   0  0  0  0  0  0  0  0  0  0  0  0
   12.0449   -0.2617    2.8014 H   0  0  0  0  0  0  0  0  0  0  0  0
   12.4325    1.4875    2.9989 H   0  0  0  0  0  0  0  0  0  0  0  0
   12.4946   -0.2293   -1.8382 H   0  0  0  0  0  0  0  0  0  0  0  0
    9.5012   -0.8351    0.1533 H   0  0  0  0  0  0  0  0  0  0  0  0
    8.2094   -1.7831   -2.5030 H   0  0  0  0  0  0  0  0  0  0  0  0
    8.8688   -3.2834    0.1040 H   0  0  0  0  0  0  0  0  0  0  0  0
    9.7016   -3.4893   -1.4890 H   0  0  0  0  0  0  0  0  0  0  0  0
    7.9645   -3.9325   -1.3158 H   0  0  0  0  0  0  0  0  0  0  0  0
    5.7525   -2.3630    0.7301 H   0  0  0  0  0  0  0  0  0  0  0  0
   -7.9905    0.5957    1.8381 H   0  0  0  0  0  0  0  0  0  0  0  0
   -8.7181    2.5767   -0.3795 H   0  0  0  0  0  0  0  0  0  0  0  0
   -7.7312    2.8904    1.0949 H   0  0  0  0  0  0  0  0  0  0  0  0
   -9.4729    2.4568    1.2645 H   0  0  0  0  0  0  0  0  0  0  0  0
  -11.8337    2.4874    0.2309 H   0  0  0  0  0  0  0  0  0  0  0  0
  -11.9042    3.7413   -1.8598 H   0  0  0  0  0  0  0  0  0  0  0  0
  1 60  1  0  0  0  0
  1 61  1  0  0  0  0
  1 62  1  0  0  0  0
  2  1  1  0  0  0  0
  2  3  1  0  0  0  0
  2 63  1  6  0  0  0
  3  4  1  0  0  0  0
  4  5  1  0  0  0  0
  4 56  1  0  0  0  0
  4 64  1  1  0  0  0
  6  5  1  0  0  0  0
  6  7  1  0  0  0  0
  6 65  1  1  0  0  0
  7  8  1  0  0  0  0
  7 66  1  0  0  0  0
  7 67  1  0  0  0  0
  8  9  1  0  0  0  0
  8 68  1  0  0  0  0
  8 69  1  0  0  0  0
  9 10  1  0  0  0  0
  9 53  1  0  0  0  0
  9 70  1  6  0  0  0
 11 10  1  1  0  0  0
 11 12  1  0  0  0  0
 11 13  1  0  0  0  0
 12 71  1  0  0  0  0
 12 72  1  0  0  0  0
 12 73  1  0  0  0  0
 13 14  1  0  0  0  0
 13 74  1  0  0  0  0
 13 75  1  0  0  0  0
 14 15  2  0  0  0  0
 14 16  1  0  0  0  0
 16 17  1  1  0  0  0
 16 18  1  0  0  0  0
 17 76  1  0  0  0  0
 18 19  2  0  0  0  0
 19 20  1  0  0  0  0
 19 25  1  0  0  0  0
 20 21  2  0  0  0  0
 20 77  1  0  0  0  0
 21 22  1  0  0  0  0
 21 78  1  0  0  0  0
 22 23  1  1  0  0  0
 22 24  1  0  0  0  0
 22 16  1  0  0  0  0
 23 79  1  0  0  0  0
 24 11  1  0  0  0  0
 24 80  1  0  0  0  0
 24 81  1  0  0  0  0
 25 26  2  0  0  0  0
 25 27  1  0  0  0  0
 27 28  2  0  0  0  0
 28 29  1  0  0  0  0
 28 51  1  0  0  0  0
 29 30  2  0  0  0  0
 29 82  1  0  0  0  0
 30 31  1  0  0  0  0
 30 83  1  0  0  0  0
 31 49  2  0  0  0  0
 32 31  1  0  0  0  0
 32 33  1  0  0  0  0
 32 84  1  6  0  0  0
 33 85  1  0  0  0  0
 33 86  1  0  0  0  0
 34 33  1  0  0  0  0
 34 35  1  0  0  0  0
 34 87  1  6  0  0  0
 35 36  1  0  0  0  0
 36 37  1  0  0  0  0
 36 88  1  6  0  0  0
 37 38  1  0  0  0  0
 37 89  1  0  0  0  0
 37 90  1  0  0  0  0
 38 39  2  0  0  0  0
 38 40  1  0  0  0  0
 40 41  1  0  0  0  0
 40 42  1  0  0  0  0
 40 91  1  1  0  0  0
 41 92  1  0  0  0  0
 41 93  1  0  0  0  0
 41 94  1  0  0  0  0
 43 42  1  0  0  0  0
 43 44  1  0  0  0  0
 43 36  1  0  0  0  0
 43 95  1  6  0  0  0
 45 44  1  0  0  0  0
 45 46  1  0  0  0  0
 45 34  1  0  0  0  0
 45 96  1  1  0  0  0
 46 47  1  0  0  0  0
 46 48  1  0  0  0  0
 46 97  1  6  0  0  0
 47 98  1  0  0  0  0
 47 99  1  0  0  0  0
 47100  1  0  0  0  0
 48 32  1  0  0  0  0
 49 50  1  0  0  0  0
 49 27  1  0  0  0  0
 50101  1  0  0  0  0
 51 52  2  0  0  0  0
 51 18  1  0  0  0  0
 53 54  1  0  0  0  0
 54 55  1  0  0  0  0
 54  6  1  0  0  0  0
 54102  1  1  0  0  0
 55103  1  0  0  0  0
 55104  1  0  0  0  0
 55105  1  0  0  0  0
 56 57  2  0  0  0  0
 56106  1  0  0  0  0
 57 58  1  0  0  0  0
 57107  1  0  0  0  0
 58 59  2  0  0  0  0
 58  2  1  0  0  0  0
M  END
>  <IDENTIFIER>
CNP0197847.2

>  <Energy>
1207.46

$$$$
