
 OpenBabel09042515333D

136143  0  0  0  0  0  0  0  0999 V2000
   -5.2280   -2.6549   -3.8274 C   0  0  0  0  0  0  0  0  0  0  0  0
   -5.2603   -1.1548   -3.4548 C   0  0  0  0  0  0  0  0  0  0  0  0
   -4.7364   -0.3504   -4.6638 C   0  0  0  0  0  0  0  0  0  0  0  0
   -6.7409   -0.7610   -3.1352 C   0  0  0  0  0  0  0  0  0  0  0  0
   -6.7970    0.3529   -2.0889 C   0  0  0  0  0  0  0  0  0  0  0  0
   -6.2956   -0.1777   -0.6971 C   0  0  2  0  0  0  0  0  0  0  0  0
   -7.4411   -0.9706   -0.0475 C   0  0  0  0  0  0  0  0  0  0  0  0
   -7.3050   -2.1468    0.2544 O   0  0  0  0  0  0  0  0  0  0  0  0
   -8.5933   -0.3111    0.2656 O   0  0  0  0  0  0  0  0  0  0  0  0
   -9.6799   -0.8461    0.9455 C   0  0  2  0  0  0  0  0  0  0  0  0
  -10.8357   -0.7250    0.1395 O   0  0  0  0  0  0  0  0  0  0  0  0
  -11.1727    0.6344   -0.1748 C   0  0  0  0  0  0  0  0  0  0  0  0
  -10.7317    1.7129    0.8591 C   0  0  2  0  0  0  0  0  0  0  0  0
   -9.4430    2.1936    0.5389 O   0  0  0  0  0  0  0  0  0  0  0  0
  -10.8380    1.0487    2.2457 C   0  0  2  0  0  0  0  0  0  0  0  0
  -10.6797    1.9441    3.3179 O   0  0  0  0  0  0  0  0  0  0  0  0
   -9.8702   -0.1569    2.3350 C   0  0  1  0  0  0  0  0  0  0  0  0
  -10.3322   -1.0552    3.3120 O   0  0  0  0  0  0  0  0  0  0  0  0
   -6.0673    1.0570    0.2438 C   0  0  0  0  0  0  0  0  0  0  0  0
   -4.6091    1.3352    0.5628 C   0  0  0  0  0  0  0  0  0  0  0  0
   -3.8691    0.1026    1.1817 C   0  0  1  0  0  0  0  0  0  0  0  0
   -4.6793   -0.3962    2.4391 C   0  0  0  0  0  0  0  0  0  0  0  0
   -3.9739   -1.0755    0.2220 C   0  0  0  0  0  0  0  0  0  0  0  0
   -3.1245   -2.1164    0.3664 C   0  0  0  0  0  0  0  0  0  0  0  0
   -2.0202   -2.0821    1.3931 C   0  0  0  0  0  0  0  0  0  0  0  0
   -1.3126   -0.7241    1.2048 C   0  0  2  0  0  0  0  0  0  0  0  0
    0.1610   -0.5886    1.7967 C   0  0  1  0  0  0  0  0  0  0  0  0
    0.1601   -1.1218    3.2643 C   0  0  0  0  0  0  0  0  0  0  0  0
    1.1286   -1.5431    0.9954 C   0  0  0  0  0  0  0  0  0  0  0  0
    1.8291   -0.8439   -0.1628 C   0  0  0  0  0  0  0  0  0  0  0  0
    2.8364    0.1845    0.3964 C   0  0  2  0  0  0  0  0  0  0  0  0
    3.8952   -0.5730    0.9673 O   0  0  0  0  0  0  0  0  0  0  0  0
    5.1441   -0.4655    0.3281 C   0  0  2  0  0  0  0  0  0  0  0  0
    5.3087   -1.5752   -0.5341 O   0  0  0  0  0  0  0  0  0  0  0  0
    6.5640   -1.5690   -1.2206 C   0  0  0  0  0  0  0  0  0  0  0  0
    7.6878   -0.7290   -0.5483 C   0  0  2  0  0  0  0  0  0  0  0  0
    8.9424   -1.1639   -1.0340 O   0  0  0  0  0  0  0  0  0  0  0  0
    9.8619   -0.1127   -1.2749 C   0  0  2  0  0  0  0  0  0  0  0  0
   10.1994   -0.1429   -2.6459 O   0  0  0  0  0  0  0  0  0  0  0  0
   10.9359    1.0206   -3.0213 C   0  0  2  0  0  0  0  0  0  0  0  0
   11.4049    0.8156   -4.4691 C   0  0  0  0  0  0  0  0  0  0  0  0
   12.0505    1.9616   -4.9549 O   0  0  0  0  0  0  0  0  0  0  0  0
   12.1472    1.3183   -2.0490 C   0  0  1  0  0  0  0  0  0  0  0  0
   11.9420    2.4687   -1.2611 O   0  0  0  0  0  0  0  0  0  0  0  0
   12.4194    0.0971   -1.1495 C   0  0  2  0  0  0  0  0  0  0  0  0
   12.9264   -0.9520   -1.9503 O   0  0  0  0  0  0  0  0  0  0  0  0
   11.1236   -0.3390   -0.3983 C   0  0  1  0  0  0  0  0  0  0  0  0
   10.9772    0.2935    0.8513 O   0  0  0  0  0  0  0  0  0  0  0  0
    7.6019   -0.9537    0.9594 C   0  0  2  0  0  0  0  0  0  0  0  0
    7.8115   -2.3210    1.2561 O   0  0  0  0  0  0  0  0  0  0  0  0
    6.2195   -0.4567    1.4556 C   0  0  1  0  0  0  0  0  0  0  0  0
    6.3122    0.8365    2.0034 O   0  0  0  0  0  0  0  0  0  0  0  0
    2.2284    1.1255    1.5266 C   0  0  0  0  0  0  0  0  0  0  0  0
    2.9052    0.8527    2.9061 C   0  0  0  0  0  0  0  0  0  0  0  0
    2.6098    2.5969    1.2064 C   0  0  0  0  0  0  0  0  0  0  0  0
    0.6537    0.9491    1.6864 C   0  0  1  0  0  0  0  0  0  0  0  0
   -0.1582    1.7342    0.5960 C   0  0  0  0  0  0  0  0  0  0  0  0
   -1.7166    1.6560    0.6846 C   0  0  0  0  0  0  0  0  0  0  0  0
   -2.3036    0.4769    1.5344 C   0  0  1  0  0  0  0  0  0  0  0  0
   -2.3042    0.9629    3.0253 C   0  0  0  0  0  0  0  0  0  0  0  0
   -5.0076   -1.1200   -0.8981 C   0  0  2  0  0  0  0  0  0  0  0  0
   -4.3124   -0.8570   -2.2451 C   0  0  0  0  0  0  0  0  0  0  0  0
   -5.8810   -2.8537   -4.7048 H   0  0  0  0  0  0  0  0  0  0  0  0
   -5.5830   -3.2881   -2.9874 H   0  0  0  0  0  0  0  0  0  0  0  0
   -4.1951   -2.9755   -4.0832 H   0  0  0  0  0  0  0  0  0  0  0  0
   -5.3597   -0.5424   -5.5637 H   0  0  0  0  0  0  0  0  0  0  0  0
   -3.6890   -0.6388   -4.9008 H   0  0  0  0  0  0  0  0  0  0  0  0
   -4.7603    0.7401   -4.4549 H   0  0  0  0  0  0  0  0  0  0  0  0
   -7.2964   -1.6173   -2.6918 H   0  0  0  0  0  0  0  0  0  0  0  0
   -7.2783   -0.4936   -4.0709 H   0  0  0  0  0  0  0  0  0  0  0  0
   -7.8289    0.7566   -1.9920 H   0  0  0  0  0  0  0  0  0  0  0  0
   -6.1611    1.1880   -2.4564 H   0  0  0  0  0  0  0  0  0  0  0  0
   -9.4918   -1.9245    1.1396 H   0  0  0  0  0  0  0  0  0  0  0  0
  -12.2832    0.6533   -0.1801 H   0  0  0  0  0  0  0  0  0  0  0  0
  -10.8427    0.9107   -1.1993 H   0  0  0  0  0  0  0  0  0  0  0  0
  -11.4280    2.5780    0.7924 H   0  0  0  0  0  0  0  0  0  0  0  0
   -8.8325    2.1125    1.3127 H   0  0  0  0  0  0  0  0  0  0  0  0
  -11.8818    0.6637    2.3016 H   0  0  0  0  0  0  0  0  0  0  0  0
   -9.7574    2.3032    3.2917 H   0  0  0  0  0  0  0  0  0  0  0  0
   -8.8536    0.1641    2.6532 H   0  0  0  0  0  0  0  0  0  0  0  0
  -11.1454   -1.4949    2.9544 H   0  0  0  0  0  0  0  0  0  0  0  0
   -6.5685    0.9236    1.2246 H   0  0  0  0  0  0  0  0  0  0  0  0
   -6.5609    1.9695   -0.1575 H   0  0  0  0  0  0  0  0  0  0  0  0
   -4.5640    2.1959    1.2646 H   0  0  0  0  0  0  0  0  0  0  0  0
   -4.1443    1.6468   -0.3903 H   0  0  0  0  0  0  0  0  0  0  0  0
   -5.6819   -0.7846    2.1728 H   0  0  0  0  0  0  0  0  0  0  0  0
   -4.8477    0.4172    3.1744 H   0  0  0  0  0  0  0  0  0  0  0  0
   -4.2014   -1.2411    2.9629 H   0  0  0  0  0  0  0  0  0  0  0  0
   -3.1672   -2.9561   -0.3222 H   0  0  0  0  0  0  0  0  0  0  0  0
   -1.3720   -2.9558    1.1941 H   0  0  0  0  0  0  0  0  0  0  0  0
   -2.3833   -2.1873    2.4307 H   0  0  0  0  0  0  0  0  0  0  0  0
   -1.1514   -0.6854    0.0986 H   0  0  0  0  0  0  0  0  0  0  0  0
   -0.1814   -2.1787    3.2949 H   0  0  0  0  0  0  0  0  0  0  0  0
   -0.4701   -0.5472    3.9526 H   0  0  0  0  0  0  0  0  0  0  0  0
    1.1513   -1.1454    3.7289 H   0  0  0  0  0  0  0  0  0  0  0  0
    0.6131   -2.4491    0.6314 H   0  0  0  0  0  0  0  0  0  0  0  0
    1.9436   -1.9233    1.6486 H   0  0  0  0  0  0  0  0  0  0  0  0
    1.0814   -0.4087   -0.8500 H   0  0  0  0  0  0  0  0  0  0  0  0
    2.3946   -1.5775   -0.7801 H   0  0  0  0  0  0  0  0  0  0  0  0
    3.1497    0.7796   -0.4925 H   0  0  0  0  0  0  0  0  0  0  0  0
    5.2440    0.4678   -0.2769 H   0  0  0  0  0  0  0  0  0  0  0  0
    6.4348   -1.2571   -2.2781 H   0  0  0  0  0  0  0  0  0  0  0  0
    6.9027   -2.6272   -1.2331 H   0  0  0  0  0  0  0  0  0  0  0  0
    7.4696    0.3423   -0.7677 H   0  0  0  0  0  0  0  0  0  0  0  0
    9.4511    0.9010   -1.0498 H   0  0  0  0  0  0  0  0  0  0  0  0
   10.2482    1.8953   -3.0730 H   0  0  0  0  0  0  0  0  0  0  0  0
   10.5324    0.5757   -5.1196 H   0  0  0  0  0  0  0  0  0  0  0  0
   12.1021   -0.0464   -4.5310 H   0  0  0  0  0  0  0  0  0  0  0  0
   11.3382    2.6393   -5.1215 H   0  0  0  0  0  0  0  0  0  0  0  0
   13.0640    1.5339   -2.6410 H   0  0  0  0  0  0  0  0  0  0  0  0
   10.9737    2.6102   -1.1145 H   0  0  0  0  0  0  0  0  0  0  0  0
   13.2159    0.3094   -0.4023 H   0  0  0  0  0  0  0  0  0  0  0  0
   12.1830   -1.5125   -2.2903 H   0  0  0  0  0  0  0  0  0  0  0  0
   11.2604   -1.4211   -0.1765 H   0  0  0  0  0  0  0  0  0  0  0  0
   10.9439    1.2723    0.7073 H   0  0  0  0  0  0  0  0  0  0  0  0
    8.3953   -0.3977    1.5053 H   0  0  0  0  0  0  0  0  0  0  0  0
    6.9620   -2.8194    1.1326 H   0  0  0  0  0  0  0  0  0  0  0  0
    5.9236   -1.1326    2.2892 H   0  0  0  0  0  0  0  0  0  0  0  0
    6.6860    1.4350    1.3045 H   0  0  0  0  0  0  0  0  0  0  0  0
    3.9815    1.1148    2.8767 H   0  0  0  0  0  0  0  0  0  0  0  0
    2.8824   -0.2065    3.1945 H   0  0  0  0  0  0  0  0  0  0  0  0
    2.4503    1.4687    3.7114 H   0  0  0  0  0  0  0  0  0  0  0  0
    3.7148    2.7211    1.1778 H   0  0  0  0  0  0  0  0  0  0  0  0
    2.2002    3.2901    1.9732 H   0  0  0  0  0  0  0  0  0  0  0  0
    2.2438    2.9096    0.2069 H   0  0  0  0  0  0  0  0  0  0  0  0
    0.4096    1.4974    2.6002 H   0  0  0  0  0  0  0  0  0  0  0  0
    0.1343    1.3671   -0.3996 H   0  0  0  0  0  0  0  0  0  0  0  0
    0.0909    2.8145    0.5765 H   0  0  0  0  0  0  0  0  0  0  0  0
   -2.0250    1.5532   -0.3773 H   0  0  0  0  0  0  0  0  0  0  0  0
   -2.1433    2.6205    1.0383 H   0  0  0  0  0  0  0  0  0  0  0  0
   -3.0329    1.7918    3.1468 H   0  0  0  0  0  0  0  0  0  0  0  0
   -1.3875    1.3934    3.4210 H   0  0  0  0  0  0  0  0  0  0  0  0
   -2.5740    0.1501    3.7271 H   0  0  0  0  0  0  0  0  0  0  0  0
   -5.3454   -2.1732   -0.9903 H   0  0  0  0  0  0  0  0  0  0  0  0
   -3.3686   -1.4343   -2.3684 H   0  0  0  0  0  0  0  0  0  0  0  0
   -4.0211    0.2155   -2.2321 H   0  0  0  0  0  0  0  0  0  0  0  0
  1  2  1  0  0  0  0
  1 63  1  0  0  0  0
  1 64  1  0  0  0  0
  1 65  1  0  0  0  0
  2  3  1  0  0  0  0
  2  4  1  0  0  0  0
  3 66  1  0  0  0  0
  3 67  1  0  0  0  0
  3 68  1  0  0  0  0
  4  5  1  0  0  0  0
  4 69  1  0  0  0  0
  4 70  1  0  0  0  0
  5  6  1  0  0  0  0
  5 71  1  0  0  0  0
  5 72  1  0  0  0  0
  6  7  1  1  0  0  0
  6 19  1  0  0  0  0
  7  8  2  0  0  0  0
  7  9  1  0  0  0  0
 10  9  1  0  0  0  0
 10 11  1  0  0  0  0
 10 73  1  1  0  0  0
 11 12  1  0  0  0  0
 12 13  1  0  0  0  0
 12 74  1  0  0  0  0
 12 75  1  0  0  0  0
 13 14  1  0  0  0  0
 13 15  1  0  0  0  0
 13 76  1  6  0  0  0
 14 77  1  0  0  0  0
 15 16  1  0  0  0  0
 15 17  1  0  0  0  0
 15 78  1  1  0  0  0
 16 79  1  0  0  0  0
 17 18  1  0  0  0  0
 17 10  1  0  0  0  0
 17 80  1  1  0  0  0
 18 81  1  0  0  0  0
 19 20  1  0  0  0  0
 19 82  1  0  0  0  0
 19 83  1  0  0  0  0
 20 21  1  0  0  0  0
 20 84  1  0  0  0  0
 20 85  1  0  0  0  0
 21 22  1  1  0  0  0
 21 23  1  0  0  0  0
 22 86  1  0  0  0  0
 22 87  1  0  0  0  0
 22 88  1  0  0  0  0
 23 24  2  0  0  0  0
 23 61  1  0  0  0  0
 24 25  1  0  0  0  0
 24 89  1  0  0  0  0
 25 90  1  0  0  0  0
 25 91  1  0  0  0  0
 26 25  1  0  0  0  0
 26 27  1  0  0  0  0
 26 92  1  6  0  0  0
 27 28  1  1  0  0  0
 27 29  1  0  0  0  0
 28 93  1  0  0  0  0
 28 94  1  0  0  0  0
 28 95  1  0  0  0  0
 29 30  1  0  0  0  0
 29 96  1  0  0  0  0
 29 97  1  0  0  0  0
 30 31  1  0  0  0  0
 30 98  1  0  0  0  0
 30 99  1  0  0  0  0
 31 32  1  0  0  0  0
 31 53  1  0  0  0  0
 31100  1  6  0  0  0
 33 32  1  0  0  0  0
 33 34  1  0  0  0  0
 33101  1  6  0  0  0
 34 35  1  0  0  0  0
 35 36  1  0  0  0  0
 35102  1  0  0  0  0
 35103  1  0  0  0  0
 36 37  1  0  0  0  0
 36 49  1  0  0  0  0
 36104  1  6  0  0  0
 38 37  1  0  0  0  0
 38 39  1  0  0  0  0
 38105  1  1  0  0  0
 39 40  1  0  0  0  0
 40 41  1  0  0  0  0
 40 43  1  0  0  0  0
 40106  1  1  0  0  0
 41 42  1  0  0  0  0
 41107  1  0  0  0  0
 41108  1  0  0  0  0
 42109  1  0  0  0  0
 43 44  1  0  0  0  0
 43 45  1  0  0  0  0
 43110  1  6  0  0  0
 44111  1  0  0  0  0
 45 46  1  0  0  0  0
 45 47  1  0  0  0  0
 45112  1  1  0  0  0
 46113  1  0  0  0  0
 47 48  1  0  0  0  0
 47 38  1  0  0  0  0
 47114  1  1  0  0  0
 48115  1  0  0  0  0
 49 50  1  0  0  0  0
 49 51  1  0  0  0  0
 49116  1  1  0  0  0
 50117  1  0  0  0  0
 51 52  1  0  0  0  0
 51 33  1  0  0  0  0
 51118  1  1  0  0  0
 52119  1  0  0  0  0
 53 54  1  0  0  0  0
 53 55  1  0  0  0  0
 53 56  1  0  0  0  0
 54120  1  0  0  0  0
 54121  1  0  0  0  0
 54122  1  0  0  0  0
 55123  1  0  0  0  0
 55124  1  0  0  0  0
 55125  1  0  0  0  0
 56 57  1  0  0  0  0
 56 27  1  0  0  0  0
 56126  1  1  0  0  0
 57 58  1  0  0  0  0
 57127  1  0  0  0  0
 57128  1  0  0  0  0
 58 59  1  0  0  0  0
 58129  1  0  0  0  0
 58130  1  0  0  0  0
 59 60  1  1  0  0  0
 59 21  1  0  0  0  0
 59 26  1  0  0  0  0
 60131  1  0  0  0  0
 60132  1  0  0  0  0
 60133  1  0  0  0  0
 61 62  1  0  0  0  0
 61  6  1  0  0  0  0
 61134  1  6  0  0  0
 62  2  1  0  0  0  0
 62135  1  0  0  0  0
 62136  1  0  0  0  0
M  END
>  <IDENTIFIER>
CNP0403720.1

>  <Energy>
2337.89

$$$$
