
 OpenBabel09062520323D

140148  0  0  0  0  0  0  0  0999 V2000
    4.8100    2.0959    0.4599 C   0  0  0  0  0  0  0  0  0  0  0  0
    4.1380    0.7395    0.2344 C   0  0  1  0  0  0  0  0  0  0  0  0
    3.4724    0.7838   -1.0229 O   0  0  0  0  0  0  0  0  0  0  0  0
    2.7695   -0.4161   -1.3222 C   0  0  2  0  0  0  0  0  0  0  0  0
    1.5978   -0.5271   -0.5181 O   0  0  0  0  0  0  0  0  0  0  0  0
    0.3877   -0.4287   -1.2711 C   0  0  1  0  0  0  0  0  0  0  0  0
   -0.5977   -1.5071   -0.7958 C   0  0  1  0  0  0  0  0  0  0  0  0
   -0.0564   -2.7967   -0.9473 O   0  0  0  0  0  0  0  0  0  0  0  0
   -0.9804   -1.2236    0.6584 C   0  0  0  0  0  0  0  0  0  0  0  0
   -1.5646    0.1941    0.7770 C   0  0  2  0  0  0  0  0  0  0  0  0
   -2.8117    0.2743    0.1001 O   0  0  0  0  0  0  0  0  0  0  0  0
   -3.8903    0.6997    0.9216 C   0  0  1  0  0  0  0  0  0  0  0  0
   -4.7315    1.7361    0.1325 C   0  0  0  0  0  0  0  0  0  0  0  0
   -5.4670    1.0628   -1.0338 C   0  0  0  0  0  0  0  0  0  0  0  0
   -6.3775   -0.1460   -0.5726 C   0  0  2  0  0  0  0  0  0  0  0  0
   -5.8994   -1.3674   -1.4321 C   0  0  0  0  0  0  0  0  0  0  0  0
   -7.9071    0.1073   -0.8797 C   0  0  2  0  0  0  0  0  0  0  0  0
   -8.5025    1.4351   -0.3071 C   0  0  0  0  0  0  0  0  0  0  0  0
   -9.9158    1.6996   -0.8903 C   0  0  1  0  0  0  0  0  0  0  0  0
   -9.7827    2.0423   -2.2535 O   0  0  0  0  0  0  0  0  0  0  0  0
  -10.9423    0.5229   -0.6530 C   0  0  2  0  0  0  0  0  0  0  0  0
  -12.1478    0.7471   -1.6266 C   0  0  0  0  0  0  0  0  0  0  0  0
  -11.4734    0.4397    0.8231 C   0  0  1  0  0  0  0  0  0  0  0  0
  -12.6993    1.2780    1.2063 C   0  0  0  0  0  0  0  0  0  0  0  0
  -12.6523    2.3730    1.9562 C   0  0  0  0  0  0  0  0  0  0  0  0
  -14.0139    2.8285    2.0874 C   0  0  0  0  0  0  0  0  0  0  0  0
  -14.3655    3.8275    2.6966 O   0  0  0  0  0  0  0  0  0  0  0  0
  -14.8669    2.0161    1.4505 O   0  0  0  0  0  0  0  0  0  0  0  0
  -14.1581    0.9947    0.8482 C   0  0  0  0  0  0  0  0  0  0  0  0
  -11.6782   -1.0628    1.1285 C   0  0  0  0  0  0  0  0  0  0  0  0
  -11.2911   -1.8103   -0.1556 C   0  0  0  0  0  0  0  0  0  0  0  0
  -10.2894   -0.8912   -0.8900 C   0  0  1  0  0  0  0  0  0  0  0  0
  -10.2736   -1.1698   -2.2737 O   0  0  0  0  0  0  0  0  0  0  0  0
   -8.7999   -1.0765   -0.3778 C   0  0  2  0  0  0  0  0  0  0  0  0
   -8.5489   -1.3464    1.1363 C   0  0  0  0  0  0  0  0  0  0  0  0
   -7.0601   -1.6074    1.4320 C   0  0  0  0  0  0  0  0  0  0  0  0
   -6.2115   -0.4098    0.9705 C   0  0  1  0  0  0  0  0  0  0  0  0
   -4.7217   -0.5474    1.3490 C   0  0  0  0  0  0  0  0  0  0  0  0
   -0.6653    1.1895    0.2872 O   0  0  0  0  0  0  0  0  0  0  0  0
   -0.2271    0.9769   -1.0593 C   0  0  2  0  0  0  0  0  0  0  0  0
   -1.3017    1.3362   -2.1043 C   0  0  0  0  0  0  0  0  0  0  0  0
    3.6617   -1.6802   -1.2227 C   0  0  0  0  0  0  0  0  0  0  0  0
    4.4742   -1.7408    0.0846 C   0  0  2  0  0  0  0  0  0  0  0  0
    3.7021   -2.0664    1.2192 O   0  0  0  0  0  0  0  0  0  0  0  0
    5.1899   -0.3942    0.2421 C   0  0  2  0  0  0  0  0  0  0  0  0
    5.9687   -0.3698    1.4369 O   0  0  0  0  0  0  0  0  0  0  0  0
    7.3594   -0.2608    1.1546 C   0  0  1  0  0  0  0  0  0  0  0  0
    8.0756    0.4802    2.3058 C   0  0  0  0  0  0  0  0  0  0  0  0
    9.6124    0.2652    2.2384 C   0  0  2  0  0  0  0  0  0  0  0  0
   10.3011    1.4006    2.6937 O   0  0  0  0  0  0  0  0  0  0  0  0
   10.0314   -0.1575    0.8196 C   0  0  1  0  0  0  0  0  0  0  0  0
   11.4440   -0.3397    0.7466 O   0  0  0  0  0  0  0  0  0  0  0  0
   12.0895    0.4795   -0.2215 C   0  0  2  0  0  0  0  0  0  0  0  0
   12.5216   -0.3798   -1.2867 O   0  0  0  0  0  0  0  0  0  0  0  0
   13.7113    0.0792   -1.8968 C   0  0  2  0  0  0  0  0  0  0  0  0
   13.9860   -0.6993   -3.1874 C   0  0  0  0  0  0  0  0  0  0  0  0
   12.9149   -0.5609   -4.0819 O   0  0  0  0  0  0  0  0  0  0  0  0
   14.9125   -0.0353   -0.9090 C   0  0  1  0  0  0  0  0  0  0  0  0
   15.9732    0.7768   -1.3513 O   0  0  0  0  0  0  0  0  0  0  0  0
   14.4782    0.3158    0.5517 C   0  0  2  0  0  0  0  0  0  0  0  0
   14.1704   -0.8404    1.3019 O   0  0  0  0  0  0  0  0  0  0  0  0
   13.2514    1.2429    0.5119 C   0  0  1  0  0  0  0  0  0  0  0  0
   13.5973    2.4250   -0.1670 O   0  0  0  0  0  0  0  0  0  0  0  0
    9.2709   -1.4925    0.4722 C   0  0  1  0  0  0  0  0  0  0  0  0
    9.9910   -2.7244    1.0419 C   0  0  0  0  0  0  0  0  0  0  0  0
    7.9178   -1.5446    0.9556 O   0  0  0  0  0  0  0  0  0  0  0  0
    4.0455    2.9011    0.4411 H   0  0  0  0  0  0  0  0  0  0  0  0
    5.5628    2.2960   -0.3317 H   0  0  0  0  0  0  0  0  0  0  0  0
    5.3110    2.1230    1.4512 H   0  0  0  0  0  0  0  0  0  0  0  0
    3.4038    0.6176    1.0618 H   0  0  0  0  0  0  0  0  0  0  0  0
    2.5416   -0.3571   -2.4090 H   0  0  0  0  0  0  0  0  0  0  0  0
    0.5315   -0.6093   -2.3606 H   0  0  0  0  0  0  0  0  0  0  0  0
   -1.5196   -1.4634   -1.4144 H   0  0  0  0  0  0  0  0  0  0  0  0
    0.7081   -2.8863   -0.3205 H   0  0  0  0  0  0  0  0  0  0  0  0
   -0.0728   -1.2926    1.2987 H   0  0  0  0  0  0  0  0  0  0  0  0
   -1.7165   -1.9728    1.0215 H   0  0  0  0  0  0  0  0  0  0  0  0
   -1.6635    0.3501    1.8751 H   0  0  0  0  0  0  0  0  0  0  0  0
   -3.5613    1.2665    1.8233 H   0  0  0  0  0  0  0  0  0  0  0  0
   -4.0725    2.5511   -0.2391 H   0  0  0  0  0  0  0  0  0  0  0  0
   -5.4811    2.2107    0.8014 H   0  0  0  0  0  0  0  0  0  0  0  0
   -4.6620    0.7189   -1.7208 H   0  0  0  0  0  0  0  0  0  0  0  0
   -6.0278    1.8024   -1.6394 H   0  0  0  0  0  0  0  0  0  0  0  0
   -6.0576   -1.1552   -2.5124 H   0  0  0  0  0  0  0  0  0  0  0  0
   -6.4100   -2.3202   -1.2161 H   0  0  0  0  0  0  0  0  0  0  0  0
   -4.8152   -1.5609   -1.3013 H   0  0  0  0  0  0  0  0  0  0  0  0
   -7.9654    0.1687   -1.9844 H   0  0  0  0  0  0  0  0  0  0  0  0
   -7.8764    2.3093   -0.5732 H   0  0  0  0  0  0  0  0  0  0  0  0
   -8.5384    1.4188    0.7971 H   0  0  0  0  0  0  0  0  0  0  0  0
  -10.3339    2.6096   -0.4060 H   0  0  0  0  0  0  0  0  0  0  0  0
   -9.6374    1.2233   -2.7874 H   0  0  0  0  0  0  0  0  0  0  0  0
  -12.5923    1.7514   -1.4601 H   0  0  0  0  0  0  0  0  0  0  0  0
  -12.9381   -0.0171   -1.5310 H   0  0  0  0  0  0  0  0  0  0  0  0
  -11.8383    0.7211   -2.6907 H   0  0  0  0  0  0  0  0  0  0  0  0
  -10.6341    0.7766    1.4642 H   0  0  0  0  0  0  0  0  0  0  0  0
  -11.7660    2.8284    2.3775 H   0  0  0  0  0  0  0  0  0  0  0  0
  -14.3671    1.0144   -0.2339 H   0  0  0  0  0  0  0  0  0  0  0  0
  -14.4888    0.0224    1.2653 H   0  0  0  0  0  0  0  0  0  0  0  0
  -12.6952   -1.3606    1.4555 H   0  0  0  0  0  0  0  0  0  0  0  0
  -11.0228   -1.3263    1.9799 H   0  0  0  0  0  0  0  0  0  0  0  0
  -12.2127   -1.8634   -0.7686 H   0  0  0  0  0  0  0  0  0  0  0  0
  -10.9757   -2.8646   -0.0071 H   0  0  0  0  0  0  0  0  0  0  0  0
  -10.2159   -2.1545   -2.3899 H   0  0  0  0  0  0  0  0  0  0  0  0
   -8.4733   -2.0220   -0.8517 H   0  0  0  0  0  0  0  0  0  0  0  0
   -9.0975   -2.2558    1.4569 H   0  0  0  0  0  0  0  0  0  0  0  0
   -8.8726   -0.5006    1.7663 H   0  0  0  0  0  0  0  0  0  0  0  0
   -6.7275   -2.5427    0.9380 H   0  0  0  0  0  0  0  0  0  0  0  0
   -6.9361   -1.7580    2.5265 H   0  0  0  0  0  0  0  0  0  0  0  0
   -6.5927    0.4631    1.5409 H   0  0  0  0  0  0  0  0  0  0  0  0
   -4.3123   -1.4588    0.8640 H   0  0  0  0  0  0  0  0  0  0  0  0
   -4.6020   -0.7120    2.4414 H   0  0  0  0  0  0  0  0  0  0  0  0
    0.5899    1.7072   -1.2499 H   0  0  0  0  0  0  0  0  0  0  0  0
   -2.1597    0.6409   -2.1142 H   0  0  0  0  0  0  0  0  0  0  0  0
   -0.8551    1.3041   -3.1211 H   0  0  0  0  0  0  0  0  0  0  0  0
   -1.6730    2.3668   -1.9224 H   0  0  0  0  0  0  0  0  0  0  0  0
    4.4076   -1.6089   -2.0468 H   0  0  0  0  0  0  0  0  0  0  0  0
    3.0759   -2.6090   -1.3912 H   0  0  0  0  0  0  0  0  0  0  0  0
    5.2295   -2.5495   -0.0219 H   0  0  0  0  0  0  0  0  0  0  0  0
    2.8400   -1.5866    1.1897 H   0  0  0  0  0  0  0  0  0  0  0  0
    5.8011   -0.2531   -0.6833 H   0  0  0  0  0  0  0  0  0  0  0  0
    7.5322    0.3642    0.2453 H   0  0  0  0  0  0  0  0  0  0  0  0
    7.7279    0.1582    3.3105 H   0  0  0  0  0  0  0  0  0  0  0  0
    7.8126    1.5548    2.1837 H   0  0  0  0  0  0  0  0  0  0  0  0
    9.8775   -0.5800    2.9078 H   0  0  0  0  0  0  0  0  0  0  0  0
   10.1732    2.1161    2.0163 H   0  0  0  0  0  0  0  0  0  0  0  0
    9.6554    0.6407    0.1464 H   0  0  0  0  0  0  0  0  0  0  0  0
   11.4202    1.2616   -0.6428 H   0  0  0  0  0  0  0  0  0  0  0  0
   13.5545    1.1387   -2.2055 H   0  0  0  0  0  0  0  0  0  0  0  0
   14.1714   -1.7767   -2.9696 H   0  0  0  0  0  0  0  0  0  0  0  0
   14.9010   -0.3026   -3.6762 H   0  0  0  0  0  0  0  0  0  0  0  0
   12.2269   -1.2223   -3.8075 H   0  0  0  0  0  0  0  0  0  0  0  0
   15.3096   -1.0746   -0.8774 H   0  0  0  0  0  0  0  0  0  0  0  0
   15.6824    1.7234   -1.2965 H   0  0  0  0  0  0  0  0  0  0  0  0
   15.3356    0.7959    1.0731 H   0  0  0  0  0  0  0  0  0  0  0  0
   13.7458   -1.5154    0.7109 H   0  0  0  0  0  0  0  0  0  0  0  0
   12.9380    1.5283    1.5417 H   0  0  0  0  0  0  0  0  0  0  0  0
   12.7963    3.0116   -0.1628 H   0  0  0  0  0  0  0  0  0  0  0  0
    9.2753   -1.6159   -0.6328 H   0  0  0  0  0  0  0  0  0  0  0  0
   10.0389   -2.6949    2.1493 H   0  0  0  0  0  0  0  0  0  0  0  0
   11.0217   -2.8018    0.6361 H   0  0  0  0  0  0  0  0  0  0  0  0
    9.4438   -3.6444    0.7460 H   0  0  0  0  0  0  0  0  0  0  0  0
  1 67  1  0  0  0  0
  1 68  1  0  0  0  0
  1 69  1  0  0  0  0
  2  1  1  0  0  0  0
  2  3  1  0  0  0  0
  2 70  1  1  0  0  0
  3  4  1  0  0  0  0
  4  5  1  0  0  0  0
  4 42  1  0  0  0  0
  4 71  1  6  0  0  0
  6  5  1  0  0  0  0
  6  7  1  0  0  0  0
  6 72  1  6  0  0  0
  7  8  1  0  0  0  0
  7  9  1  0  0  0  0
  7 73  1  6  0  0  0
  8 74  1  0  0  0  0
  9 10  1  0  0  0  0
  9 75  1  0  0  0  0
  9 76  1  0  0  0  0
 10 11  1  0  0  0  0
 10 39  1  0  0  0  0
 10 77  1  1  0  0  0
 12 11  1  0  0  0  0
 12 13  1  0  0  0  0
 12 78  1  1  0  0  0
 13 14  1  0  0  0  0
 13 79  1  0  0  0  0
 13 80  1  0  0  0  0
 14 15  1  0  0  0  0
 14 81  1  0  0  0  0
 14 82  1  0  0  0  0
 15 16  1  6  0  0  0
 15 17  1  0  0  0  0
 16 83  1  0  0  0  0
 16 84  1  0  0  0  0
 16 85  1  0  0  0  0
 17 18  1  0  0  0  0
 17 86  1  6  0  0  0
 18 19  1  0  0  0  0
 18 87  1  0  0  0  0
 18 88  1  0  0  0  0
 19 20  1  0  0  0  0
 19 21  1  0  0  0  0
 19 89  1  1  0  0  0
 20 90  1  0  0  0  0
 21 22  1  6  0  0  0
 21 23  1  0  0  0  0
 22 91  1  0  0  0  0
 22 92  1  0  0  0  0
 22 93  1  0  0  0  0
 23 24  1  0  0  0  0
 23 30  1  0  0  0  0
 23 94  1  1  0  0  0
 24 25  2  0  0  0  0
 25 26  1  0  0  0  0
 25 95  1  0  0  0  0
 26 27  2  0  0  0  0
 26 28  1  0  0  0  0
 28 29  1  0  0  0  0
 29 24  1  0  0  0  0
 29 96  1  0  0  0  0
 29 97  1  0  0  0  0
 30 31  1  0  0  0  0
 30 98  1  0  0  0  0
 30 99  1  0  0  0  0
 31 32  1  0  0  0  0
 31100  1  0  0  0  0
 31101  1  0  0  0  0
 32 33  1  6  0  0  0
 32 34  1  0  0  0  0
 32 21  1  0  0  0  0
 33102  1  0  0  0  0
 34 35  1  0  0  0  0
 34 17  1  0  0  0  0
 34103  1  6  0  0  0
 35 36  1  0  0  0  0
 35104  1  0  0  0  0
 35105  1  0  0  0  0
 36106  1  0  0  0  0
 36107  1  0  0  0  0
 37 36  1  0  0  0  0
 37 38  1  0  0  0  0
 37 15  1  0  0  0  0
 37108  1  1  0  0  0
 38 12  1  0  0  0  0
 38109  1  0  0  0  0
 38110  1  0  0  0  0
 39 40  1  0  0  0  0
 40 41  1  0  0  0  0
 40  6  1  0  0  0  0
 40111  1  6  0  0  0
 41112  1  0  0  0  0
 41113  1  0  0  0  0
 41114  1  0  0  0  0
 42 43  1  0  0  0  0
 42115  1  0  0  0  0
 42116  1  0  0  0  0
 43 44  1  0  0  0  0
 43 45  1  0  0  0  0
 43117  1  6  0  0  0
 44118  1  0  0  0  0
 45 46  1  0  0  0  0
 45  2  1  0  0  0  0
 45119  1  6  0  0  0
 47 46  1  0  0  0  0
 47 48  1  0  0  0  0
 47120  1  6  0  0  0
 48 49  1  0  0  0  0
 48121  1  0  0  0  0
 48122  1  0  0  0  0
 49 50  1  0  0  0  0
 49 51  1  0  0  0  0
 49123  1  1  0  0  0
 50124  1  0  0  0  0
 51 52  1  0  0  0  0
 51 64  1  0  0  0  0
 51125  1  6  0  0  0
 53 52  1  0  0  0  0
 53 54  1  0  0  0  0
 53126  1  6  0  0  0
 54 55  1  0  0  0  0
 55 56  1  0  0  0  0
 55 58  1  0  0  0  0
 55127  1  6  0  0  0
 56 57  1  0  0  0  0
 56128  1  0  0  0  0
 56129  1  0  0  0  0
 57130  1  0  0  0  0
 58 59  1  0  0  0  0
 58 60  1  0  0  0  0
 58131  1  6  0  0  0
 59132  1  0  0  0  0
 60 61  1  0  0  0  0
 60 62  1  0  0  0  0
 60133  1  1  0  0  0
 61134  1  0  0  0  0
 62 63  1  0  0  0  0
 62 53  1  0  0  0  0
 62135  1  1  0  0  0
 63136  1  0  0  0  0
 64 65  1  0  0  0  0
 64 66  1  0  0  0  0
 64137  1  6  0  0  0
 65138  1  0  0  0  0
 65139  1  0  0  0  0
 65140  1  0  0  0  0
 66 47  1  0  0  0  0
M  END
>  <IDENTIFIER>
CNP0116456.2

>  <Energy>
1991.16

$$$$
