
 OpenBabel09082510193D

114121  0  0  0  0  0  0  0  0999 V2000
    6.6896    0.5020    2.3486 C   0  0  0  0  0  0  0  0  0  0  0  0
    6.0251    0.3141    0.9827 C   0  0  2  0  0  0  0  0  0  0  0  0
    4.8147   -0.4022    1.1953 O   0  0  0  0  0  0  0  0  0  0  0  0
    4.0840   -0.6416   -0.0013 C   0  0  1  0  0  0  0  0  0  0  0  0
    3.4591    0.5590   -0.4642 O   0  0  0  0  0  0  0  0  0  0  0  0
    2.0515    0.4966   -0.2721 C   0  0  1  0  0  0  0  0  0  0  0  0
    1.6914    0.9100    1.1667 C   0  0  0  0  0  0  0  0  0  0  0  0
    0.1987    0.6708    1.3977 C   0  0  0  0  0  0  0  0  0  0  0  0
   -0.7399    1.4094    0.3888 C   0  0  1  0  0  0  0  0  0  0  0  0
   -0.7651    2.9287    0.6941 C   0  0  0  0  0  0  0  0  0  0  0  0
   -0.1829    1.2416   -1.0345 C   0  0  0  0  0  0  0  0  0  0  0  0
   -0.9626    0.9064   -2.0853 C   0  0  0  0  0  0  0  0  0  0  0  0
   -2.4525    0.6973   -2.0035 C   0  0  0  0  0  0  0  0  0  0  0  0
   -3.0934    1.1401   -0.6667 C   0  0  1  0  0  0  0  0  0  0  0  0
   -4.4609    0.4180   -0.5039 C   0  0  2  0  0  0  0  0  0  0  0  0
   -5.6017    0.6587   -1.4999 C   0  0  0  0  0  0  0  0  0  0  0  0
   -6.7094   -0.1855   -0.8429 C   0  0  2  0  0  0  0  0  0  0  0  0
   -8.0377    0.2587   -1.0210 O   0  0  0  0  0  0  0  0  0  0  0  0
   -8.7148   -0.2059    0.1472 C   0  0  2  0  0  0  0  0  0  0  0  0
   -8.9086   -1.6224    0.0727 O   0  0  0  0  0  0  0  0  0  0  0  0
   -9.6600   -1.9754   -1.0836 C   0  0  0  0  0  0  0  0  0  0  0  0
  -11.0862   -1.3836   -1.0345 C   0  0  2  0  0  0  0  0  0  0  0  0
  -11.8976   -1.7428   -2.2904 C   0  0  0  0  0  0  0  0  0  0  0  0
  -12.0465   -3.1330   -2.4088 O   0  0  0  0  0  0  0  0  0  0  0  0
  -10.9818    0.1447   -0.8918 C   0  0  0  0  0  0  0  0  0  0  0  0
  -10.0909    0.5044    0.3058 C   0  0  1  0  0  0  0  0  0  0  0  0
  -10.7385    0.1754    1.5135 O   0  0  0  0  0  0  0  0  0  0  0  0
   -7.7398    0.1509    1.2917 C   0  0  1  0  0  0  0  0  0  0  0  0
   -7.9506   -0.5077    2.6615 C   0  0  0  0  0  0  0  0  0  0  0  0
   -6.4085   -0.2248    0.6620 C   0  0  2  0  0  0  0  0  0  0  0  0
   -5.1503    0.6757    0.8488 C   0  0  2  0  0  0  0  0  0  0  0  0
   -5.5118    2.1804    1.0848 C   0  0  0  0  0  0  0  0  0  0  0  0
   -4.1808    0.2483    1.9194 C   0  0  0  0  0  0  0  0  0  0  0  0
   -4.4421   -0.6451    2.7110 O   0  0  0  0  0  0  0  0  0  0  0  0
   -2.8259    0.9092    1.9109 C   0  0  0  0  0  0  0  0  0  0  0  0
   -2.1593    0.7252    0.5088 C   0  0  2  0  0  0  0  0  0  0  0  0
    1.3166    1.4205   -1.2477 C   0  0  0  0  0  0  0  0  0  0  0  0
    4.9306   -1.3389   -1.0972 C   0  0  1  0  0  0  0  0  0  0  0  0
    4.2096   -1.5278   -2.2888 O   0  0  0  0  0  0  0  0  0  0  0  0
    6.2857   -0.6501   -1.3333 C   0  0  1  0  0  0  0  0  0  0  0  0
    6.1841    0.5723   -2.0296 O   0  0  0  0  0  0  0  0  0  0  0  0
    6.9594   -0.4800    0.0367 C   0  0  1  0  0  0  0  0  0  0  0  0
    8.2246    0.1553   -0.1273 O   0  0  0  0  0  0  0  0  0  0  0  0
    9.3104   -0.7132    0.1909 C   0  0  2  0  0  0  0  0  0  0  0  0
    9.7866   -0.3255    1.4871 O   0  0  0  0  0  0  0  0  0  0  0  0
   11.1499   -0.6297    1.7250 C   0  0  1  0  0  0  0  0  0  0  0  0
   11.3251   -2.1626    1.8679 C   0  0  0  0  0  0  0  0  0  0  0  0
   12.6182   -2.4679    2.3127 O   0  0  0  0  0  0  0  0  0  0  0  0
   12.0921    0.1200    0.7140 C   0  0  1  0  0  0  0  0  0  0  0  0
   13.2930   -0.5874    0.5181 O   0  0  0  0  0  0  0  0  0  0  0  0
   11.3875    0.4635   -0.6358 C   0  0  2  0  0  0  0  0  0  0  0  0
   10.7338    1.7141   -0.5939 O   0  0  0  0  0  0  0  0  0  0  0  0
   10.3837   -0.6459   -0.9412 C   0  0  2  0  0  0  0  0  0  0  0  0
    9.8000   -0.5373   -2.2166 O   0  0  0  0  0  0  0  0  0  0  0  0
    6.0020    1.0473    3.0294 H   0  0  0  0  0  0  0  0  0  0  0  0
    7.6230    1.0950    2.2530 H   0  0  0  0  0  0  0  0  0  0  0  0
    6.9292   -0.4835    2.8039 H   0  0  0  0  0  0  0  0  0  0  0  0
    5.8106    1.3338    0.5956 H   0  0  0  0  0  0  0  0  0  0  0  0
    3.3460   -1.4337    0.2688 H   0  0  0  0  0  0  0  0  0  0  0  0
    1.6626   -0.5251   -0.5052 H   0  0  0  0  0  0  0  0  0  0  0  0
    1.9685    1.9716    1.3471 H   0  0  0  0  0  0  0  0  0  0  0  0
    2.2507    0.2866    1.8960 H   0  0  0  0  0  0  0  0  0  0  0  0
   -0.0523    0.9389    2.4456 H   0  0  0  0  0  0  0  0  0  0  0  0
    0.0567   -0.4280    1.2897 H   0  0  0  0  0  0  0  0  0  0  0  0
    0.2436    3.3797    0.6030 H   0  0  0  0  0  0  0  0  0  0  0  0
   -1.1117    3.1340    1.7259 H   0  0  0  0  0  0  0  0  0  0  0  0
   -1.4270    3.4666   -0.0155 H   0  0  0  0  0  0  0  0  0  0  0  0
   -0.5068    0.7449   -3.0582 H   0  0  0  0  0  0  0  0  0  0  0  0
   -2.5911   -0.3926   -2.1708 H   0  0  0  0  0  0  0  0  0  0  0  0
   -2.9661    1.2362   -2.8284 H   0  0  0  0  0  0  0  0  0  0  0  0
   -3.2206    2.2411   -0.6566 H   0  0  0  0  0  0  0  0  0  0  0  0
   -4.2194   -0.6761   -0.5574 H   0  0  0  0  0  0  0  0  0  0  0  0
   -5.3924    0.3515   -2.5464 H   0  0  0  0  0  0  0  0  0  0  0  0
   -5.8642    1.7332   -1.5191 H   0  0  0  0  0  0  0  0  0  0  0  0
   -6.6121   -1.2255   -1.2425 H   0  0  0  0  0  0  0  0  0  0  0  0
   -9.7261   -3.0827   -1.1215 H   0  0  0  0  0  0  0  0  0  0  0  0
   -9.1273   -1.6682   -2.0117 H   0  0  0  0  0  0  0  0  0  0  0  0
  -11.6139   -1.8028   -0.1506 H   0  0  0  0  0  0  0  0  0  0  0  0
  -11.4218   -1.3149   -3.2048 H   0  0  0  0  0  0  0  0  0  0  0  0
  -12.9113   -1.2934   -2.2196 H   0  0  0  0  0  0  0  0  0  0  0  0
  -11.3223   -3.4516   -3.0087 H   0  0  0  0  0  0  0  0  0  0  0  0
  -11.9863    0.6062   -0.7762 H   0  0  0  0  0  0  0  0  0  0  0  0
  -10.5166    0.5625   -1.8125 H   0  0  0  0  0  0  0  0  0  0  0  0
   -9.9364    1.6054    0.3086 H   0  0  0  0  0  0  0  0  0  0  0  0
  -10.7047   -0.8075    1.6388 H   0  0  0  0  0  0  0  0  0  0  0  0
   -7.8173    1.2490    1.3967 H   0  0  0  0  0  0  0  0  0  0  0  0
   -7.9177   -1.6148    2.5724 H   0  0  0  0  0  0  0  0  0  0  0  0
   -8.9159   -0.2107    3.1123 H   0  0  0  0  0  0  0  0  0  0  0  0
   -7.1458   -0.1858    3.3553 H   0  0  0  0  0  0  0  0  0  0  0  0
   -6.1582   -1.2961    0.8562 H   0  0  0  0  0  0  0  0  0  0  0  0
   -5.9397    2.3047    2.1027 H   0  0  0  0  0  0  0  0  0  0  0  0
   -6.2597    2.5777    0.3728 H   0  0  0  0  0  0  0  0  0  0  0  0
   -4.6324    2.8485    1.0230 H   0  0  0  0  0  0  0  0  0  0  0  0
   -2.2026    0.4660    2.7133 H   0  0  0  0  0  0  0  0  0  0  0  0
   -2.9574    1.9817    2.1433 H   0  0  0  0  0  0  0  0  0  0  0  0
   -2.0162   -0.3749    0.3856 H   0  0  0  0  0  0  0  0  0  0  0  0
    1.6114    2.4742   -1.0583 H   0  0  0  0  0  0  0  0  0  0  0  0
    1.6108    1.1739   -2.2916 H   0  0  0  0  0  0  0  0  0  0  0  0
    5.1773   -2.3487   -0.6968 H   0  0  0  0  0  0  0  0  0  0  0  0
    3.9901   -0.6313   -2.6526 H   0  0  0  0  0  0  0  0  0  0  0  0
    6.9089   -1.3215   -1.9631 H   0  0  0  0  0  0  0  0  0  0  0  0
    5.5111    1.1484   -1.5925 H   0  0  0  0  0  0  0  0  0  0  0  0
    7.0260   -1.4893    0.5089 H   0  0  0  0  0  0  0  0  0  0  0  0
    9.0114   -1.7860    0.2034 H   0  0  0  0  0  0  0  0  0  0  0  0
   11.4131   -0.2412    2.7338 H   0  0  0  0  0  0  0  0  0  0  0  0
   11.1172   -2.6926    0.9177 H   0  0  0  0  0  0  0  0  0  0  0  0
   10.5975   -2.5183    2.6323 H   0  0  0  0  0  0  0  0  0  0  0  0
   12.6951   -3.4568    2.2795 H   0  0  0  0  0  0  0  0  0  0  0  0
   12.3879    1.1047    1.1379 H   0  0  0  0  0  0  0  0  0  0  0  0
   13.1022   -1.3574   -0.0780 H   0  0  0  0  0  0  0  0  0  0  0  0
   12.1659    0.5420   -1.4264 H   0  0  0  0  0  0  0  0  0  0  0  0
   10.3305    1.8448    0.3025 H   0  0  0  0  0  0  0  0  0  0  0  0
   10.9740   -1.5837   -0.9511 H   0  0  0  0  0  0  0  0  0  0  0  0
    9.4399    0.3819   -2.3133 H   0  0  0  0  0  0  0  0  0  0  0  0
  1 55  1  0  0  0  0
  1 56  1  0  0  0  0
  1 57  1  0  0  0  0
  2  1  1  0  0  0  0
  2  3  1  0  0  0  0
  2 58  1  6  0  0  0
  3  4  1  0  0  0  0
  4  5  1  0  0  0  0
  4 38  1  0  0  0  0
  4 59  1  1  0  0  0
  6  5  1  0  0  0  0
  6  7  1  0  0  0  0
  6 60  1  6  0  0  0
  7  8  1  0  0  0  0
  7 61  1  0  0  0  0
  7 62  1  0  0  0  0
  8  9  1  0  0  0  0
  8 63  1  0  0  0  0
  8 64  1  0  0  0  0
  9 10  1  1  0  0  0
  9 11  1  0  0  0  0
 10 65  1  0  0  0  0
 10 66  1  0  0  0  0
 10 67  1  0  0  0  0
 11 12  2  0  0  0  0
 11 37  1  0  0  0  0
 12 13  1  0  0  0  0
 12 68  1  0  0  0  0
 13 69  1  0  0  0  0
 13 70  1  0  0  0  0
 14 13  1  0  0  0  0
 14 15  1  0  0  0  0
 14 71  1  1  0  0  0
 15 16  1  0  0  0  0
 15 72  1  6  0  0  0
 16 73  1  0  0  0  0
 16 74  1  0  0  0  0
 17 16  1  0  0  0  0
 17 18  1  0  0  0  0
 17 75  1  6  0  0  0
 19 18  1  6  0  0  0
 19 20  1  0  0  0  0
 19 28  1  0  0  0  0
 20 21  1  0  0  0  0
 21 22  1  0  0  0  0
 21 76  1  0  0  0  0
 21 77  1  0  0  0  0
 22 23  1  0  0  0  0
 22 25  1  0  0  0  0
 22 78  1  1  0  0  0
 23 24  1  0  0  0  0
 23 79  1  0  0  0  0
 23 80  1  0  0  0  0
 24 81  1  0  0  0  0
 25 26  1  0  0  0  0
 25 82  1  0  0  0  0
 25 83  1  0  0  0  0
 26 27  1  0  0  0  0
 26 19  1  0  0  0  0
 26 84  1  6  0  0  0
 27 85  1  0  0  0  0
 28 29  1  0  0  0  0
 28 30  1  0  0  0  0
 28 86  1  1  0  0  0
 29 87  1  0  0  0  0
 29 88  1  0  0  0  0
 29 89  1  0  0  0  0
 30 31  1  0  0  0  0
 30 17  1  0  0  0  0
 30 90  1  1  0  0  0
 31 32  1  1  0  0  0
 31 33  1  0  0  0  0
 31 15  1  0  0  0  0
 32 91  1  0  0  0  0
 32 92  1  0  0  0  0
 32 93  1  0  0  0  0
 33 34  2  0  0  0  0
 33 35  1  0  0  0  0
 35 94  1  0  0  0  0
 35 95  1  0  0  0  0
 36 35  1  0  0  0  0
 36  9  1  0  0  0  0
 36 14  1  0  0  0  0
 36 96  1  6  0  0  0
 37  6  1  0  0  0  0
 37 97  1  0  0  0  0
 37 98  1  0  0  0  0
 38 39  1  0  0  0  0
 38 40  1  0  0  0  0
 38 99  1  1  0  0  0
 39100  1  0  0  0  0
 40 41  1  0  0  0  0
 40 42  1  0  0  0  0
 40101  1  6  0  0  0
 41102  1  0  0  0  0
 42 43  1  0  0  0  0
 42  2  1  0  0  0  0
 42103  1  1  0  0  0
 44 43  1  0  0  0  0
 44 45  1  0  0  0  0
 44104  1  1  0  0  0
 45 46  1  0  0  0  0
 46 47  1  0  0  0  0
 46 49  1  0  0  0  0
 46105  1  1  0  0  0
 47 48  1  0  0  0  0
 47106  1  0  0  0  0
 47107  1  0  0  0  0
 48108  1  0  0  0  0
 49 50  1  0  0  0  0
 49 51  1  0  0  0  0
 49109  1  1  0  0  0
 50110  1  0  0  0  0
 51 52  1  0  0  0  0
 51 53  1  0  0  0  0
 51111  1  6  0  0  0
 52112  1  0  0  0  0
 53 54  1  0  0  0  0
 53 44  1  0  0  0  0
 53113  1  1  0  0  0
 54114  1  0  0  0  0
M  END
>  <IDENTIFIER>
CNP0134461.2

>  <Energy>
1453.77

$$$$
