
 OpenBabel09092516013D

 91 97  0  0  0  0  0  0  0  0999 V2000
    3.8273    1.2462    1.9618 C   0  0  0  0  0  0  0  0  0  0  0  0
    3.5339    0.1367    0.9709 C   0  0  0  0  0  0  0  0  0  0  0  0
    2.3178   -0.0156    0.3723 C   0  0  0  0  0  0  0  0  0  0  0  0
    1.1033    0.8288    0.3930 C   0  0  0  0  0  0  0  0  0  0  0  0
    1.0215    1.9355    0.8987 O   0  0  0  0  0  0  0  0  0  0  0  0
    0.1860    0.3209   -0.6812 C   0  0  1  0  0  0  0  0  0  0  0  0
    0.5223   -1.1509   -0.7114 C   0  0  1  0  0  0  0  0  0  0  0  0
   -0.0369   -1.7995   -1.9822 C   0  0  0  0  0  0  0  0  0  0  0  0
   -1.4933   -1.4233   -2.1795 C   0  0  0  0  0  0  0  0  0  0  0  0
   -2.0933   -0.3771   -1.5478 C   0  0  0  0  0  0  0  0  0  0  0  0
   -3.5816   -0.1599   -1.6835 C   0  0  0  0  0  0  0  0  0  0  0  0
   -4.2362   -0.2837   -0.2912 C   0  0  2  0  0  0  0  0  0  0  0  0
   -5.5693    0.1781   -0.4160 O   0  0  0  0  0  0  0  0  0  0  0  0
   -6.5701   -0.7104    0.0409 C   0  0  2  0  0  0  0  0  0  0  0  0
   -7.5155   -0.9319   -1.0149 O   0  0  0  0  0  0  0  0  0  0  0  0
   -8.6314   -0.0537   -1.0017 C   0  0  2  0  0  0  0  0  0  0  0  0
   -8.2197    1.3916   -1.3781 C   0  0  0  0  0  0  0  0  0  0  0  0
   -7.6358    1.4167   -2.6540 O   0  0  0  0  0  0  0  0  0  0  0  0
   -9.4510   -0.1674    0.3267 C   0  0  1  0  0  0  0  0  0  0  0  0
  -10.5875   -0.9802    0.1717 O   0  0  0  0  0  0  0  0  0  0  0  0
   -8.5976   -0.6957    1.5041 C   0  0  2  0  0  0  0  0  0  0  0  0
   -9.1856   -0.3691    2.7386 O   0  0  0  0  0  0  0  0  0  0  0  0
   -7.1788   -0.1509    1.3633 C   0  0  1  0  0  0  0  0  0  0  0  0
   -6.3674   -0.4712    2.4659 O   0  0  0  0  0  0  0  0  0  0  0  0
   -3.5165    0.5833    0.7734 C   0  0  0  0  0  0  0  0  0  0  0  0
   -1.9848    0.3379    0.7972 C   0  0  0  0  0  0  0  0  0  0  0  0
   -1.3509    0.5852   -0.6032 C   0  0  1  0  0  0  0  0  0  0  0  0
   -1.5425    2.0682   -1.0400 C   0  0  0  0  0  0  0  0  0  0  0  0
    2.0493   -1.1832   -0.5341 C   0  0  2  0  0  0  0  0  0  0  0  0
    2.6086   -2.5124    0.0223 C   0  0  0  0  0  0  0  0  0  0  0  0
    3.8823   -2.3053    0.8950 C   0  0  0  0  0  0  0  0  0  0  0  0
    4.6062   -0.9451    0.6695 C   0  0  2  0  0  0  0  0  0  0  0  0
    5.6781   -0.8185    1.6135 O   0  0  0  0  0  0  0  0  0  0  0  0
    6.8101   -0.3651    0.8958 C   0  0  2  0  0  0  0  0  0  0  0  0
    7.6796    0.6597    1.6407 C   0  0  0  0  0  0  0  0  0  0  0  0
    8.6720    1.3760    0.6614 C   0  0  2  0  0  0  0  0  0  0  0  0
    8.2910    2.8524    0.4562 C   0  0  0  0  0  0  0  0  0  0  0  0
    8.7385    0.6541   -0.7146 C   0  0  0  0  0  0  0  0  0  0  0  0
    7.4034    0.5473   -1.3549 N   0  0  0  0  0  0  0  0  0  0  0  0
    6.3149    0.2460   -0.3913 C   0  0  1  0  0  0  0  0  0  0  0  0
    5.2418   -0.7582   -0.7646 C   0  0  1  0  0  0  0  0  0  0  0  0
    5.7930   -2.0808   -1.3640 C   0  0  0  0  0  0  0  0  0  0  0  0
    2.9748    1.9180    2.1515 H   0  0  0  0  0  0  0  0  0  0  0  0
    4.6666    1.8757    1.6123 H   0  0  0  0  0  0  0  0  0  0  0  0
    4.1033    0.7956    2.9379 H   0  0  0  0  0  0  0  0  0  0  0  0
    0.5713    0.7347   -1.6448 H   0  0  0  0  0  0  0  0  0  0  0  0
    0.0528   -1.6074    0.1902 H   0  0  0  0  0  0  0  0  0  0  0  0
    0.0639   -2.8996   -1.8657 H   0  0  0  0  0  0  0  0  0  0  0  0
    0.5201   -1.4879   -2.8916 H   0  0  0  0  0  0  0  0  0  0  0  0
   -2.0748   -2.0495   -2.8499 H   0  0  0  0  0  0  0  0  0  0  0  0
   -4.0562   -0.8933   -2.3723 H   0  0  0  0  0  0  0  0  0  0  0  0
   -3.7661    0.8458   -2.1110 H   0  0  0  0  0  0  0  0  0  0  0  0
   -4.1345   -1.3499    0.0194 H   0  0  0  0  0  0  0  0  0  0  0  0
   -6.2001   -1.7350    0.2700 H   0  0  0  0  0  0  0  0  0  0  0  0
   -9.3155   -0.3476   -1.8286 H   0  0  0  0  0  0  0  0  0  0  0  0
   -7.5425    1.8685   -0.6407 H   0  0  0  0  0  0  0  0  0  0  0  0
   -9.1266    2.0320   -1.4130 H   0  0  0  0  0  0  0  0  0  0  0  0
   -6.6798    1.1771   -2.5411 H   0  0  0  0  0  0  0  0  0  0  0  0
   -9.8208    0.8570    0.5543 H   0  0  0  0  0  0  0  0  0  0  0  0
  -10.2794   -1.8632   -0.1612 H   0  0  0  0  0  0  0  0  0  0  0  0
   -8.5172   -1.8045    1.4426 H   0  0  0  0  0  0  0  0  0  0  0  0
   -9.1536    0.6190    2.8338 H   0  0  0  0  0  0  0  0  0  0  0  0
   -7.2663    0.9545    1.3270 H   0  0  0  0  0  0  0  0  0  0  0  0
   -6.4006   -1.4560    2.5896 H   0  0  0  0  0  0  0  0  0  0  0  0
   -3.9431    0.3674    1.7754 H   0  0  0  0  0  0  0  0  0  0  0  0
   -3.7192    1.6535    0.5748 H   0  0  0  0  0  0  0  0  0  0  0  0
   -1.8125   -0.7141    1.1114 H   0  0  0  0  0  0  0  0  0  0  0  0
   -1.5210    0.9997    1.5590 H   0  0  0  0  0  0  0  0  0  0  0  0
   -1.0271    2.7548   -0.3380 H   0  0  0  0  0  0  0  0  0  0  0  0
   -2.5949    2.3977   -1.0868 H   0  0  0  0  0  0  0  0  0  0  0  0
   -1.1269    2.2304   -2.0577 H   0  0  0  0  0  0  0  0  0  0  0  0
    2.5531   -0.9359   -1.4873 H   0  0  0  0  0  0  0  0  0  0  0  0
    2.7987   -3.1721   -0.8501 H   0  0  0  0  0  0  0  0  0  0  0  0
    1.8733   -3.0427    0.6664 H   0  0  0  0  0  0  0  0  0  0  0  0
    4.5478   -3.1924    0.8380 H   0  0  0  0  0  0  0  0  0  0  0  0
    3.5391   -2.2632    1.9546 H   0  0  0  0  0  0  0  0  0  0  0  0
    7.4482   -1.2469    0.6739 H   0  0  0  0  0  0  0  0  0  0  0  0
    8.2328    0.1072    2.4310 H   0  0  0  0  0  0  0  0  0  0  0  0
    7.0506    1.4176    2.1563 H   0  0  0  0  0  0  0  0  0  0  0  0
    9.6832    1.3869    1.1251 H   0  0  0  0  0  0  0  0  0  0  0  0
    7.2870    2.9619   -0.0003 H   0  0  0  0  0  0  0  0  0  0  0  0
    9.0344    3.3478   -0.2048 H   0  0  0  0  0  0  0  0  0  0  0  0
    8.2963    3.3839    1.4317 H   0  0  0  0  0  0  0  0  0  0  0  0
    9.1541   -0.3663   -0.5605 H   0  0  0  0  0  0  0  0  0  0  0  0
    9.4369    1.1817   -1.3996 H   0  0  0  0  0  0  0  0  0  0  0  0
    7.4665   -0.1284   -2.1452 H   0  0  0  0  0  0  0  0  0  0  0  0
    5.8041    1.2031   -0.1589 H   0  0  0  0  0  0  0  0  0  0  0  0
    4.5680   -0.3322   -1.5310 H   0  0  0  0  0  0  0  0  0  0  0  0
    6.4962   -2.6127   -0.6954 H   0  0  0  0  0  0  0  0  0  0  0  0
    6.2871   -1.9065   -2.3391 H   0  0  0  0  0  0  0  0  0  0  0  0
    4.9565   -2.7713   -1.5834 H   0  0  0  0  0  0  0  0  0  0  0  0
  1  2  1  0  0  0  0
  1 43  1  0  0  0  0
  1 44  1  0  0  0  0
  1 45  1  0  0  0  0
  2  3  2  0  0  0  0
  3  4  1  0  0  0  0
  4  5  2  0  0  0  0
  6  4  1  0  0  0  0
  6  7  1  0  0  0  0
  6 46  1  6  0  0  0
  7  8  1  0  0  0  0
  7 29  1  0  0  0  0
  7 47  1  1  0  0  0
  8  9  1  0  0  0  0
  8 48  1  0  0  0  0
  8 49  1  0  0  0  0
  9 10  2  0  0  0  0
  9 50  1  0  0  0  0
 10 11  1  0  0  0  0
 11 12  1  0  0  0  0
 11 51  1  0  0  0  0
 11 52  1  0  0  0  0
 12 13  1  0  0  0  0
 12 25  1  0  0  0  0
 12 53  1  1  0  0  0
 14 13  1  0  0  0  0
 14 15  1  0  0  0  0
 14 54  1  1  0  0  0
 15 16  1  0  0  0  0
 16 17  1  0  0  0  0
 16 19  1  0  0  0  0
 16 55  1  6  0  0  0
 17 18  1  0  0  0  0
 17 56  1  0  0  0  0
 17 57  1  0  0  0  0
 18 58  1  0  0  0  0
 19 20  1  0  0  0  0
 19 21  1  0  0  0  0
 19 59  1  1  0  0  0
 20 60  1  0  0  0  0
 21 22  1  0  0  0  0
 21 23  1  0  0  0  0
 21 61  1  6  0  0  0
 22 62  1  0  0  0  0
 23 24  1  0  0  0  0
 23 14  1  0  0  0  0
 23 63  1  6  0  0  0
 24 64  1  0  0  0  0
 25 26  1  0  0  0  0
 25 65  1  0  0  0  0
 25 66  1  0  0  0  0
 26 27  1  0  0  0  0
 26 67  1  0  0  0  0
 26 68  1  0  0  0  0
 27 28  1  6  0  0  0
 27  6  1  0  0  0  0
 27 10  1  0  0  0  0
 28 69  1  0  0  0  0
 28 70  1  0  0  0  0
 28 71  1  0  0  0  0
 29 30  1  0  0  0  0
 29  3  1  0  0  0  0
 29 72  1  6  0  0  0
 30 31  1  0  0  0  0
 30 73  1  0  0  0  0
 30 74  1  0  0  0  0
 31 75  1  0  0  0  0
 31 76  1  0  0  0  0
 32 31  1  0  0  0  0
 32 33  1  1  0  0  0
 32  2  1  0  0  0  0
 33 34  1  0  0  0  0
 34 35  1  0  0  0  0
 34 77  1  6  0  0  0
 35 36  1  0  0  0  0
 35 78  1  0  0  0  0
 35 79  1  0  0  0  0
 36 37  1  0  0  0  0
 36 38  1  0  0  0  0
 36 80  1  1  0  0  0
 37 81  1  0  0  0  0
 37 82  1  0  0  0  0
 37 83  1  0  0  0  0
 38 39  1  0  0  0  0
 38 84  1  0  0  0  0
 38 85  1  0  0  0  0
 39 86  1  0  0  0  0
 40 39  1  0  0  0  0
 40 41  1  0  0  0  0
 40 34  1  0  0  0  0
 40 87  1  1  0  0  0
 41 42  1  0  0  0  0
 41 32  1  0  0  0  0
 41 88  1  6  0  0  0
 42 89  1  0  0  0  0
 42 90  1  0  0  0  0
 42 91  1  0  0  0  0
M  END
>  <IDENTIFIER>
CNP0183210.6

>  <Energy>
1309.93

$$$$
