
 OpenBabel09082508453D

135142  0  0  0  0  0  0  0  0999 V2000
    3.0043    3.1804    2.1278 C   0  0  0  0  0  0  0  0  0  0  0  0
    2.6898    2.2243    0.9613 C   0  0  2  0  0  0  0  0  0  0  0  0
    2.3358    2.9830   -0.3229 C   0  0  0  0  0  0  0  0  0  0  0  0
    2.2477    2.0352   -1.5646 C   0  0  0  0  0  0  0  0  0  0  0  0
    1.8408    0.5483   -1.2345 C   0  0  2  0  0  0  0  0  0  0  0  0
    3.0505   -0.3121   -0.8976 C   0  0  0  0  0  0  0  0  0  0  0  0
    2.8791   -1.4777   -0.5595 O   0  0  0  0  0  0  0  0  0  0  0  0
    4.3069    0.1723   -1.0732 O   0  0  0  0  0  0  0  0  0  0  0  0
    5.4634   -0.5655   -0.9363 C   0  0  2  0  0  0  0  0  0  0  0  0
    6.5114    0.3262   -0.6264 O   0  0  0  0  0  0  0  0  0  0  0  0
    7.7455   -0.3230   -0.3178 C   0  0  2  0  0  0  0  0  0  0  0  0
    8.8753    0.5504   -0.8696 C   0  0  0  0  0  0  0  0  0  0  0  0
   10.0783    0.0462   -0.4225 O   0  0  0  0  0  0  0  0  0  0  0  0
   11.2924    0.5918   -0.6689 C   0  0  0  0  0  0  0  0  0  0  0  0
   11.4045    1.5722   -1.3895 O   0  0  0  0  0  0  0  0  0  0  0  0
   12.4798   -0.0108   -0.0162 C   0  0  0  0  0  0  0  0  0  0  0  0
   13.7624    0.5230   -0.2069 C   0  0  0  0  0  0  0  0  0  0  0  0
   14.8737   -0.0546    0.4278 C   0  0  0  0  0  0  0  0  0  0  0  0
   16.1064    0.4632    0.2405 O   0  0  0  0  0  0  0  0  0  0  0  0
   14.7028   -1.1746    1.2629 C   0  0  0  0  0  0  0  0  0  0  0  0
   15.7595   -1.7434    1.8836 O   0  0  0  0  0  0  0  0  0  0  0  0
   13.4164   -1.7096    1.4553 C   0  0  0  0  0  0  0  0  0  0  0  0
   13.2142   -2.7823    2.2498 O   0  0  0  0  0  0  0  0  0  0  0  0
   12.3187   -1.1282    0.8200 C   0  0  0  0  0  0  0  0  0  0  0  0
    7.8471   -1.8195   -0.7913 C   0  0  1  0  0  0  0  0  0  0  0  0
    7.1456   -2.6271    0.1250 O   0  0  0  0  0  0  0  0  0  0  0  0
    7.2250   -1.9830   -2.1987 C   0  0  2  0  0  0  0  0  0  0  0  0
    8.1092   -1.5166   -3.1955 O   0  0  0  0  0  0  0  0  0  0  0  0
    5.8029   -1.3150   -2.2587 C   0  0  1  0  0  0  0  0  0  0  0  0
    4.8142   -2.2562   -2.5902 O   0  0  0  0  0  0  0  0  0  0  0  0
    1.1980   -0.1593   -2.4940 C   0  0  0  0  0  0  0  0  0  0  0  0
   -0.1993   -0.7505   -2.1927 C   0  0  0  0  0  0  0  0  0  0  0  0
   -1.1779    0.3765   -1.7044 C   0  0  2  0  0  0  0  0  0  0  0  0
   -1.4410    1.2408   -2.9941 C   0  0  0  0  0  0  0  0  0  0  0  0
   -0.5046    1.1807   -0.5589 C   0  0  0  0  0  0  0  0  0  0  0  0
   -1.2321    2.1750    0.0210 C   0  0  0  0  0  0  0  0  0  0  0  0
   -2.6623    2.4370   -0.3760 C   0  0  0  0  0  0  0  0  0  0  0  0
   -3.4619    1.1312   -0.7817 C   0  0  2  0  0  0  0  0  0  0  0  0
   -4.8008    0.8524    0.0041 C   0  0  1  0  0  0  0  0  0  0  0  0
   -4.4525    0.7246    1.5335 C   0  0  0  0  0  0  0  0  0  0  0  0
   -5.7898    2.0610   -0.1341 C   0  0  0  0  0  0  0  0  0  0  0  0
   -7.1133    1.7953    0.6113 C   0  0  0  0  0  0  0  0  0  0  0  0
   -7.8352    0.4978    0.1798 C   0  0  2  0  0  0  0  0  0  0  0  0
   -8.7168    0.1792    1.2374 O   0  0  0  0  0  0  0  0  0  0  0  0
  -10.0946    0.2790    1.0029 C   0  0  2  0  0  0  0  0  0  0  0  0
  -10.5302    1.5430    1.4684 O   0  0  0  0  0  0  0  0  0  0  0  0
  -11.9479    1.7227    1.4065 C   0  0  0  0  0  0  0  0  0  0  0  0
  -12.7881    0.4165    1.4498 C   0  0  2  0  0  0  0  0  0  0  0  0
  -14.1226    0.6770    1.8081 O   0  0  0  0  0  0  0  0  0  0  0  0
  -12.1102   -0.5640    2.4062 C   0  0  2  0  0  0  0  0  0  0  0  0
  -12.0212   -0.0021    3.7014 O   0  0  0  0  0  0  0  0  0  0  0  0
  -10.7130   -0.8973    1.8264 C   0  0  1  0  0  0  0  0  0  0  0  0
  -10.7388   -2.0622    1.0388 O   0  0  0  0  0  0  0  0  0  0  0  0
   -6.9202   -0.7717   -0.0619 C   0  0  0  0  0  0  0  0  0  0  0  0
   -7.7152   -1.7167   -1.0055 C   0  0  0  0  0  0  0  0  0  0  0  0
   -6.6988   -1.6032    1.2436 C   0  0  0  0  0  0  0  0  0  0  0  0
   -5.5580   -0.3456   -0.7473 C   0  0  2  0  0  0  0  0  0  0  0  0
   -4.6591   -1.5540   -1.1749 C   0  0  0  0  0  0  0  0  0  0  0  0
   -3.3568   -1.1236   -1.9010 C   0  0  0  0  0  0  0  0  0  0  0  0
   -2.5280   -0.1516   -1.0295 C   0  0  1  0  0  0  0  0  0  0  0  0
   -2.1165   -0.9504    0.2772 C   0  0  0  0  0  0  0  0  0  0  0  0
    0.8578    0.6207   -0.0236 C   0  0  2  0  0  0  0  0  0  0  0  0
    1.5454    1.1998    1.3120 C   0  0  1  0  0  0  0  0  0  0  0  0
    2.1698    0.0667    2.1796 C   0  0  0  0  0  0  0  0  0  0  0  0
    0.5909    1.8086    2.1443 O   0  0  0  0  0  0  0  0  0  0  0  0
    3.8474    3.8491    1.8551 H   0  0  0  0  0  0  0  0  0  0  0  0
    3.3065    2.6154    3.0340 H   0  0  0  0  0  0  0  0  0  0  0  0
    2.1242    3.8097    2.3780 H   0  0  0  0  0  0  0  0  0  0  0  0
    3.6338    1.6853    0.7449 H   0  0  0  0  0  0  0  0  0  0  0  0
    3.0529    3.8013   -0.5502 H   0  0  0  0  0  0  0  0  0  0  0  0
    1.3470    3.4567   -0.1383 H   0  0  0  0  0  0  0  0  0  0  0  0
    3.1972    2.0329   -2.1396 H   0  0  0  0  0  0  0  0  0  0  0  0
    1.5022    2.5224   -2.2284 H   0  0  0  0  0  0  0  0  0  0  0  0
    5.3134   -1.2527   -0.0773 H   0  0  0  0  0  0  0  0  0  0  0  0
    7.8775   -0.3131    0.7880 H   0  0  0  0  0  0  0  0  0  0  0  0
    8.7520    1.5825   -0.4763 H   0  0  0  0  0  0  0  0  0  0  0  0
    8.8661    0.6033   -1.9743 H   0  0  0  0  0  0  0  0  0  0  0  0
   13.9056    1.3849   -0.8451 H   0  0  0  0  0  0  0  0  0  0  0  0
   16.2611    1.2323   -0.3252 H   0  0  0  0  0  0  0  0  0  0  0  0
   16.6632   -1.4150    1.7884 H   0  0  0  0  0  0  0  0  0  0  0  0
   13.9296   -3.2303    2.7198 H   0  0  0  0  0  0  0  0  0  0  0  0
   11.3368   -1.5562    0.9851 H   0  0  0  0  0  0  0  0  0  0  0  0
    8.9050   -2.1661   -0.7661 H   0  0  0  0  0  0  0  0  0  0  0  0
    7.3017   -3.5736   -0.1310 H   0  0  0  0  0  0  0  0  0  0  0  0
    7.1215   -3.0723   -2.4005 H   0  0  0  0  0  0  0  0  0  0  0  0
    7.8580   -0.6052   -3.4851 H   0  0  0  0  0  0  0  0  0  0  0  0
    5.7909   -0.5480   -3.0626 H   0  0  0  0  0  0  0  0  0  0  0  0
    4.7994   -2.9345   -1.8662 H   0  0  0  0  0  0  0  0  0  0  0  0
    1.8348   -0.9863   -2.8844 H   0  0  0  0  0  0  0  0  0  0  0  0
    1.1766    0.5280   -3.3578 H   0  0  0  0  0  0  0  0  0  0  0  0
   -0.0327   -1.5491   -1.4523 H   0  0  0  0  0  0  0  0  0  0  0  0
   -0.6047   -1.2663   -3.0899 H   0  0  0  0  0  0  0  0  0  0  0  0
   -0.5265    1.7254   -3.3750 H   0  0  0  0  0  0  0  0  0  0  0  0
   -2.1358    2.0787   -2.9094 H   0  0  0  0  0  0  0  0  0  0  0  0
   -1.8523    0.6026   -3.8044 H   0  0  0  0  0  0  0  0  0  0  0  0
   -0.9004    2.7568    0.8569 H   0  0  0  0  0  0  0  0  0  0  0  0
   -2.6324    3.1512   -1.2214 H   0  0  0  0  0  0  0  0  0  0  0  0
   -3.1633    3.0625    0.3854 H   0  0  0  0  0  0  0  0  0  0  0  0
   -3.8457    1.4050   -1.7897 H   0  0  0  0  0  0  0  0  0  0  0  0
   -3.8765    1.6062    1.8743 H   0  0  0  0  0  0  0  0  0  0  0  0
   -3.8992   -0.1487    1.8537 H   0  0  0  0  0  0  0  0  0  0  0  0
   -5.2997    0.7243    2.2183 H   0  0  0  0  0  0  0  0  0  0  0  0
   -6.0184    2.2512   -1.2075 H   0  0  0  0  0  0  0  0  0  0  0  0
   -5.3576    2.9991    0.2677 H   0  0  0  0  0  0  0  0  0  0  0  0
   -7.8055    2.6548    0.4713 H   0  0  0  0  0  0  0  0  0  0  0  0
   -6.9363    1.7800    1.6979 H   0  0  0  0  0  0  0  0  0  0  0  0
   -8.3223    0.7597   -0.7903 H   0  0  0  0  0  0  0  0  0  0  0  0
  -10.3667    0.1848   -0.0755 H   0  0  0  0  0  0  0  0  0  0  0  0
  -12.2365    2.3389    0.5297 H   0  0  0  0  0  0  0  0  0  0  0  0
  -12.2031    2.3073    2.3164 H   0  0  0  0  0  0  0  0  0  0  0  0
  -12.7954   -0.0509    0.4418 H   0  0  0  0  0  0  0  0  0  0  0  0
  -14.1286    1.0014    2.7471 H   0  0  0  0  0  0  0  0  0  0  0  0
  -12.6783   -1.5132    2.5145 H   0  0  0  0  0  0  0  0  0  0  0  0
  -11.2091    0.5661    3.7639 H   0  0  0  0  0  0  0  0  0  0  0  0
  -10.0806   -1.1397    2.7111 H   0  0  0  0  0  0  0  0  0  0  0  0
  -11.3869   -1.9170    0.3017 H   0  0  0  0  0  0  0  0  0  0  0  0
   -8.7048   -1.9668   -0.5719 H   0  0  0  0  0  0  0  0  0  0  0  0
   -7.1965   -2.6824   -1.1718 H   0  0  0  0  0  0  0  0  0  0  0  0
   -7.8894   -1.2387   -1.9938 H   0  0  0  0  0  0  0  0  0  0  0  0
   -7.6684   -1.9692    1.6431 H   0  0  0  0  0  0  0  0  0  0  0  0
   -6.2336   -1.0718    2.0739 H   0  0  0  0  0  0  0  0  0  0  0  0
   -6.1006   -2.5148    1.0521 H   0  0  0  0  0  0  0  0  0  0  0  0
   -5.8385    0.0799   -1.7398 H   0  0  0  0  0  0  0  0  0  0  0  0
   -5.2033   -2.2049   -1.8874 H   0  0  0  0  0  0  0  0  0  0  0  0
   -4.4377   -2.2033   -0.3186 H   0  0  0  0  0  0  0  0  0  0  0  0
   -3.6316   -0.6332   -2.8592 H   0  0  0  0  0  0  0  0  0  0  0  0
   -2.7645   -2.0310   -2.1493 H   0  0  0  0  0  0  0  0  0  0  0  0
   -1.4285   -1.7818    0.0574 H   0  0  0  0  0  0  0  0  0  0  0  0
   -2.9058   -1.4990    0.7880 H   0  0  0  0  0  0  0  0  0  0  0  0
   -1.6571   -0.3123    1.0563 H   0  0  0  0  0  0  0  0  0  0  0  0
    0.5787   -0.4076    0.2747 H   0  0  0  0  0  0  0  0  0  0  0  0
    1.3959   -0.6881    2.4434 H   0  0  0  0  0  0  0  0  0  0  0  0
    2.5554    0.4710    3.1383 H   0  0  0  0  0  0  0  0  0  0  0  0
    3.0060   -0.4556    1.6861 H   0  0  0  0  0  0  0  0  0  0  0  0
   -0.0978    1.1311    2.3796 H   0  0  0  0  0  0  0  0  0  0  0  0
  1 66  1  0  0  0  0
  1 67  1  0  0  0  0
  1 68  1  0  0  0  0
  2  1  1  0  0  0  0
  2  3  1  0  0  0  0
  2 69  1  6  0  0  0
  3  4  1  0  0  0  0
  3 70  1  0  0  0  0
  3 71  1  0  0  0  0
  4  5  1  0  0  0  0
  4 72  1  0  0  0  0
  4 73  1  0  0  0  0
  5  6  1  1  0  0  0
  5 31  1  0  0  0  0
  6  7  2  0  0  0  0
  6  8  1  0  0  0  0
  9  8  1  0  0  0  0
  9 10  1  0  0  0  0
  9 74  1  1  0  0  0
 10 11  1  0  0  0  0
 11 12  1  0  0  0  0
 11 25  1  0  0  0  0
 11 75  1  1  0  0  0
 12 13  1  0  0  0  0
 12 76  1  0  0  0  0
 12 77  1  0  0  0  0
 13 14  1  0  0  0  0
 14 15  2  0  0  0  0
 14 16  1  0  0  0  0
 16 17  2  0  0  0  0
 17 18  1  0  0  0  0
 17 78  1  0  0  0  0
 18 19  1  0  0  0  0
 18 20  2  0  0  0  0
 19 79  1  0  0  0  0
 20 21  1  0  0  0  0
 20 22  1  0  0  0  0
 21 80  1  0  0  0  0
 22 23  1  0  0  0  0
 22 24  2  0  0  0  0
 23 81  1  0  0  0  0
 24 16  1  0  0  0  0
 24 82  1  0  0  0  0
 25 26  1  0  0  0  0
 25 27  1  0  0  0  0
 25 83  1  6  0  0  0
 26 84  1  0  0  0  0
 27 28  1  0  0  0  0
 27 29  1  0  0  0  0
 27 85  1  6  0  0  0
 28 86  1  0  0  0  0
 29 30  1  0  0  0  0
 29  9  1  0  0  0  0
 29 87  1  6  0  0  0
 30 88  1  0  0  0  0
 31 32  1  0  0  0  0
 31 89  1  0  0  0  0
 31 90  1  0  0  0  0
 32 33  1  0  0  0  0
 32 91  1  0  0  0  0
 32 92  1  0  0  0  0
 33 34  1  6  0  0  0
 33 35  1  0  0  0  0
 34 93  1  0  0  0  0
 34 94  1  0  0  0  0
 34 95  1  0  0  0  0
 35 36  2  0  0  0  0
 36 37  1  0  0  0  0
 36 96  1  0  0  0  0
 37 97  1  0  0  0  0
 37 98  1  0  0  0  0
 38 37  1  0  0  0  0
 38 39  1  0  0  0  0
 38 99  1  6  0  0  0
 39 40  1  1  0  0  0
 39 41  1  0  0  0  0
 40100  1  0  0  0  0
 40101  1  0  0  0  0
 40102  1  0  0  0  0
 41 42  1  0  0  0  0
 41103  1  0  0  0  0
 41104  1  0  0  0  0
 42 43  1  0  0  0  0
 42105  1  0  0  0  0
 42106  1  0  0  0  0
 43 44  1  0  0  0  0
 43 54  1  0  0  0  0
 43107  1  6  0  0  0
 45 44  1  0  0  0  0
 45 46  1  0  0  0  0
 45108  1  6  0  0  0
 46 47  1  0  0  0  0
 47 48  1  0  0  0  0
 47109  1  0  0  0  0
 47110  1  0  0  0  0
 48 49  1  0  0  0  0
 48 50  1  0  0  0  0
 48111  1  6  0  0  0
 49112  1  0  0  0  0
 50 51  1  0  0  0  0
 50 52  1  0  0  0  0
 50113  1  1  0  0  0
 51114  1  0  0  0  0
 52 53  1  0  0  0  0
 52 45  1  0  0  0  0
 52115  1  1  0  0  0
 53116  1  0  0  0  0
 54 55  1  0  0  0  0
 54 56  1  0  0  0  0
 54 57  1  0  0  0  0
 55117  1  0  0  0  0
 55118  1  0  0  0  0
 55119  1  0  0  0  0
 56120  1  0  0  0  0
 56121  1  0  0  0  0
 56122  1  0  0  0  0
 57 58  1  0  0  0  0
 57 39  1  0  0  0  0
 57123  1  6  0  0  0
 58 59  1  0  0  0  0
 58124  1  0  0  0  0
 58125  1  0  0  0  0
 59 60  1  0  0  0  0
 59126  1  0  0  0  0
 59127  1  0  0  0  0
 60 61  1  1  0  0  0
 60 33  1  0  0  0  0
 60 38  1  0  0  0  0
 61128  1  0  0  0  0
 61129  1  0  0  0  0
 61130  1  0  0  0  0
 62 35  1  0  0  0  0
 62 63  1  0  0  0  0
 62  5  1  0  0  0  0
 62131  1  1  0  0  0
 63 64  1  0  0  0  0
 63 65  1  1  0  0  0
 63  2  1  0  0  0  0
 64132  1  0  0  0  0
 64133  1  0  0  0  0
 64134  1  0  0  0  0
 65135  1  0  0  0  0
M  END
>  <IDENTIFIER>
CNP0153498.1

>  <Energy>
2021.22

$$$$
