
 OpenBabel09112508163D

118125  0  0  0  0  0  0  0  0999 V2000
   12.2423   -1.0349    0.5106 C   0  0  0  0  0  0  0  0  0  0  0  0
   11.4856    0.0826   -0.2115 C   0  0  2  0  0  0  0  0  0  0  0  0
   10.0979   -0.0389    0.1312 O   0  0  0  0  0  0  0  0  0  0  0  0
    9.1690    0.4430   -0.8467 C   0  0  1  0  0  0  0  0  0  0  0  0
    8.0271    0.9343   -0.1614 O   0  0  0  0  0  0  0  0  0  0  0  0
    6.8481    0.1735   -0.3923 C   0  0  1  0  0  0  0  0  0  0  0  0
    6.5035   -0.5603    0.9175 C   0  0  2  0  0  0  0  0  0  0  0  0
    7.1714   -1.7939    1.0023 O   0  0  0  0  0  0  0  0  0  0  0  0
    4.9927   -0.6871    1.0666 C   0  0  1  0  0  0  0  0  0  0  0  0
    4.6531   -1.4139    2.2210 O   0  0  0  0  0  0  0  0  0  0  0  0
    4.4258    0.7605    1.1304 C   0  0  2  0  0  0  0  0  0  0  0  0
    3.0038    0.7155    1.1021 O   0  0  0  0  0  0  0  0  0  0  0  0
    2.4126    0.9865    2.3712 C   0  0  1  0  0  0  0  0  0  0  0  0
    1.5743    2.2959    2.2957 C   0  0  0  0  0  0  0  0  0  0  0  0
    0.0440    2.0705    2.3918 C   0  0  0  0  0  0  0  0  0  0  0  0
   -0.4553    0.8810    1.5206 C   0  0  1  0  0  0  0  0  0  0  0  0
   -0.1459    1.2047    0.0230 C   0  0  0  0  0  0  0  0  0  0  0  0
    0.3303   -0.3659    1.9128 C   0  0  0  0  0  0  0  0  0  0  0  0
   -0.1353   -1.6056    1.6419 C   0  0  0  0  0  0  0  0  0  0  0  0
   -1.5394   -1.8900    1.1134 C   0  0  1  0  0  0  0  0  0  0  0  0
   -2.1703   -2.7082    2.0707 O   0  0  0  0  0  0  0  0  0  0  0  0
   -2.4072   -0.6143    0.8270 C   0  0  1  0  0  0  0  0  0  0  0  0
   -3.9315   -0.8651    0.9688 C   0  0  2  0  0  0  0  0  0  0  0  0
   -4.6166   -1.8937    0.0655 C   0  0  0  0  0  0  0  0  0  0  0  0
   -6.1252   -1.5497    0.2254 C   0  0  2  0  0  0  0  0  0  0  0  0
   -6.7594   -1.3216   -1.0147 O   0  0  0  0  0  0  0  0  0  0  0  0
   -7.8698   -0.4863   -0.7027 C   0  0  1  0  0  0  0  0  0  0  0  0
   -8.3035    0.3443   -1.9350 C   0  0  0  0  0  0  0  0  0  0  0  0
   -8.8515   -0.5769   -3.0227 C   0  0  0  0  0  0  0  0  0  0  0  0
   -9.9804   -1.4671   -2.4544 C   0  0  2  0  0  0  0  0  0  0  0  0
  -10.3996   -2.4975   -3.5219 C   0  0  0  0  0  0  0  0  0  0  0  0
  -11.2288   -0.6387   -2.0332 C   0  0  0  0  0  0  0  0  0  0  0  0
  -11.7718    0.0618   -3.1222 O   0  0  0  0  0  0  0  0  0  0  0  0
   -9.4041   -2.2033   -1.2190 C   0  0  0  0  0  0  0  0  0  0  0  0
   -8.9550   -1.2896   -0.2287 O   0  0  0  0  0  0  0  0  0  0  0  0
   -7.3968    0.4831    0.4121 C   0  0  1  0  0  0  0  0  0  0  0  0
   -8.4614    0.8253    1.4659 C   0  0  0  0  0  0  0  0  0  0  0  0
   -6.1809   -0.2227    0.9819 C   0  0  2  0  0  0  0  0  0  0  0  0
   -4.7771    0.3958    0.7219 C   0  0  2  0  0  0  0  0  0  0  0  0
   -4.6184    0.9807   -0.7348 C   0  0  0  0  0  0  0  0  0  0  0  0
   -4.3801    1.4660    1.7591 C   0  0  0  0  0  0  0  0  0  0  0  0
   -2.8902    1.8267    1.6105 C   0  0  0  0  0  0  0  0  0  0  0  0
   -1.9775    0.5719    1.7656 C   0  0  2  0  0  0  0  0  0  0  0  0
    1.5604   -0.2155    2.7916 C   0  0  0  0  0  0  0  0  0  0  0  0
    4.8953    1.6734    0.1346 O   0  0  0  0  0  0  0  0  0  0  0  0
    5.7039    1.1236   -0.8953 C   0  0  2  0  0  0  0  0  0  0  0  0
    4.8155    0.5380   -2.0196 C   0  0  0  0  0  0  0  0  0  0  0  0
    5.5916    0.1500   -3.1227 O   0  0  0  0  0  0  0  0  0  0  0  0
    9.7515    1.6059   -1.6741 C   0  0  2  0  0  0  0  0  0  0  0  0
    8.8061    2.2417   -2.4983 O   0  0  0  0  0  0  0  0  0  0  0  0
   10.9899    1.1417   -2.4759 C   0  0  2  0  0  0  0  0  0  0  0  0
   10.6722    0.7388   -3.7862 O   0  0  0  0  0  0  0  0  0  0  0  0
   11.7183   -0.0077   -1.7410 C   0  0  1  0  0  0  0  0  0  0  0  0
   13.0764   -0.0444   -2.0999 O   0  0  0  0  0  0  0  0  0  0  0  0
   12.0802   -0.9499    1.6061 H   0  0  0  0  0  0  0  0  0  0  0  0
   13.3332   -0.9615    0.3161 H   0  0  0  0  0  0  0  0  0  0  0  0
   11.8795   -2.0296    0.1736 H   0  0  0  0  0  0  0  0  0  0  0  0
   11.8745    1.0537    0.1681 H   0  0  0  0  0  0  0  0  0  0  0  0
    8.9497   -0.3888   -1.5524 H   0  0  0  0  0  0  0  0  0  0  0  0
    6.9489   -0.5831   -1.2001 H   0  0  0  0  0  0  0  0  0  0  0  0
    6.8391    0.0614    1.7793 H   0  0  0  0  0  0  0  0  0  0  0  0
    6.7690   -2.3975    0.3246 H   0  0  0  0  0  0  0  0  0  0  0  0
    4.5873   -1.2463    0.2031 H   0  0  0  0  0  0  0  0  0  0  0  0
    5.0067   -0.9278    3.0099 H   0  0  0  0  0  0  0  0  0  0  0  0
    4.8381    1.2033    2.0647 H   0  0  0  0  0  0  0  0  0  0  0  0
    3.1517    1.1177    3.1933 H   0  0  0  0  0  0  0  0  0  0  0  0
    1.8374    2.8333    1.3585 H   0  0  0  0  0  0  0  0  0  0  0  0
    1.8570    2.9875    3.1187 H   0  0  0  0  0  0  0  0  0  0  0  0
   -0.4641    3.0249    2.1378 H   0  0  0  0  0  0  0  0  0  0  0  0
   -0.2026    1.8353    3.4503 H   0  0  0  0  0  0  0  0  0  0  0  0
    0.9239    1.4275   -0.1414 H   0  0  0  0  0  0  0  0  0  0  0  0
   -0.7194    2.0835   -0.3323 H   0  0  0  0  0  0  0  0  0  0  0  0
   -0.3296    0.3519   -0.6574 H   0  0  0  0  0  0  0  0  0  0  0  0
    0.4434   -2.4706    1.9564 H   0  0  0  0  0  0  0  0  0  0  0  0
   -1.4806   -2.4921    0.1817 H   0  0  0  0  0  0  0  0  0  0  0  0
   -2.1823   -2.2199    2.9358 H   0  0  0  0  0  0  0  0  0  0  0  0
   -2.2363   -0.3208   -0.2194 H   0  0  0  0  0  0  0  0  0  0  0  0
   -4.1092   -1.1879    2.0234 H   0  0  0  0  0  0  0  0  0  0  0  0
   -4.3656   -2.9499    0.2978 H   0  0  0  0  0  0  0  0  0  0  0  0
   -4.3041   -1.7074   -0.9832 H   0  0  0  0  0  0  0  0  0  0  0  0
   -6.6760   -2.3356    0.7932 H   0  0  0  0  0  0  0  0  0  0  0  0
   -7.4445    0.9236   -2.3375 H   0  0  0  0  0  0  0  0  0  0  0  0
   -9.0839    1.0755   -1.6367 H   0  0  0  0  0  0  0  0  0  0  0  0
   -8.0158   -1.2239   -3.3743 H   0  0  0  0  0  0  0  0  0  0  0  0
   -9.1983    0.0192   -3.8935 H   0  0  0  0  0  0  0  0  0  0  0  0
  -10.7894   -1.9881   -4.4293 H   0  0  0  0  0  0  0  0  0  0  0  0
  -11.1917   -3.1696   -3.1274 H   0  0  0  0  0  0  0  0  0  0  0  0
   -9.5327   -3.1237   -3.8247 H   0  0  0  0  0  0  0  0  0  0  0  0
  -11.0106    0.0619   -1.1962 H   0  0  0  0  0  0  0  0  0  0  0  0
  -12.0133   -1.3184   -1.6366 H   0  0  0  0  0  0  0  0  0  0  0  0
  -11.3254    0.9485   -3.1468 H   0  0  0  0  0  0  0  0  0  0  0  0
   -8.5812   -2.8963   -1.5067 H   0  0  0  0  0  0  0  0  0  0  0  0
  -10.1929   -2.8436   -0.7690 H   0  0  0  0  0  0  0  0  0  0  0  0
   -7.0739    1.4499   -0.0142 H   0  0  0  0  0  0  0  0  0  0  0  0
   -8.8151   -0.0904    1.9870 H   0  0  0  0  0  0  0  0  0  0  0  0
   -9.3258    1.3262    0.9830 H   0  0  0  0  0  0  0  0  0  0  0  0
   -8.0292    1.5117    2.2237 H   0  0  0  0  0  0  0  0  0  0  0  0
   -6.2779   -0.4576    2.0693 H   0  0  0  0  0  0  0  0  0  0  0  0
   -5.1791    1.9293   -0.8494 H   0  0  0  0  0  0  0  0  0  0  0  0
   -4.9692    0.2998   -1.5303 H   0  0  0  0  0  0  0  0  0  0  0  0
   -3.5745    1.2279   -0.9951 H   0  0  0  0  0  0  0  0  0  0  0  0
   -4.5408    1.0721    2.7881 H   0  0  0  0  0  0  0  0  0  0  0  0
   -5.0116    2.3731    1.6438 H   0  0  0  0  0  0  0  0  0  0  0  0
   -2.6466    2.5733    2.3942 H   0  0  0  0  0  0  0  0  0  0  0  0
   -2.7243    2.3219    0.6385 H   0  0  0  0  0  0  0  0  0  0  0  0
   -2.1130    0.2382    2.8211 H   0  0  0  0  0  0  0  0  0  0  0  0
    2.1566   -1.1493    2.8586 H   0  0  0  0  0  0  0  0  0  0  0  0
    1.1937   -0.0056    3.8206 H   0  0  0  0  0  0  0  0  0  0  0  0
    6.2127    1.9755   -1.3979 H   0  0  0  0  0  0  0  0  0  0  0  0
    4.0710    1.3014   -2.3429 H   0  0  0  0  0  0  0  0  0  0  0  0
    4.2259   -0.3341   -1.6879 H   0  0  0  0  0  0  0  0  0  0  0  0
    5.8541    0.9828   -3.5972 H   0  0  0  0  0  0  0  0  0  0  0  0
   10.0782    2.3480   -0.9104 H   0  0  0  0  0  0  0  0  0  0  0  0
    8.2972    1.5349   -2.9732 H   0  0  0  0  0  0  0  0  0  0  0  0
   11.6344    2.0442   -2.5530 H   0  0  0  0  0  0  0  0  0  0  0  0
    9.9936    0.0163   -3.7261 H   0  0  0  0  0  0  0  0  0  0  0  0
   11.2600   -0.9779   -2.0380 H   0  0  0  0  0  0  0  0  0  0  0  0
   13.5005    0.7704   -1.7233 H   0  0  0  0  0  0  0  0  0  0  0  0
  1 55  1  0  0  0  0
  1 56  1  0  0  0  0
  1 57  1  0  0  0  0
  2  1  1  0  0  0  0
  2  3  1  0  0  0  0
  2 58  1  1  0  0  0
  3  4  1  0  0  0  0
  4  5  1  0  0  0  0
  4 49  1  0  0  0  0
  4 59  1  6  0  0  0
  6  5  1  0  0  0  0
  6  7  1  0  0  0  0
  6 60  1  6  0  0  0
  7  8  1  0  0  0  0
  7  9  1  0  0  0  0
  7 61  1  1  0  0  0
  8 62  1  0  0  0  0
  9 10  1  0  0  0  0
  9 11  1  0  0  0  0
  9 63  1  6  0  0  0
 10 64  1  0  0  0  0
 11 12  1  0  0  0  0
 11 45  1  0  0  0  0
 11 65  1  1  0  0  0
 13 12  1  0  0  0  0
 13 14  1  0  0  0  0
 13 66  1  1  0  0  0
 14 15  1  0  0  0  0
 14 67  1  0  0  0  0
 14 68  1  0  0  0  0
 15 16  1  0  0  0  0
 15 69  1  0  0  0  0
 15 70  1  0  0  0  0
 16 17  1  6  0  0  0
 16 18  1  0  0  0  0
 17 71  1  0  0  0  0
 17 72  1  0  0  0  0
 17 73  1  0  0  0  0
 18 19  2  0  0  0  0
 18 44  1  0  0  0  0
 19 20  1  0  0  0  0
 19 74  1  0  0  0  0
 20 21  1  0  0  0  0
 20 75  1  6  0  0  0
 21 76  1  0  0  0  0
 22 20  1  0  0  0  0
 22 23  1  0  0  0  0
 22 77  1  6  0  0  0
 23 24  1  0  0  0  0
 23 78  1  1  0  0  0
 24 79  1  0  0  0  0
 24 80  1  0  0  0  0
 25 24  1  0  0  0  0
 25 26  1  0  0  0  0
 25 81  1  1  0  0  0
 27 26  1  6  0  0  0
 27 28  1  0  0  0  0
 27 36  1  0  0  0  0
 28 29  1  0  0  0  0
 28 82  1  0  0  0  0
 28 83  1  0  0  0  0
 29 30  1  0  0  0  0
 29 84  1  0  0  0  0
 29 85  1  0  0  0  0
 30 31  1  6  0  0  0
 30 32  1  0  0  0  0
 30 34  1  0  0  0  0
 31 86  1  0  0  0  0
 31 87  1  0  0  0  0
 31 88  1  0  0  0  0
 32 33  1  0  0  0  0
 32 89  1  0  0  0  0
 32 90  1  0  0  0  0
 33 91  1  0  0  0  0
 34 35  1  0  0  0  0
 34 92  1  0  0  0  0
 34 93  1  0  0  0  0
 35 27  1  0  0  0  0
 36 37  1  0  0  0  0
 36 38  1  0  0  0  0
 36 94  1  6  0  0  0
 37 95  1  0  0  0  0
 37 96  1  0  0  0  0
 37 97  1  0  0  0  0
 38 39  1  0  0  0  0
 38 25  1  0  0  0  0
 38 98  1  1  0  0  0
 39 40  1  6  0  0  0
 39 41  1  0  0  0  0
 39 23  1  0  0  0  0
 40 99  1  0  0  0  0
 40100  1  0  0  0  0
 40101  1  0  0  0  0
 41 42  1  0  0  0  0
 41102  1  0  0  0  0
 41103  1  0  0  0  0
 42104  1  0  0  0  0
 42105  1  0  0  0  0
 43 42  1  0  0  0  0
 43 16  1  0  0  0  0
 43 22  1  0  0  0  0
 43106  1  1  0  0  0
 44 13  1  0  0  0  0
 44107  1  0  0  0  0
 44108  1  0  0  0  0
 45 46  1  0  0  0  0
 46 47  1  0  0  0  0
 46  6  1  0  0  0  0
 46109  1  6  0  0  0
 47 48  1  0  0  0  0
 47110  1  0  0  0  0
 47111  1  0  0  0  0
 48112  1  0  0  0  0
 49 50  1  0  0  0  0
 49 51  1  0  0  0  0
 49113  1  1  0  0  0
 50114  1  0  0  0  0
 51 52  1  0  0  0  0
 51 53  1  0  0  0  0
 51115  1  6  0  0  0
 52116  1  0  0  0  0
 53 54  1  0  0  0  0
 53  2  1  0  0  0  0
 53117  1  6  0  0  0
 54118  1  0  0  0  0
M  END
>  <IDENTIFIER>
CNP0075927.1

>  <Energy>
1709.13

$$$$
