
 OpenBabel09052518583D

 48 48  0  0  0  0  0  0  0  0999 V2000
   -3.3066    3.0399    1.3007 C   0  0  0  0  0  0  0  0  0  0  0  0
   -3.5266    2.0197    0.2121 C   0  0  0  0  0  0  0  0  0  0  0  0
   -4.8283    2.0251   -0.5527 C   0  0  0  0  0  0  0  0  0  0  0  0
   -2.5380    1.1334   -0.0479 C   0  0  0  0  0  0  0  0  0  0  0  0
   -2.6097    0.0361   -1.0954 C   0  0  0  0  0  0  0  0  0  0  0  0
   -2.3685   -1.3222   -0.4565 C   0  0  0  0  0  0  0  0  0  0  0  0
   -3.4885   -2.1381   -0.2598 C   0  0  0  0  0  0  0  0  0  0  0  0
   -3.3662   -3.3904    0.3135 C   0  0  0  0  0  0  0  0  0  0  0  0
   -2.1232   -3.8673    0.7247 C   0  0  0  0  0  0  0  0  0  0  0  0
   -2.0598   -5.0812    1.3162 O   0  0  0  0  0  0  0  0  0  0  0  0
   -0.9520   -3.0834    0.5428 C   0  0  0  0  0  0  0  0  0  0  0  0
    0.3443   -3.6014    1.0852 C   0  0  0  0  0  0  0  0  0  0  0  0
    0.4528   -4.7373    1.5195 O   0  0  0  0  0  0  0  0  0  0  0  0
   -1.0661   -1.7936   -0.0868 C   0  0  0  0  0  0  0  0  0  0  0  0
    0.1058   -0.9090   -0.4257 C   0  0  0  0  0  0  0  0  0  0  0  0
    1.3624   -1.2952   -0.7221 C   0  0  0  0  0  0  0  0  0  0  0  0
    2.4172   -0.2752   -1.0757 C   0  0  0  0  0  0  0  0  0  0  0  0
    3.5625   -0.3264   -0.0575 C   0  0  0  0  0  0  0  0  0  0  0  0
    4.6577    0.7256   -0.3181 C   0  0  0  0  0  0  0  0  0  0  0  0
    4.1614    2.1857   -0.1841 C   0  0  2  0  0  0  0  0  0  0  0  0
    5.2980    3.1869   -0.4075 C   0  0  0  0  0  0  0  0  0  0  0  0
    3.5641    2.4048    1.0700 O   0  0  0  0  0  0  0  0  0  0  0  0
   -4.1802    3.7143    1.4174 H   0  0  0  0  0  0  0  0  0  0  0  0
   -2.4173    3.6610    1.0624 H   0  0  0  0  0  0  0  0  0  0  0  0
   -3.1385    2.5217    2.2688 H   0  0  0  0  0  0  0  0  0  0  0  0
   -5.5060    2.8305   -0.2015 H   0  0  0  0  0  0  0  0  0  0  0  0
   -5.3528    1.0556   -0.4210 H   0  0  0  0  0  0  0  0  0  0  0  0
   -4.6273    2.1987   -1.6314 H   0  0  0  0  0  0  0  0  0  0  0  0
   -1.6316    1.2149    0.5428 H   0  0  0  0  0  0  0  0  0  0  0  0
   -1.8764    0.2044   -1.9118 H   0  0  0  0  0  0  0  0  0  0  0  0
   -3.5967    0.0458   -1.5982 H   0  0  0  0  0  0  0  0  0  0  0  0
   -4.4761   -1.7980   -0.5474 H   0  0  0  0  0  0  0  0  0  0  0  0
   -4.2562   -3.9908    0.4593 H   0  0  0  0  0  0  0  0  0  0  0  0
   -2.8428   -5.6314    1.4642 H   0  0  0  0  0  0  0  0  0  0  0  0
    1.2087   -2.9658    1.1830 H   0  0  0  0  0  0  0  0  0  0  0  0
   -0.0761    0.1488   -0.5206 H   0  0  0  0  0  0  0  0  0  0  0  0
    1.6561   -2.3350   -0.7528 H   0  0  0  0  0  0  0  0  0  0  0  0
    1.9712    0.7390   -1.0762 H   0  0  0  0  0  0  0  0  0  0  0  0
    2.8025   -0.4819   -2.0973 H   0  0  0  0  0  0  0  0  0  0  0  0
    4.0273   -1.3363   -0.0984 H   0  0  0  0  0  0  0  0  0  0  0  0
    3.1567   -0.1777    0.9672 H   0  0  0  0  0  0  0  0  0  0  0  0
    5.0885    0.5672   -1.3311 H   0  0  0  0  0  0  0  0  0  0  0  0
    5.4661    0.5584    0.4271 H   0  0  0  0  0  0  0  0  0  0  0  0
    3.4028    2.3908   -0.9667 H   0  0  0  0  0  0  0  0  0  0  0  0
    6.0948    3.0500    0.3541 H   0  0  0  0  0  0  0  0  0  0  0  0
    4.9041    4.2230   -0.3299 H   0  0  0  0  0  0  0  0  0  0  0  0
    5.7367    3.0505   -1.4187 H   0  0  0  0  0  0  0  0  0  0  0  0
    4.2502    2.2256    1.7653 H   0  0  0  0  0  0  0  0  0  0  0  0
  1  2  1  0  0  0  0
  1 23  1  0  0  0  0
  1 24  1  0  0  0  0
  1 25  1  0  0  0  0
  2  3  1  0  0  0  0
  2  4  2  0  0  0  0
  3 26  1  0  0  0  0
  3 27  1  0  0  0  0
  3 28  1  0  0  0  0
  4  5  1  0  0  0  0
  4 29  1  0  0  0  0
  5  6  1  0  0  0  0
  5 30  1  0  0  0  0
  5 31  1  0  0  0  0
  6  7  2  0  0  0  0
  7  8  1  0  0  0  0
  7 32  1  0  0  0  0
  8  9  2  0  0  0  0
  8 33  1  0  0  0  0
  9 10  1  0  0  0  0
  9 11  1  0  0  0  0
 10 34  1  0  0  0  0
 11 12  1  0  0  0  0
 11 14  2  0  0  0  0
 12 13  2  0  0  0  0
 12 35  1  0  0  0  0
 14 15  1  0  0  0  0
 14  6  1  0  0  0  0
 15 16  2  3  0  0  0
 15 36  1  0  0  0  0
 16 17  1  0  0  0  0
 16 37  1  0  0  0  0
 17 18  1  0  0  0  0
 17 38  1  0  0  0  0
 17 39  1  0  0  0  0
 18 19  1  0  0  0  0
 18 40  1  0  0  0  0
 18 41  1  0  0  0  0
 19 20  1  0  0  0  0
 19 42  1  0  0  0  0
 19 43  1  0  0  0  0
 20 21  1  0  0  0  0
 20 22  1  0  0  0  0
 20 44  1  6  0  0  0
 21 45  1  0  0  0  0
 21 46  1  0  0  0  0
 21 47  1  0  0  0  0
 22 48  1  0  0  0  0
M  END
>  <IDENTIFIER>
CNP0325812.0

>  <Energy>
281.827

$$$$
