
 OpenBabel09042520142D

174178  0  0  0  0  0  0  0  0999 V2000
   13.0197   -1.1413    2.8332 C   0  0  0  0  0  0  0  0  0  0  0  0
   12.8076   -0.3954    1.6622 O   0  0  0  0  0  0  0  0  0  0  0  0
   11.6256    0.3904    1.7452 C   0  0  0  0  0  0  0  0  0  0  0  0
   11.2893    0.8798    0.3073 C   0  0  1  0  0  0  0  0  0  0  0  0
    9.7721    0.7918   -0.0335 C   0  0  0  0  0  0  0  0  0  0  0  0
    8.8527   -0.5022    0.2436 C   0  0  1  0  0  0  0  0  0  0  0  0
    7.6761   -0.5141   -0.5935 O   0  0  0  0  0  0  0  0  0  0  0  0
    7.0753   -1.7632   -1.0411 C   0  0  1  0  0  0  0  0  0  0  0  0
    7.7029   -2.0922   -2.2627 O   0  0  0  0  0  0  0  0  0  0  0  0
    5.4521   -1.4835   -1.4876 C   0  0  2  0  0  0  0  0  0  0  0  0
    5.0796   -2.4774   -2.4153 O   0  0  0  0  0  0  0  0  0  0  0  0
    4.2251   -1.3723   -0.3917 C   0  0  2  0  0  0  0  0  0  0  0  0
    3.6927    0.1170   -0.2833 C   0  0  0  0  0  0  0  0  0  0  0  0
    4.6481    1.3900   -0.5022 C   0  0  2  0  0  0  0  0  0  0  0  0
    6.0086    1.0933    0.0000 O   0  0  0  0  0  0  0  0  0  0  0  0
    7.0692    2.1540    0.0000 C   0  0  0  0  0  0  0  0  0  0  0  0
    3.8577    2.7412   -0.0039 C   0  0  0  0  0  0  0  0  0  0  0  0
    2.2566    2.8472   -0.3201 C   0  0  0  0  0  0  0  0  0  0  0  0
    1.3346    4.1791   -0.0664 C   0  0  0  0  0  0  0  0  0  0  0  0
   -0.2260    3.8771   -0.0539 C   0  0  0  0  0  0  0  0  0  0  0  0
   -1.4815    4.5597    0.0000 C   0  0  0  0  0  0  0  0  0  0  0  0
   -1.9451    5.9863    0.0000 C   0  0  0  0  0  0  0  0  0  0  0  0
   -2.7291    3.6519    0.1372 C   0  0  0  0  0  0  0  0  0  0  0  0
   -2.9013    2.2784    0.3386 C   0  0  0  0  0  0  0  0  0  0  0  0
   -4.3566    1.7272    0.3998 C   0  0  1  0  0  0  0  0  0  0  0  0
   -5.1370    2.5724    1.4413 O   0  0  0  0  0  0  0  0  0  0  0  0
   -6.4066    3.3507    1.0833 C   0  0  2  0  0  0  0  0  0  0  0  0
   -6.3345    4.7647    1.1171 O   0  0  0  0  0  0  0  0  0  0  0  0
   -7.5360    5.3888    0.5147 C   0  0  1  0  0  0  0  0  0  0  0  0
   -7.1761    5.9455   -0.8604 C   0  0  0  0  0  0  0  0  0  0  0  0
   -8.9174    4.5296    0.4480 C   0  0  2  0  0  0  0  0  0  0  0  0
  -10.0451    5.3760    0.0000 O   0  0  0  0  0  0  0  0  0  0  0  0
  -11.5175    5.6622   -0.0000 C   0  0  0  0  0  0  0  0  0  0  0  0
   -8.9650    3.8938    1.8349 C   0  0  1  0  0  0  0  0  0  0  0  0
  -10.1455    3.1491    1.9892 O   0  0  0  0  0  0  0  0  0  0  0  0
   -7.6592    2.9915    2.0479 C   0  0  2  0  0  0  0  0  0  0  0  0
   -8.0256    1.6409    1.9612 O   0  0  0  0  0  0  0  0  0  0  0  0
   -4.7943    0.0000    0.0000 C   0  0  2  0  0  0  0  0  0  0  0  0
   -6.0523    0.8170    0.0000 C   0  0  0  0  0  0  0  0  0  0  0  0
   -4.6482   -1.4925    0.0551 C   0  0  0  0  0  0  0  0  0  0  0  0
   -3.8787   -2.8180    0.0000 C   0  0  0  0  0  0  0  0  0  0  0  0
   -5.0922   -3.6997    0.0000 C   0  0  0  0  0  0  0  0  0  0  0  0
   -2.3431   -3.3343   -0.0205 C   0  0  0  0  0  0  0  0  0  0  0  0
   -1.4815   -4.5597    0.0000 C   0  0  0  0  0  0  0  0  0  0  0  0
   -1.9451   -5.9863    0.0000 C   0  0  0  0  0  0  0  0  0  0  0  0
    0.1090   -4.1174    0.0071 C   0  0  0  0  0  0  0  0  0  0  0  0
    1.4815   -4.5597    0.0000 C   0  0  0  0  0  0  0  0  0  0  0  0
    1.9451   -5.9863    0.0000 C   0  0  0  0  0  0  0  0  0  0  0  0
    2.6208   -3.4114    0.2629 C   0  0  0  0  0  0  0  0  0  0  0  0
    3.1521   -3.5142    1.3592 O   0  0  0  0  0  0  0  0  0  0  0  0
    3.1033   -2.3438   -0.5806 O   0  0  0  0  0  0  0  0  0  0  0  0
    7.3966   -3.0152    0.0000 C   0  0  2  0  0  0  0  0  0  0  0  0
    5.9783   -3.5036    0.0000 C   0  0  0  0  0  0  0  0  0  0  0  0
    8.7936   -3.2021   -0.0123 C   0  0  1  0  0  0  0  0  0  0  0  0
    9.0408   -4.0644    1.1025 O   0  0  0  0  0  0  0  0  0  0  0  0
    9.6689   -1.7556   -0.0000 C   0  0  1  0  0  0  0  0  0  0  0  0
   10.8010   -2.7397    0.0000 C   0  0  0  0  0  0  0  0  0  0  0  0
   11.8245    2.1692   -0.1533 O   0  0  0  0  0  0  0  0  0  0  0  0
   12.5794    3.0831    0.6918 C   0  0  1  0  0  0  0  0  0  0  0  0
   13.8860    2.4057    1.2412 C   0  0  0  0  0  0  0  0  0  0  0  0
   14.6995    2.1523    0.0000 C   0  0  2  0  0  0  0  0  0  0  0  0
   16.1720    1.8661    0.0000 C   0  0  0  0  0  0  0  0  0  0  0  0
   14.0821    1.2480   -0.8886 O   0  0  0  0  0  0  0  0  0  0  0  0
   15.1047    3.5302   -0.8030 C   0  0  1  0  0  0  0  0  0  0  0  0
   16.6135    3.8249   -1.3407 O   0  0  0  0  0  0  0  0  0  0  0  0
   18.1672    3.6913   -1.4813 C   0  0  1  0  0  0  0  0  0  0  0  0
   18.7699    2.2724   -1.5451 C   0  0  0  0  0  0  0  0  0  0  0  0
   19.4042    1.8481   -0.1918 C   0  0  1  0  0  0  0  0  0  0  0  0
   19.2580    0.4024    0.0000 O   0  0  0  0  0  0  0  0  0  0  0  0
   20.2020   -0.7633    0.0000 C   0  0  0  0  0  0  0  0  0  0  0  0
   20.6175    2.7018   -0.0743 C   0  0  2  0  0  0  0  0  0  0  0  0
   21.4392    2.3647   -1.1843 O   0  0  0  0  0  0  0  0  0  0  0  0
   20.2913    4.3532    0.0000 C   0  0  1  0  0  0  0  0  0  0  0  0
   21.7728    4.5878   -0.0000 C   0  0  0  0  0  0  0  0  0  0  0  0
   19.1918    4.7111   -0.9842 O   0  0  0  0  0  0  0  0  0  0  0  0
   14.2931    4.7184    0.0000 C   0  0  2  0  0  0  0  0  0  0  0  0
   15.6050    5.4456    0.0000 C   0  0  0  0  0  0  0  0  0  0  0  0
   12.8974    4.3146   -0.0936 O   0  0  0  0  0  0  0  0  0  0  0  0
   12.2748   -1.9611    2.9162 H   0  0  0  0  0  0  0  0  0  0  0  0
   14.0213   -1.6165    2.7524 H   0  0  0  0  0  0  0  0  0  0  0  0
   13.0410   -0.4910    3.7329 H   0  0  0  0  0  0  0  0  0  0  0  0
   10.8137   -0.2399    2.1376 H   0  0  0  0  0  0  0  0  0  0  0  0
   11.6859    1.2268    2.4712 H   0  0  0  0  0  0  0  0  0  0  0  0
   11.7094    0.1121   -0.3754 H   0  0  0  0  0  0  0  0  0  0  0  0
    9.7180    1.0008   -1.1246 H   0  0  0  0  0  0  0  0  0  0  0  0
    9.4024    1.6367    0.5400 H   0  0  0  0  0  0  0  0  0  0  0  0
    8.4639   -0.4037    1.2984 H   0  0  0  0  0  0  0  0  0  0  0  0
    7.7317   -1.2711   -2.8209 H   0  0  0  0  0  0  0  0  0  0  0  0
    5.5007   -0.5466   -2.0816 H   0  0  0  0  0  0  0  0  0  0  0  0
    4.3751   -2.0925   -3.0009 H   0  0  0  0  0  0  0  0  0  0  0  0
    4.6949   -1.5277    0.6013 H   0  0  0  0  0  0  0  0  0  0  0  0
    3.2196    0.1834    0.7208 H   0  0  0  0  0  0  0  0  0  0  0  0
    2.8771    0.2271   -1.0298 H   0  0  0  0  0  0  0  0  0  0  0  0
    4.7456    1.4807   -1.6048 H   0  0  0  0  0  0  0  0  0  0  0  0
    7.4291    1.9681    1.0301 H   0  0  0  0  0  0  0  0  0  0  0  0
    7.6007    1.8496   -0.9181 H   0  0  0  0  0  0  0  0  0  0  0  0
    7.8258    2.9106    0.0000 H   0  0  0  0  0  0  0  0  0  0  0  0
    4.3838    3.6138   -0.4443 H   0  0  0  0  0  0  0  0  0  0  0  0
    3.9544    2.8131    1.1000 H   0  0  0  0  0  0  0  0  0  0  0  0
    2.1009    2.5750   -1.3855 H   0  0  0  0  0  0  0  0  0  0  0  0
    1.8056    2.0416    0.2953 H   0  0  0  0  0  0  0  0  0  0  0  0
    1.5833    4.9265   -0.8482 H   0  0  0  0  0  0  0  0  0  0  0  0
    1.5791    4.6117    0.9258 H   0  0  0  0  0  0  0  0  0  0  0  0
   -0.3388    2.8035   -0.0719 H   0  0  0  0  0  0  0  0  0  0  0  0
   -0.9292    6.4285   -0.0692 H   0  0  0  0  0  0  0  0  0  0  0  0
   -2.2892    5.9967    1.0579 H   0  0  0  0  0  0  0  0  0  0  0  0
   -2.2758    7.0039    0.0000 H   0  0  0  0  0  0  0  0  0  0  0  0
   -3.6633    4.2089    0.0792 H   0  0  0  0  0  0  0  0  0  0  0  0
   -2.0700    1.5904    0.4253 H   0  0  0  0  0  0  0  0  0  0  0  0
   -4.5463    2.2707   -0.5977 H   0  0  0  0  0  0  0  0  0  0  0  0
   -6.5757    3.2471   -0.0034 H   0  0  0  0  0  0  0  0  0  0  0  0
   -7.7668    6.2620    1.1650 H   0  0  0  0  0  0  0  0  0  0  0  0
   -6.9319    5.1195   -1.5596 H   0  0  0  0  0  0  0  0  0  0  0  0
   -8.0208    6.5363   -1.2731 H   0  0  0  0  0  0  0  0  0  0  0  0
   -6.2931    6.6139   -0.7707 H   0  0  0  0  0  0  0  0  0  0  0  0
   -8.8188    3.7068   -0.2933 H   0  0  0  0  0  0  0  0  0  0  0  0
  -11.4420    6.7631   -0.1134 H   0  0  0  0  0  0  0  0  0  0  0  0
  -11.7021    5.4415    1.0715 H   0  0  0  0  0  0  0  0  0  0  0  0
  -12.5678    5.8664    0.0000 H   0  0  0  0  0  0  0  0  0  0  0  0
   -8.9661    4.7434    2.5589 H   0  0  0  0  0  0  0  0  0  0  0  0
  -10.2716    3.0158    2.9644 H   0  0  0  0  0  0  0  0  0  0  0  0
   -7.3145    3.1838    3.0925 H   0  0  0  0  0  0  0  0  0  0  0  0
   -8.3113    1.3431    2.8648 H   0  0  0  0  0  0  0  0  0  0  0  0
   -4.3700    0.0462   -1.0294 H   0  0  0  0  0  0  0  0  0  0  0  0
   -6.4202    0.3524    0.9408 H   0  0  0  0  0  0  0  0  0  0  0  0
   -6.5463    0.2819   -0.8424 H   0  0  0  0  0  0  0  0  0  0  0  0
   -6.9497    1.3998    0.0000 H   0  0  0  0  0  0  0  0  0  0  0  0
   -5.7136   -1.7175    0.1575 H   0  0  0  0  0  0  0  0  0  0  0  0
   -5.4798   -3.5412    1.0410 H   0  0  0  0  0  0  0  0  0  0  0  0
   -5.5551   -3.4426   -0.9896 H   0  0  0  0  0  0  0  0  0  0  0  0
   -5.9578   -4.3286    0.0000 H   0  0  0  0  0  0  0  0  0  0  0  0
   -1.7729   -2.4157   -0.0251 H   0  0  0  0  0  0  0  0  0  0  0  0
   -2.4206   -5.9322   -1.0016 H   0  0  0  0  0  0  0  0  0  0  0  0
   -0.9387   -6.4456   -0.0625 H   0  0  0  0  0  0  0  0  0  0  0  0
   -2.2758   -7.0039    0.0000 H   0  0  0  0  0  0  0  0  0  0  0  0
    0.1634   -3.0393    0.0783 H   0  0  0  0  0  0  0  0  0  0  0  0
    1.4763   -6.2451    0.9729 H   0  0  0  0  0  0  0  0  0  0  0  0
    3.0329   -5.8061    0.1166 H   0  0  0  0  0  0  0  0  0  0  0  0
    2.2758   -7.0039    0.0000 H   0  0  0  0  0  0  0  0  0  0  0  0
    7.2964   -2.5058    0.9929 H   0  0  0  0  0  0  0  0  0  0  0  0
    6.0918   -4.1328   -0.9118 H   0  0  0  0  0  0  0  0  0  0  0  0
    6.0850   -4.2031    0.8625 H   0  0  0  0  0  0  0  0  0  0  0  0
    4.9666   -3.8520    0.0000 H   0  0  0  0  0  0  0  0  0  0  0  0
    8.9178   -3.7701   -0.9811 H   0  0  0  0  0  0  0  0  0  0  0  0
    9.3396   -4.9414    0.7437 H   0  0  0  0  0  0  0  0  0  0  0  0
    9.8806   -1.7172    1.0843 H   0  0  0  0  0  0  0  0  0  0  0  0
   10.8827   -2.8403   -1.1150 H   0  0  0  0  0  0  0  0  0  0  0  0
   11.6437   -2.0357    0.1845 H   0  0  0  0  0  0  0  0  0  0  0  0
   11.6085   -3.4417   -0.0000 H   0  0  0  0  0  0  0  0  0  0  0  0
   11.9440    3.3831    1.5514 H   0  0  0  0  0  0  0  0  0  0  0  0
   13.8086    1.5216    1.8461 H   0  0  0  0  0  0  0  0  0  0  0  0
   14.4314    3.0413    1.9638 H   0  0  0  0  0  0  0  0  0  0  0  0
   16.1001    0.8433    0.4289 H   0  0  0  0  0  0  0  0  0  0  0  0
   16.4643    2.5127    0.8679 H   0  0  0  0  0  0  0  0  0  0  0  0
   17.2223    1.6620    0.0000 H   0  0  0  0  0  0  0  0  0  0  0  0
   14.1485    0.3406   -0.4921 H   0  0  0  0  0  0  0  0  0  0  0  0
   14.5307    3.4712   -1.7561 H   0  0  0  0  0  0  0  0  0  0  0  0
   18.2262    3.8786   -2.5743 H   0  0  0  0  0  0  0  0  0  0  0  0
   18.0436    1.5518   -1.9827 H   0  0  0  0  0  0  0  0  0  0  0  0
   18.0436    1.5518   -1.9827 H   0  0  0  0  0  0  0  0  0  0  0  0
   18.8978    2.2638    0.7089 H   0  0  0  0  0  0  0  0  0  0  0  0
   19.5269   -1.4844   -0.5046 H   0  0  0  0  0  0  0  0  0  0  0  0
   20.9114   -0.3781   -0.7611 H   0  0  0  0  0  0  0  0  0  0  0  0
   20.8754   -1.5948    0.0000 H   0  0  0  0  0  0  0  0  0  0  0  0
   21.1160    2.3736    0.8793 H   0  0  0  0  0  0  0  0  0  0  0  0
   22.2482    1.9066   -0.8350 H   0  0  0  0  0  0  0  0  0  0  0  0
   19.8589    4.5918    1.0003 H   0  0  0  0  0  0  0  0  0  0  0  0
   21.9866    4.3683    1.0766 H   0  0  0  0  0  0  0  0  0  0  0  0
   21.6843    5.6911   -0.0896 H   0  0  0  0  0  0  0  0  0  0  0  0
   22.8296    4.7552    0.0000 H   0  0  0  0  0  0  0  0  0  0  0  0
   14.2641    4.8399    1.1112 H   0  0  0  0  0  0  0  0  0  0  0  0
   16.2009    4.9251    0.8149 H   0  0  0  0  0  0  0  0  0  0  0  0
   15.2279    6.4455    0.3339 H   0  0  0  0  0  0  0  0  0  0  0  0
   16.5408    5.9643    0.0000 H   0  0  0  0  0  0  0  0  0  0  0  0
  1  2  1  0  0  0  0
  1 79  1  0  0  0  0
  1 80  1  0  0  0  0
  1 81  1  0  0  0  0
  2  3  1  0  0  0  0
  3 82  1  0  0  0  0
  3 83  1  0  0  0  0
  4  3  1  0  0  0  0
  4  5  1  0  0  0  0
  4 58  1  0  0  0  0
  4 84  1  6  0  0  0
  5 85  1  0  0  0  0
  5 86  1  0  0  0  0
  6  5  1  0  0  0  0
  6  7  1  0  0  0  0
  6 87  1  1  0  0  0
  7  8  1  0  0  0  0
  8  9  1  1  0  0  0
  8 10  1  0  0  0  0
  8 52  1  0  0  0  0
  9 88  1  0  0  0  0
 10 11  1  0  0  0  0
 10 12  1  0  0  0  0
 10 89  1  1  0  0  0
 11 90  1  0  0  0  0
 12 13  1  0  0  0  0
 12 91  1  6  0  0  0
 13 14  1  0  0  0  0
 13 92  1  0  0  0  0
 13 93  1  0  0  0  0
 14 15  1  0  0  0  0
 14 17  1  0  0  0  0
 14 94  1  6  0  0  0
 15 16  1  0  0  0  0
 16 95  1  0  0  0  0
 16 96  1  0  0  0  0
 16 97  1  0  0  0  0
 17 18  1  0  0  0  0
 17 98  1  0  0  0  0
 17 99  1  0  0  0  0
 18 19  1  0  0  0  0
 18100  1  0  0  0  0
 18101  1  0  0  0  0
 19 20  1  0  0  0  0
 19102  1  0  0  0  0
 19103  1  0  0  0  0
 20 21  2  0  0  0  0
 20104  1  0  0  0  0
 21 22  1  0  0  0  0
 21 23  1  0  0  0  0
 22105  1  0  0  0  0
 22106  1  0  0  0  0
 22107  1  0  0  0  0
 23 24  2  0  0  0  0
 23108  1  0  0  0  0
 24 25  1  0  0  0  0
 24109  1  0  0  0  0
 25 26  1  0  0  0  0
 25 38  1  0  0  0  0
 25110  1  1  0  0  0
 27 26  1  0  0  0  0
 27 28  1  0  0  0  0
 27111  1  6  0  0  0
 28 29  1  0  0  0  0
 29 30  1  0  0  0  0
 29 31  1  0  0  0  0
 29112  1  1  0  0  0
 30113  1  0  0  0  0
 30114  1  0  0  0  0
 30115  1  0  0  0  0
 31 32  1  0  0  0  0
 31 34  1  0  0  0  0
 31116  1  6  0  0  0
 32 33  1  0  0  0  0
 33117  1  0  0  0  0
 33118  1  0  0  0  0
 33119  1  0  0  0  0
 34 35  1  0  0  0  0
 34 36  1  0  0  0  0
 34120  1  1  0  0  0
 35121  1  0  0  0  0
 36 37  1  0  0  0  0
 36 27  1  0  0  0  0
 36122  1  6  0  0  0
 37123  1  0  0  0  0
 38 39  1  0  0  0  0
 38 40  1  0  0  0  0
 38124  1  6  0  0  0
 39125  1  0  0  0  0
 39126  1  0  0  0  0
 39127  1  0  0  0  0
 40 41  2  0  0  0  0
 40128  1  0  0  0  0
 41 42  1  0  0  0  0
 41 43  1  0  0  0  0
 42129  1  0  0  0  0
 42130  1  0  0  0  0
 42131  1  0  0  0  0
 43 44  2  0  0  0  0
 43132  1  0  0  0  0
 44 45  1  0  0  0  0
 44 46  1  0  0  0  0
 45133  1  0  0  0  0
 45134  1  0  0  0  0
 45135  1  0  0  0  0
 46 47  2  0  0  0  0
 46136  1  0  0  0  0
 47 48  1  0  0  0  0
 47 49  1  0  0  0  0
 48137  1  0  0  0  0
 48138  1  0  0  0  0
 48139  1  0  0  0  0
 49 50  2  0  0  0  0
 49 51  1  0  0  0  0
 51 12  1  0  0  0  0
 52 53  1  0  0  0  0
 52 54  1  0  0  0  0
 52140  1  6  0  0  0
 53141  1  0  0  0  0
 53142  1  0  0  0  0
 53143  1  0  0  0  0
 54 55  1  0  0  0  0
 54 56  1  0  0  0  0
 54144  1  1  0  0  0
 55145  1  0  0  0  0
 56 57  1  0  0  0  0
 56  6  1  0  0  0  0
 56146  1  1  0  0  0
 57147  1  0  0  0  0
 57148  1  0  0  0  0
 57149  1  0  0  0  0
 59 58  1  0  0  0  0
 59 60  1  0  0  0  0
 59150  1  1  0  0  0
 60 61  1  0  0  0  0
 60151  1  0  0  0  0
 60152  1  0  0  0  0
 61 62  1  0  0  0  0
 61 63  1  1  0  0  0
 61 64  1  0  0  0  0
 62153  1  0  0  0  0
 62154  1  0  0  0  0
 62155  1  0  0  0  0
 63156  1  0  0  0  0
 64 65  1  0  0  0  0
 64 76  1  0  0  0  0
 64157  1  1  0  0  0
 66 65  1  0  0  0  0
 66 67  1  0  0  0  0
 66158  1  1  0  0  0
 67 68  1  0  0  0  0
 67159  1  0  0  0  0
 67160  1  0  0  0  0
 68 69  1  0  0  0  0
 68 71  1  0  0  0  0
 68161  1  1  0  0  0
 69 70  1  0  0  0  0
 70162  1  0  0  0  0
 70163  1  0  0  0  0
 70164  1  0  0  0  0
 71 72  1  0  0  0  0
 71 73  1  0  0  0  0
 71165  1  6  0  0  0
 72166  1  0  0  0  0
 73 74  1  0  0  0  0
 73 75  1  0  0  0  0
 73167  1  1  0  0  0
 74168  1  0  0  0  0
 74169  1  0  0  0  0
 74170  1  0  0  0  0
 75 66  1  0  0  0  0
 76 77  1  0  0  0  0
 76 78  1  0  0  0  0
 76171  1  6  0  0  0
 77172  1  0  0  0  0
 77173  1  0  0  0  0
 77174  1  0  0  0  0
 78 59  1  0  0  0  0
M  END
>  <IDENTIFIER>
CNP0390157.1

>  <Energy>
12113.6

$$$$
