
 OpenBabel09062500343D

 57 60  0  0  0  0  0  0  0  0999 V2000
    5.7443   -2.5639   -0.6202 C   0  0  0  0  0  0  0  0  0  0  0  0
    5.1921   -1.3221   -0.8662 O   0  0  0  0  0  0  0  0  0  0  0  0
    3.8743   -1.0316   -0.7657 C   0  0  0  0  0  0  0  0  0  0  0  0
    3.4282    0.0055    0.0961 C   0  0  0  0  0  0  0  0  0  0  0  0
    4.3295    0.8764    0.9349 C   0  0  0  0  0  0  0  0  0  0  0  0
    3.7361    1.6926    1.9218 C   0  0  0  0  0  0  0  0  0  0  0  0
    4.5095    2.5171    2.7421 C   0  0  0  0  0  0  0  0  0  0  0  0
    5.8993    2.5591    2.5963 C   0  0  0  0  0  0  0  0  0  0  0  0
    6.6463    3.3549    3.3901 O   0  0  0  0  0  0  0  0  0  0  0  0
    6.5145    1.7676    1.6159 C   0  0  0  0  0  0  0  0  0  0  0  0
    7.8532    1.7889    1.4385 O   0  0  0  0  0  0  0  0  0  0  0  0
    5.7386    0.9391    0.7973 C   0  0  0  0  0  0  0  0  0  0  0  0
    2.1165    0.2194    0.2077 O   0  0  0  0  0  0  0  0  0  0  0  0
    1.1849   -0.4561   -0.4555 C   0  0  0  0  0  0  0  0  0  0  0  0
   -0.1604   -0.1393   -0.2473 C   0  0  0  0  0  0  0  0  0  0  0  0
   -1.1766   -0.8306   -0.9363 C   0  0  0  0  0  0  0  0  0  0  0  0
   -2.5035   -0.5823   -0.7653 O   0  0  0  0  0  0  0  0  0  0  0  0
   -3.1556    0.2671    0.1116 C   0  0  2  0  0  0  0  0  0  0  0  0
   -3.9369   -0.5066    1.0311 O   0  0  0  0  0  0  0  0  0  0  0  0
   -5.3021   -0.6486    0.6760 C   0  0  2  0  0  0  0  0  0  0  0  0
   -5.4543   -1.5819   -0.5520 C   0  0  0  0  0  0  0  0  0  0  0  0
   -6.8075   -1.8393   -0.8182 O   0  0  0  0  0  0  0  0  0  0  0  0
   -6.0229    0.7377    0.5597 C   0  0  1  0  0  0  0  0  0  0  0  0
   -6.7167    1.0635    1.7383 O   0  0  0  0  0  0  0  0  0  0  0  0
   -5.0471    1.8874    0.2058 C   0  0  2  0  0  0  0  0  0  0  0  0
   -5.7319    2.9752   -0.3625 O   0  0  0  0  0  0  0  0  0  0  0  0
   -3.9463    1.3390   -0.6993 C   0  0  1  0  0  0  0  0  0  0  0  0
   -3.0827    2.3435   -1.1726 O   0  0  0  0  0  0  0  0  0  0  0  0
   -0.8184   -1.8405   -1.8501 C   0  0  0  0  0  0  0  0  0  0  0  0
   -1.7715   -2.5163   -2.5322 O   0  0  0  0  0  0  0  0  0  0  0  0
    0.5341   -2.1665   -2.0629 C   0  0  0  0  0  0  0  0  0  0  0  0
    0.8612   -3.1432   -2.9407 O   0  0  0  0  0  0  0  0  0  0  0  0
    1.5472   -1.4755   -1.3559 C   0  0  0  0  0  0  0  0  0  0  0  0
    2.9187   -1.7618   -1.5009 C   0  0  0  0  0  0  0  0  0  0  0  0
    3.2874   -2.6340   -2.2696 O   0  0  0  0  0  0  0  0  0  0  0  0
    6.8404   -2.5076   -0.7786 H   0  0  0  0  0  0  0  0  0  0  0  0
    5.3370   -3.3471   -1.2867 H   0  0  0  0  0  0  0  0  0  0  0  0
    5.5590   -2.8448    0.4393 H   0  0  0  0  0  0  0  0  0  0  0  0
    2.6645    1.6918    2.0748 H   0  0  0  0  0  0  0  0  0  0  0  0
    4.0233    3.1253    3.4947 H   0  0  0  0  0  0  0  0  0  0  0  0
    6.2548    3.9108    4.0783 H   0  0  0  0  0  0  0  0  0  0  0  0
    8.4436    2.3402    1.9706 H   0  0  0  0  0  0  0  0  0  0  0  0
    6.2814    0.3781    0.0622 H   0  0  0  0  0  0  0  0  0  0  0  0
   -0.3831    0.6481    0.4561 H   0  0  0  0  0  0  0  0  0  0  0  0
   -2.4592    0.8250    0.7637 H   0  0  0  0  0  0  0  0  0  0  0  0
   -5.8082   -1.2127    1.4905 H   0  0  0  0  0  0  0  0  0  0  0  0
   -4.9196   -2.5408   -0.3581 H   0  0  0  0  0  0  0  0  0  0  0  0
   -4.9978   -1.1709   -1.4689 H   0  0  0  0  0  0  0  0  0  0  0  0
   -7.0915   -2.5547   -0.1911 H   0  0  0  0  0  0  0  0  0  0  0  0
   -6.7869    0.6269   -0.2396 H   0  0  0  0  0  0  0  0  0  0  0  0
   -6.0653    1.0269    2.4870 H   0  0  0  0  0  0  0  0  0  0  0  0
   -4.5398    2.2457    1.1304 H   0  0  0  0  0  0  0  0  0  0  0  0
   -6.0895    2.6777   -1.2399 H   0  0  0  0  0  0  0  0  0  0  0  0
   -4.4493    0.8987   -1.5829 H   0  0  0  0  0  0  0  0  0  0  0  0
   -2.7484    2.8511   -0.3877 H   0  0  0  0  0  0  0  0  0  0  0  0
   -2.7185   -2.3452   -2.4343 H   0  0  0  0  0  0  0  0  0  0  0  0
    0.2071   -3.6409   -3.4506 H   0  0  0  0  0  0  0  0  0  0  0  0
  1  2  1  0  0  0  0
  1 36  1  0  0  0  0
  1 37  1  0  0  0  0
  1 38  1  0  0  0  0
  2  3  1  0  0  0  0
  3  4  2  0  0  0  0
  4  5  1  0  0  0  0
  4 13  1  0  0  0  0
  5  6  2  0  0  0  0
  6  7  1  0  0  0  0
  6 39  1  0  0  0  0
  7  8  2  0  0  0  0
  7 40  1  0  0  0  0
  8  9  1  0  0  0  0
  8 10  1  0  0  0  0
  9 41  1  0  0  0  0
 10 11  1  0  0  0  0
 10 12  2  0  0  0  0
 11 42  1  0  0  0  0
 12  5  1  0  0  0  0
 12 43  1  0  0  0  0
 13 14  1  0  0  0  0
 14 15  2  0  0  0  0
 15 16  1  0  0  0  0
 15 44  1  0  0  0  0
 16 17  1  0  0  0  0
 16 29  2  0  0  0  0
 18 17  1  0  0  0  0
 18 19  1  0  0  0  0
 18 45  1  1  0  0  0
 19 20  1  0  0  0  0
 20 21  1  0  0  0  0
 20 23  1  0  0  0  0
 20 46  1  1  0  0  0
 21 22  1  0  0  0  0
 21 47  1  0  0  0  0
 21 48  1  0  0  0  0
 22 49  1  0  0  0  0
 23 24  1  0  0  0  0
 23 25  1  0  0  0  0
 23 50  1  6  0  0  0
 24 51  1  0  0  0  0
 25 26  1  0  0  0  0
 25 27  1  0  0  0  0
 25 52  1  1  0  0  0
 26 53  1  0  0  0  0
 27 28  1  0  0  0  0
 27 18  1  0  0  0  0
 27 54  1  6  0  0  0
 28 55  1  0  0  0  0
 29 30  1  0  0  0  0
 29 31  1  0  0  0  0
 30 56  1  0  0  0  0
 31 32  1  0  0  0  0
 31 33  2  0  0  0  0
 32 57  1  0  0  0  0
 33 34  1  0  0  0  0
 33 14  1  0  0  0  0
 34 35  2  0  0  0  0
 34  3  1  0  0  0  0
M  END
>  <IDENTIFIER>
CNP0153741.1

>  <Energy>
651.398

$$$$
