
 OpenBabel09112521333D

 49 51  0  0  0  0  0  0  0  0999 V2000
    3.2234    3.1024    2.5327 C   0  0  0  0  0  0  0  0  0  0  0  0
    3.2980    2.7756    1.1947 O   0  0  0  0  0  0  0  0  0  0  0  0
    2.5590    1.7739    0.6593 C   0  0  0  0  0  0  0  0  0  0  0  0
    1.3964    2.0965   -0.0274 C   0  0  0  0  0  0  0  0  0  0  0  0
    1.0307    3.3952   -0.1482 O   0  0  0  0  0  0  0  0  0  0  0  0
    0.5887    1.0826   -0.5647 C   0  0  0  0  0  0  0  0  0  0  0  0
    0.9687   -0.2870   -0.4297 C   0  0  0  0  0  0  0  0  0  0  0  0
    0.1464   -1.2978   -1.0147 C   0  0  0  0  0  0  0  0  0  0  0  0
    0.5385   -2.6554   -0.9235 C   0  0  0  0  0  0  0  0  0  0  0  0
   -0.2028   -3.6769   -1.4194 O   0  0  0  0  0  0  0  0  0  0  0  0
    1.7212   -3.0044   -0.2710 C   0  0  0  0  0  0  0  0  0  0  0  0
    2.0706   -4.3131   -0.1989 O   0  0  0  0  0  0  0  0  0  0  0  0
    2.5537   -2.0294    0.3181 C   0  0  0  0  0  0  0  0  0  0  0  0
    3.8078   -2.5464    0.9909 C   0  0  0  0  0  0  0  0  0  0  0  0
    2.1927   -0.6347    0.2508 C   0  0  0  0  0  0  0  0  0  0  0  0
    2.9778    0.4467    0.8071 C   0  0  0  0  0  0  0  0  0  0  0  0
    4.1436    0.3279    1.4871 O   0  0  0  0  0  0  0  0  0  0  0  0
   -1.1069   -0.8957   -1.7390 C   0  0  0  0  0  0  0  0  0  0  0  0
   -1.5688   -1.6175   -2.6076 O   0  0  0  0  0  0  0  0  0  0  0  0
   -1.7802    0.4455   -1.4617 C   0  0  1  0  0  0  0  0  0  0  0  0
   -2.5172    0.8839   -2.5902 O   0  0  0  0  0  0  0  0  0  0  0  0
   -2.7320    0.3787   -0.1765 C   0  0  0  0  0  0  0  0  0  0  0  0
   -3.3901    1.7569    0.0921 C   0  0  0  0  0  0  0  0  0  0  0  0
   -1.9371    0.0200    1.1153 C   0  0  0  0  0  0  0  0  0  0  0  0
   -3.8515   -0.6679   -0.3634 C   0  0  0  0  0  0  0  0  0  0  0  0
   -4.9728   -0.5204   -1.3581 C   0  0  0  0  0  0  0  0  0  0  0  0
   -3.8758   -1.6654    0.3450 O   0  0  0  0  0  0  0  0  0  0  0  0
   -0.6795    1.4567   -1.2638 C   0  0  0  0  0  0  0  0  0  0  0  0
   -0.8882    2.6176   -1.5911 O   0  0  0  0  0  0  0  0  0  0  0  0
    3.9158    3.9428    2.7421 H   0  0  0  0  0  0  0  0  0  0  0  0
    3.5060    2.2359    3.1665 H   0  0  0  0  0  0  0  0  0  0  0  0
    2.1894    3.4213    2.7862 H   0  0  0  0  0  0  0  0  0  0  0  0
    1.5422    4.1344    0.2085 H   0  0  0  0  0  0  0  0  0  0  0  0
   -1.0901   -3.6329   -1.7877 H   0  0  0  0  0  0  0  0  0  0  0  0
    1.5557   -5.0386   -0.5784 H   0  0  0  0  0  0  0  0  0  0  0  0
    3.9413   -3.6449    0.9427 H   0  0  0  0  0  0  0  0  0  0  0  0
    3.7716   -2.3157    2.0753 H   0  0  0  0  0  0  0  0  0  0  0  0
    4.7028   -2.1313    0.4820 H   0  0  0  0  0  0  0  0  0  0  0  0
    4.6549   -0.4338    1.7496 H   0  0  0  0  0  0  0  0  0  0  0  0
   -3.0111    0.1324   -3.0022 H   0  0  0  0  0  0  0  0  0  0  0  0
   -2.6263    2.5293    0.3223 H   0  0  0  0  0  0  0  0  0  0  0  0
   -4.0773    1.7000    0.9641 H   0  0  0  0  0  0  0  0  0  0  0  0
   -3.9721    2.1152   -0.7806 H   0  0  0  0  0  0  0  0  0  0  0  0
   -1.1631    0.7779    1.3498 H   0  0  0  0  0  0  0  0  0  0  0  0
   -1.4571   -0.9763    1.0434 H   0  0  0  0  0  0  0  0  0  0  0  0
   -2.6189   -0.0114    1.9932 H   0  0  0  0  0  0  0  0  0  0  0  0
   -4.9306    0.4275   -1.9252 H   0  0  0  0  0  0  0  0  0  0  0  0
   -5.9413   -0.5330   -0.8155 H   0  0  0  0  0  0  0  0  0  0  0  0
   -4.9499   -1.3699   -2.0721 H   0  0  0  0  0  0  0  0  0  0  0  0
  1  2  1  0  0  0  0
  1 30  1  0  0  0  0
  1 31  1  0  0  0  0
  1 32  1  0  0  0  0
  2  3  1  0  0  0  0
  3  4  2  0  0  0  0
  4  5  1  0  0  0  0
  4  6  1  0  0  0  0
  5 33  1  0  0  0  0
  6  7  2  0  0  0  0
  7  8  1  0  0  0  0
  8  9  2  0  0  0  0
  8 18  1  0  0  0  0
  9 10  1  0  0  0  0
  9 11  1  0  0  0  0
 10 34  1  0  0  0  0
 11 12  1  0  0  0  0
 11 13  2  0  0  0  0
 12 35  1  0  0  0  0
 13 14  1  0  0  0  0
 13 15  1  0  0  0  0
 14 36  1  0  0  0  0
 14 37  1  0  0  0  0
 14 38  1  0  0  0  0
 15 16  2  0  0  0  0
 15  7  1  0  0  0  0
 16 17  1  0  0  0  0
 16  3  1  0  0  0  0
 17 39  1  0  0  0  0
 18 19  2  0  0  0  0
 18 20  1  0  0  0  0
 20 21  1  6  0  0  0
 20 22  1  0  0  0  0
 20 28  1  0  0  0  0
 21 40  1  0  0  0  0
 22 23  1  0  0  0  0
 22 24  1  0  0  0  0
 22 25  1  0  0  0  0
 23 41  1  0  0  0  0
 23 42  1  0  0  0  0
 23 43  1  0  0  0  0
 24 44  1  0  0  0  0
 24 45  1  0  0  0  0
 24 46  1  0  0  0  0
 25 26  1  0  0  0  0
 25 27  2  0  0  0  0
 26 47  1  0  0  0  0
 26 48  1  0  0  0  0
 26 49  1  0  0  0  0
 28 29  2  0  0  0  0
 28  6  1  0  0  0  0
M  END
>  <IDENTIFIER>
CNP0159099.1

>  <Energy>
575.672

$$$$
