
 OpenBabel09102522053D

 68 67  0  0  0  0  0  0  0  0999 V2000
   -6.1356    0.9152    0.3285 C   0  0  0  0  0  0  0  0  0  0  0  0
   -5.8878    1.7770    1.3275 C   0  0  0  0  0  0  0  0  0  0  0  0
   -6.8278    2.9322    1.5559 C   0  0  0  0  0  0  0  0  0  0  0  0
   -4.7038    1.6516    2.2741 C   0  0  0  0  0  0  0  0  0  0  0  0
   -3.8613    0.5723    2.0463 O   0  0  0  0  0  0  0  0  0  0  0  0
   -3.0118    0.4248    0.9928 C   0  0  0  0  0  0  0  0  0  0  0  0
   -3.0351    1.2180    0.0605 O   0  0  0  0  0  0  0  0  0  0  0  0
   -1.9878   -0.6962    1.0265 C   0  0  2  0  0  0  0  0  0  0  0  0
   -1.1410   -0.6595   -0.1660 N   0  0  0  0  0  0  0  0  0  0  0  0
    0.2152   -0.5033   -0.1233 C   0  0  0  0  0  0  0  0  0  0  0  0
    0.7804   -0.3745    0.9534 O   0  0  0  0  0  0  0  0  0  0  0  0
    1.0392   -0.4253   -1.4033 C   0  0  1  0  0  0  0  0  0  0  0  0
    2.3297   -0.0123   -1.0861 O   0  0  0  0  0  0  0  0  0  0  0  0
    2.8987    1.1656   -1.4640 C   0  0  0  0  0  0  0  0  0  0  0  0
    2.2169    2.0485   -1.9670 O   0  0  0  0  0  0  0  0  0  0  0  0
    4.3998    1.3383   -1.3281 C   0  0  1  0  0  0  0  0  0  0  0  0
    4.8749    2.6027   -1.8948 N   0  0  0  0  0  0  0  0  0  0  0  0
    4.4887    3.8514   -1.5156 C   0  0  0  0  0  0  0  0  0  0  0  0
    3.6496    4.0316   -0.6493 O   0  0  0  0  0  0  0  0  0  0  0  0
    4.9870    1.0347    0.0961 C   0  0  1  0  0  0  0  0  0  0  0  0
    6.5260    1.0249    0.0082 C   0  0  0  0  0  0  0  0  0  0  0  0
    4.5757    1.9502    1.2790 C   0  0  0  0  0  0  0  0  0  0  0  0
    3.0939    1.8852    1.6407 C   0  0  0  0  0  0  0  0  0  0  0  0
    1.1570   -1.7737   -2.1815 C   0  0  0  0  0  0  0  0  0  0  0  0
   -0.1870   -2.3728   -2.6169 C   0  0  0  0  0  0  0  0  0  0  0  0
    2.0283   -1.5825   -3.4367 C   0  0  0  0  0  0  0  0  0  0  0  0
   -2.6473   -2.0968    1.2060 C   0  0  1  0  0  0  0  0  0  0  0  0
   -3.5380   -2.4936    0.0123 C   0  0  0  0  0  0  0  0  0  0  0  0
   -1.5476   -3.1558    1.4786 C   0  0  0  0  0  0  0  0  0  0  0  0
   -2.0970   -4.5347    1.8468 C   0  0  0  0  0  0  0  0  0  0  0  0
   -6.9967    1.0419   -0.3207 H   0  0  0  0  0  0  0  0  0  0  0  0
   -5.5004    0.0696    0.1355 H   0  0  0  0  0  0  0  0  0  0  0  0
   -7.6650    2.9464    0.8248 H   0  0  0  0  0  0  0  0  0  0  0  0
   -6.2716    3.8884    1.4667 H   0  0  0  0  0  0  0  0  0  0  0  0
   -7.2613    2.8595    2.5755 H   0  0  0  0  0  0  0  0  0  0  0  0
   -5.1170    1.5435    3.2989 H   0  0  0  0  0  0  0  0  0  0  0  0
   -4.1058    2.5883    2.2500 H   0  0  0  0  0  0  0  0  0  0  0  0
   -1.3826   -0.5129    1.9415 H   0  0  0  0  0  0  0  0  0  0  0  0
   -1.6053   -0.7266   -1.0821 H   0  0  0  0  0  0  0  0  0  0  0  0
    0.5440    0.3270   -2.0584 H   0  0  0  0  0  0  0  0  0  0  0  0
    4.8190    0.5297   -1.9689 H   0  0  0  0  0  0  0  0  0  0  0  0
    5.5513    2.5421   -2.6715 H   0  0  0  0  0  0  0  0  0  0  0  0
    4.9159    4.7141   -2.0168 H   0  0  0  0  0  0  0  0  0  0  0  0
    4.6790   -0.0008    0.3651 H   0  0  0  0  0  0  0  0  0  0  0  0
    6.9137    2.0363   -0.2406 H   0  0  0  0  0  0  0  0  0  0  0  0
    6.8696    0.3102   -0.7699 H   0  0  0  0  0  0  0  0  0  0  0  0
    6.9714    0.7073    0.9753 H   0  0  0  0  0  0  0  0  0  0  0  0
    4.8932    2.9962    1.1060 H   0  0  0  0  0  0  0  0  0  0  0  0
    5.1222    1.6045    2.1845 H   0  0  0  0  0  0  0  0  0  0  0  0
    2.4481    2.2654    0.8283 H   0  0  0  0  0  0  0  0  0  0  0  0
    2.9078    2.5112    2.5383 H   0  0  0  0  0  0  0  0  0  0  0  0
    2.8167    0.8391    1.8832 H   0  0  0  0  0  0  0  0  0  0  0  0
    1.6634   -2.5186   -1.5279 H   0  0  0  0  0  0  0  0  0  0  0  0
   -0.7557   -1.6547   -3.2458 H   0  0  0  0  0  0  0  0  0  0  0  0
   -0.7841   -2.6723   -1.7390 H   0  0  0  0  0  0  0  0  0  0  0  0
   -0.0208   -3.3030   -3.2014 H   0  0  0  0  0  0  0  0  0  0  0  0
    1.5656   -0.8428   -4.1252 H   0  0  0  0  0  0  0  0  0  0  0  0
    2.1464   -2.5468   -3.9761 H   0  0  0  0  0  0  0  0  0  0  0  0
    3.0457   -1.2312   -3.1656 H   0  0  0  0  0  0  0  0  0  0  0  0
   -3.2910   -2.0437    2.1128 H   0  0  0  0  0  0  0  0  0  0  0  0
   -2.9459   -2.6205   -0.9140 H   0  0  0  0  0  0  0  0  0  0  0  0
   -4.3104   -1.7293   -0.1715 H   0  0  0  0  0  0  0  0  0  0  0  0
   -4.0747   -3.4413    0.2162 H   0  0  0  0  0  0  0  0  0  0  0  0
   -0.9317   -2.8128    2.3391 H   0  0  0  0  0  0  0  0  0  0  0  0
   -0.8788   -3.2570    0.5980 H   0  0  0  0  0  0  0  0  0  0  0  0
   -2.7521   -4.4612    2.7407 H   0  0  0  0  0  0  0  0  0  0  0  0
   -1.2512   -5.2145    2.0827 H   0  0  0  0  0  0  0  0  0  0  0  0
   -2.6636   -4.9832    1.0065 H   0  0  0  0  0  0  0  0  0  0  0  0
  1  2  2  0  0  0  0
  1 31  1  0  0  0  0
  1 32  1  0  0  0  0
  2  3  1  0  0  0  0
  2  4  1  0  0  0  0
  3 33  1  0  0  0  0
  3 34  1  0  0  0  0
  3 35  1  0  0  0  0
  4  5  1  0  0  0  0
  4 36  1  0  0  0  0
  4 37  1  0  0  0  0
  5  6  1  0  0  0  0
  6  7  2  0  0  0  0
  6  8  1  0  0  0  0
  8  9  1  0  0  0  0
  8 27  1  0  0  0  0
  8 38  1  1  0  0  0
  9 10  1  0  0  0  0
  9 39  1  0  0  0  0
 10 11  2  0  0  0  0
 10 12  1  0  0  0  0
 12 13  1  0  0  0  0
 12 24  1  0  0  0  0
 12 40  1  6  0  0  0
 13 14  1  0  0  0  0
 14 15  2  0  0  0  0
 14 16  1  0  0  0  0
 16 17  1  0  0  0  0
 16 20  1  0  0  0  0
 16 41  1  6  0  0  0
 17 18  1  0  0  0  0
 17 42  1  0  0  0  0
 18 19  2  0  0  0  0
 18 43  1  0  0  0  0
 20 21  1  0  0  0  0
 20 22  1  0  0  0  0
 20 44  1  1  0  0  0
 21 45  1  0  0  0  0
 21 46  1  0  0  0  0
 21 47  1  0  0  0  0
 22 23  1  0  0  0  0
 22 48  1  0  0  0  0
 22 49  1  0  0  0  0
 23 50  1  0  0  0  0
 23 51  1  0  0  0  0
 23 52  1  0  0  0  0
 24 25  1  0  0  0  0
 24 26  1  0  0  0  0
 24 53  1  0  0  0  0
 25 54  1  0  0  0  0
 25 55  1  0  0  0  0
 25 56  1  0  0  0  0
 26 57  1  0  0  0  0
 26 58  1  0  0  0  0
 26 59  1  0  0  0  0
 27 28  1  0  0  0  0
 27 29  1  0  0  0  0
 27 60  1  1  0  0  0
 28 61  1  0  0  0  0
 28 62  1  0  0  0  0
 28 63  1  0  0  0  0
 29 30  1  0  0  0  0
 29 64  1  0  0  0  0
 29 65  1  0  0  0  0
 30 66  1  0  0  0  0
 30 67  1  0  0  0  0
 30 68  1  0  0  0  0
M  END
>  <IDENTIFIER>
CNP0354001.1

>  <Energy>
269.05

$$$$
