
 OpenBabel09052516463D

 56 58  0  0  0  0  0  0  0  0999 V2000
   -4.0677    1.8042    1.0928 C   0  0  0  0  0  0  0  0  0  0  0  0
   -3.3974    1.1092   -0.1126 C   0  0  0  0  0  0  0  0  0  0  0  0
   -4.3011   -0.0546   -0.5616 C   0  0  0  0  0  0  0  0  0  0  0  0
   -1.8916    0.6883    0.1388 C   0  0  1  0  0  0  0  0  0  0  0  0
   -1.7355   -0.2262    1.3744 C   0  0  0  0  0  0  0  0  0  0  0  0
   -0.5767   -1.1017    0.9683 C   0  0  0  0  0  0  0  0  0  0  0  0
   -0.8514   -1.2979   -0.5296 C   0  0  1  0  0  0  0  0  0  0  0  0
   -1.8676   -2.4638   -0.7001 C   0  0  0  0  0  0  0  0  0  0  0  0
   -1.4387   -0.0753   -0.9879 O   0  0  0  0  0  0  0  0  0  0  0  0
    0.4211   -1.6055   -1.4220 C   0  0  2  0  0  0  0  0  0  0  0  0
    0.0049   -1.9257   -2.7323 O   0  0  0  0  0  0  0  0  0  0  0  0
    1.4452   -2.6594   -0.8941 C   0  0  0  0  0  0  0  0  0  0  0  0
    2.7835   -2.0765   -0.3437 C   0  0  0  0  0  0  0  0  0  0  0  0
    2.7396   -1.3536    0.9957 C   0  0  0  0  0  0  0  0  0  0  0  0
    2.2914   -2.1203    2.1908 C   0  0  0  0  0  0  0  0  0  0  0  0
    1.9746   -3.2959    2.1052 O   0  0  0  0  0  0  0  0  0  0  0  0
    3.1543   -0.0697    1.2031 C   0  0  0  0  0  0  0  0  0  0  0  0
    3.7183    0.9308    0.2020 C   0  0  0  0  0  0  0  0  0  0  0  0
    3.0169    2.3142    0.2890 C   0  0  0  0  0  0  0  0  0  0  0  0
    1.5812    2.3929   -0.2834 C   0  0  1  0  0  0  0  0  0  0  0  0
    1.4246    2.9530   -1.7020 C   0  0  0  0  0  0  0  0  0  0  0  0
    1.0595    1.1035   -0.3152 O   0  0  0  0  0  0  0  0  0  0  0  0
    0.4439    1.9322    0.6138 C   0  0  2  0  0  0  0  0  0  0  0  0
   -1.0481    2.0269    0.2555 C   0  0  0  0  0  0  0  0  0  0  0  0
   -5.1078    2.0951    0.8317 H   0  0  0  0  0  0  0  0  0  0  0  0
   -3.5538    2.7368    1.3886 H   0  0  0  0  0  0  0  0  0  0  0  0
   -4.1096    1.1227    1.9684 H   0  0  0  0  0  0  0  0  0  0  0  0
   -3.4031    1.8238   -0.9662 H   0  0  0  0  0  0  0  0  0  0  0  0
   -4.4404   -0.8084    0.2372 H   0  0  0  0  0  0  0  0  0  0  0  0
   -3.8929   -0.5397   -1.4722 H   0  0  0  0  0  0  0  0  0  0  0  0
   -5.3089    0.3320   -0.8254 H   0  0  0  0  0  0  0  0  0  0  0  0
   -2.6095   -0.8939    1.4713 H   0  0  0  0  0  0  0  0  0  0  0  0
   -1.6346    0.2963    2.3498 H   0  0  0  0  0  0  0  0  0  0  0  0
   -0.4660   -2.0355    1.5595 H   0  0  0  0  0  0  0  0  0  0  0  0
    0.3326   -0.5318    1.1217 H   0  0  0  0  0  0  0  0  0  0  0  0
   -2.7878   -2.3408   -0.1070 H   0  0  0  0  0  0  0  0  0  0  0  0
   -1.4117   -3.4261   -0.3863 H   0  0  0  0  0  0  0  0  0  0  0  0
   -2.1998   -2.5545   -1.7547 H   0  0  0  0  0  0  0  0  0  0  0  0
    1.0245   -0.7069   -1.5834 H   0  0  0  0  0  0  0  0  0  0  0  0
   -0.2023   -2.8949   -2.7722 H   0  0  0  0  0  0  0  0  0  0  0  0
    1.7979   -3.2316   -1.7809 H   0  0  0  0  0  0  0  0  0  0  0  0
    0.9662   -3.4096   -0.2340 H   0  0  0  0  0  0  0  0  0  0  0  0
    3.2289   -1.4524   -1.1388 H   0  0  0  0  0  0  0  0  0  0  0  0
    3.4796   -2.9325   -0.2050 H   0  0  0  0  0  0  0  0  0  0  0  0
    2.2541   -1.6435    3.1658 H   0  0  0  0  0  0  0  0  0  0  0  0
    3.1210    0.3071    2.2234 H   0  0  0  0  0  0  0  0  0  0  0  0
    3.7312    0.5815   -0.8469 H   0  0  0  0  0  0  0  0  0  0  0  0
    4.7740    1.0954    0.5070 H   0  0  0  0  0  0  0  0  0  0  0  0
    3.6358    3.0544   -0.2634 H   0  0  0  0  0  0  0  0  0  0  0  0
    3.0120    2.6486    1.3493 H   0  0  0  0  0  0  0  0  0  0  0  0
    2.0650    2.3717   -2.3999 H   0  0  0  0  0  0  0  0  0  0  0  0
    1.7543    4.0116   -1.7185 H   0  0  0  0  0  0  0  0  0  0  0  0
    0.3883    2.9030   -2.0845 H   0  0  0  0  0  0  0  0  0  0  0  0
    0.7064    1.5851    1.6356 H   0  0  0  0  0  0  0  0  0  0  0  0
   -1.1903    2.6089   -0.6733 H   0  0  0  0  0  0  0  0  0  0  0  0
   -1.4538    2.6531    1.0699 H   0  0  0  0  0  0  0  0  0  0  0  0
  1  2  1  0  0  0  0
  1 25  1  0  0  0  0
  1 26  1  0  0  0  0
  1 27  1  0  0  0  0
  2  3  1  0  0  0  0
  2 28  1  0  0  0  0
  3 29  1  0  0  0  0
  3 30  1  0  0  0  0
  3 31  1  0  0  0  0
  4  2  1  6  0  0  0
  4  5  1  0  0  0  0
  5  6  1  0  0  0  0
  5 32  1  0  0  0  0
  5 33  1  0  0  0  0
  6  7  1  0  0  0  0
  6 34  1  0  0  0  0
  6 35  1  0  0  0  0
  7  8  1  6  0  0  0
  7  9  1  0  0  0  0
  7 10  1  0  0  0  0
  8 36  1  0  0  0  0
  8 37  1  0  0  0  0
  8 38  1  0  0  0  0
  9  4  1  0  0  0  0
 10 11  1  0  0  0  0
 10 12  1  0  0  0  0
 10 39  1  6  0  0  0
 11 40  1  0  0  0  0
 12 13  1  0  0  0  0
 12 41  1  0  0  0  0
 12 42  1  0  0  0  0
 13 14  1  0  0  0  0
 13 43  1  0  0  0  0
 13 44  1  0  0  0  0
 14 15  1  0  0  0  0
 14 17  2  0  0  0  0
 15 16  2  0  0  0  0
 15 45  1  0  0  0  0
 17 18  1  0  0  0  0
 17 46  1  0  0  0  0
 18 19  1  0  0  0  0
 18 47  1  0  0  0  0
 18 48  1  0  0  0  0
 19 20  1  0  0  0  0
 19 49  1  0  0  0  0
 19 50  1  0  0  0  0
 20 21  1  6  0  0  0
 20 22  1  0  0  0  0
 21 51  1  0  0  0  0
 21 52  1  0  0  0  0
 21 53  1  0  0  0  0
 22 23  1  0  0  0  0
 23 24  1  0  0  0  0
 23 20  1  0  0  0  0
 23 54  1  1  0  0  0
 24  4  1  0  0  0  0
 24 55  1  0  0  0  0
 24 56  1  0  0  0  0
M  END
>  <IDENTIFIER>
CNP0077721.1

>  <Energy>
2105.46

$$$$
