
 OpenBabel09132500213D

 64 67  0  0  0  0  0  0  0  0999 V2000
   -3.8735    2.8583   -0.9835 C   0  0  0  0  0  0  0  0  0  0  0  0
   -2.5483    3.1276   -0.3519 C   0  0  0  0  0  0  0  0  0  0  0  0
   -2.1988    4.2844   -0.1603 O   0  0  0  0  0  0  0  0  0  0  0  0
   -1.7408    2.0829   -0.0170 O   0  0  0  0  0  0  0  0  0  0  0  0
   -0.4270    2.1903    0.4209 C   0  0  1  0  0  0  0  0  0  0  0  0
   -0.3264    1.8199    1.9205 C   0  0  0  0  0  0  0  0  0  0  0  0
   -0.9676    0.4947    2.3657 C   0  0  0  0  0  0  0  0  0  0  0  0
   -2.4724    0.4243    2.1705 C   0  0  0  0  0  0  0  0  0  0  0  0
   -3.3312    1.4088    2.9349 C   0  0  0  0  0  0  0  0  0  0  0  0
   -3.1413   -0.4720    1.4004 C   0  0  0  0  0  0  0  0  0  0  0  0
   -2.6947   -1.5885    0.4746 C   0  0  2  0  0  0  0  0  0  0  0  0
   -3.1226   -2.8055    0.9703 O   0  0  0  0  0  0  0  0  0  0  0  0
   -2.2022   -3.7629    0.7979 C   0  0  0  0  0  0  0  0  0  0  0  0
   -2.3797   -4.9239    1.1290 O   0  0  0  0  0  0  0  0  0  0  0  0
   -0.9790   -3.2530    0.1638 C   0  0  2  0  0  0  0  0  0  0  0  0
   -0.0888   -4.0994   -0.7474 C   0  0  0  0  0  0  0  0  0  0  0  0
   -0.3143   -2.3496    0.9845 O   0  0  0  0  0  0  0  0  0  0  0  0
   -1.2158   -1.7819    0.0289 C   0  0  2  0  0  0  0  0  0  0  0  0
   -0.5087   -0.9361   -1.0927 C   0  0  1  0  0  0  0  0  0  0  0  0
   -1.4069   -0.3023   -1.9599 O   0  0  0  0  0  0  0  0  0  0  0  0
    0.7269   -0.0344   -0.6648 C   0  0  1  0  0  0  0  0  0  0  0  0
    2.0222   -0.5407   -1.4013 C   0  0  1  0  0  0  0  0  0  0  0  0
    2.0363   -0.4023   -2.9396 C   0  0  0  0  0  0  0  0  0  0  0  0
    3.3123    0.0541   -0.7833 C   0  0  2  0  0  0  0  0  0  0  0  0
    3.7347   -0.7107    0.2949 O   0  0  0  0  0  0  0  0  0  0  0  0
    4.9187   -1.3887    0.3445 C   0  0  0  0  0  0  0  0  0  0  0  0
    5.2748   -2.1797    1.5597 C   0  0  0  0  0  0  0  0  0  0  0  0
    5.7024   -1.3673   -0.5939 O   0  0  0  0  0  0  0  0  0  0  0  0
    3.1531    1.4779   -0.3249 C   0  0  0  0  0  0  0  0  0  0  0  0
    1.9865    2.1431   -0.2661 C   0  0  0  0  0  0  0  0  0  0  0  0
    0.6080    1.5711   -0.6184 C   0  0  2  0  0  0  0  0  0  0  0  0
    0.2422    2.2403   -1.9779 C   0  0  0  0  0  0  0  0  0  0  0  0
   -4.4015    3.8111   -1.2076 H   0  0  0  0  0  0  0  0  0  0  0  0
   -4.5000    2.2490   -0.3016 H   0  0  0  0  0  0  0  0  0  0  0  0
   -3.7217    2.3063   -1.9357 H   0  0  0  0  0  0  0  0  0  0  0  0
   -0.1631    3.2748    0.4336 H   0  0  0  0  0  0  0  0  0  0  0  0
   -0.8354    2.6248    2.4922 H   0  0  0  0  0  0  0  0  0  0  0  0
    0.7403    1.8455    2.2290 H   0  0  0  0  0  0  0  0  0  0  0  0
   -0.7806    0.3729    3.4544 H   0  0  0  0  0  0  0  0  0  0  0  0
   -0.4465   -0.3152    1.9016 H   0  0  0  0  0  0  0  0  0  0  0  0
   -2.7308    2.0864    3.5734 H   0  0  0  0  0  0  0  0  0  0  0  0
   -4.0369    0.8616    3.5962 H   0  0  0  0  0  0  0  0  0  0  0  0
   -3.9177    2.0274    2.2217 H   0  0  0  0  0  0  0  0  0  0  0  0
   -4.2280   -0.4043    1.4300 H   0  0  0  0  0  0  0  0  0  0  0  0
   -3.2655   -1.4251   -0.4631 H   0  0  0  0  0  0  0  0  0  0  0  0
    0.1974   -5.0327   -0.2201 H   0  0  0  0  0  0  0  0  0  0  0  0
    0.8478   -3.5789   -1.0250 H   0  0  0  0  0  0  0  0  0  0  0  0
   -0.6530   -4.3642   -1.6656 H   0  0  0  0  0  0  0  0  0  0  0  0
   -0.1012   -1.7329   -1.7319 H   0  0  0  0  0  0  0  0  0  0  0  0
   -2.0494    0.2039   -1.4077 H   0  0  0  0  0  0  0  0  0  0  0  0
    0.9807   -0.3350    0.3668 H   0  0  0  0  0  0  0  0  0  0  0  0
    2.0892   -1.6420   -1.2540 H   0  0  0  0  0  0  0  0  0  0  0  0
    2.2453    0.6161   -3.2892 H   0  0  0  0  0  0  0  0  0  0  0  0
    1.1067   -0.7926   -3.4008 H   0  0  0  0  0  0  0  0  0  0  0  0
    2.8768   -1.0075   -3.3430 H   0  0  0  0  0  0  0  0  0  0  0  0
    4.0939    0.0462   -1.5749 H   0  0  0  0  0  0  0  0  0  0  0  0
    4.4717   -2.1049    2.3209 H   0  0  0  0  0  0  0  0  0  0  0  0
    6.2224   -1.7901    1.9896 H   0  0  0  0  0  0  0  0  0  0  0  0
    5.4147   -3.2451    1.2803 H   0  0  0  0  0  0  0  0  0  0  0  0
    4.0552    2.0015   -0.0210 H   0  0  0  0  0  0  0  0  0  0  0  0
    2.0479    3.1862    0.0347 H   0  0  0  0  0  0  0  0  0  0  0  0
    0.2034    3.3464   -1.8649 H   0  0  0  0  0  0  0  0  0  0  0  0
   -0.7458    1.9347   -2.3626 H   0  0  0  0  0  0  0  0  0  0  0  0
    0.9726    2.0854   -2.7724 H   0  0  0  0  0  0  0  0  0  0  0  0
  1  2  1  0  0  0  0
  1 33  1  0  0  0  0
  1 34  1  0  0  0  0
  1 35  1  0  0  0  0
  2  3  2  0  0  0  0
  2  4  1  0  0  0  0
  5  4  1  0  0  0  0
  5  6  1  0  0  0  0
  5 36  1  6  0  0  0
  6  7  1  0  0  0  0
  6 37  1  0  0  0  0
  6 38  1  0  0  0  0
  7  8  1  0  0  0  0
  7 39  1  0  0  0  0
  7 40  1  0  0  0  0
  8  9  1  0  0  0  0
  8 10  2  0  0  0  0
  9 41  1  0  0  0  0
  9 42  1  0  0  0  0
  9 43  1  0  0  0  0
 10 11  1  0  0  0  0
 10 44  1  0  0  0  0
 11 12  1  0  0  0  0
 11 45  1  6  0  0  0
 12 13  1  0  0  0  0
 13 14  2  0  0  0  0
 13 15  1  0  0  0  0
 15 16  1  6  0  0  0
 15 17  1  0  0  0  0
 16 46  1  0  0  0  0
 16 47  1  0  0  0  0
 16 48  1  0  0  0  0
 18 17  1  1  0  0  0
 18 19  1  0  0  0  0
 18 11  1  0  0  0  0
 18 15  1  0  0  0  0
 19 20  1  0  0  0  0
 19 49  1  6  0  0  0
 20 50  1  0  0  0  0
 21 19  1  0  0  0  0
 21 22  1  0  0  0  0
 21 51  1  1  0  0  0
 22 23  1  0  0  0  0
 22 24  1  0  0  0  0
 22 52  1  1  0  0  0
 23 53  1  0  0  0  0
 23 54  1  0  0  0  0
 23 55  1  0  0  0  0
 24 25  1  0  0  0  0
 24 29  1  0  0  0  0
 24 56  1  6  0  0  0
 25 26  1  0  0  0  0
 26 27  1  0  0  0  0
 26 28  2  0  0  0  0
 27 57  1  0  0  0  0
 27 58  1  0  0  0  0
 27 59  1  0  0  0  0
 29 30  2  0  0  0  0
 29 60  1  0  0  0  0
 30 31  1  0  0  0  0
 30 61  1  0  0  0  0
 31 32  1  6  0  0  0
 31  5  1  0  0  0  0
 31 21  1  0  0  0  0
 32 62  1  0  0  0  0
 32 63  1  0  0  0  0
 32 64  1  0  0  0  0
M  END
>  <IDENTIFIER>
CNP0158371.2

>  <Energy>
2290.78

$$$$
