
 OpenBabel09082507573D

147153  0  0  0  0  0  0  0  0999 V2000
   -3.7724   -6.2711   -0.6514 C   0  0  0  0  0  0  0  0  0  0  0  0
   -4.8199   -5.2355   -0.3189 C   0  0  0  0  0  0  0  0  0  0  0  0
   -5.5886   -5.3613    0.9715 C   0  0  0  0  0  0  0  0  0  0  0  0
   -5.1153   -4.2051   -1.1462 C   0  0  0  0  0  0  0  0  0  0  0  0
   -4.4315   -3.9146   -2.4657 C   0  0  0  0  0  0  0  0  0  0  0  0
   -4.0565   -2.4159   -2.6457 C   0  0  0  0  0  0  0  0  0  0  0  0
   -2.9739   -1.7148   -1.7183 C   0  0  2  0  0  0  0  0  0  0  0  0
   -3.3101   -1.9620   -0.2224 C   0  0  0  0  0  0  0  0  0  0  0  0
   -2.9351   -0.3116   -2.0108 O   0  0  0  0  0  0  0  0  0  0  0  0
   -4.0756    0.4672   -1.6888 C   0  0  1  0  0  0  0  0  0  0  0  0
   -3.7512    1.3256   -0.6028 O   0  0  0  0  0  0  0  0  0  0  0  0
   -4.9105    2.0314   -0.1804 C   0  0  1  0  0  0  0  0  0  0  0  0
   -4.6222    2.7154    1.1757 C   0  0  0  0  0  0  0  0  0  0  0  0
   -5.7533    3.3812    1.7176 O   0  0  0  0  0  0  0  0  0  0  0  0
   -6.7928    2.4741    2.0601 C   0  0  2  0  0  0  0  0  0  0  0  0
   -7.8718    2.6637    1.1669 O   0  0  0  0  0  0  0  0  0  0  0  0
   -8.9168    1.6981    1.3273 C   0  0  1  0  0  0  0  0  0  0  0  0
   -8.9151    0.7256    0.1469 C   0  0  0  0  0  0  0  0  0  0  0  0
   -8.9556    0.9769    2.7224 C   0  0  1  0  0  0  0  0  0  0  0  0
   -8.0186   -0.0697    2.8073 O   0  0  0  0  0  0  0  0  0  0  0  0
   -8.6355    2.0323    3.8011 C   0  0  2  0  0  0  0  0  0  0  0  0
   -9.6627    2.9992    3.8343 O   0  0  0  0  0  0  0  0  0  0  0  0
   -7.2402    2.6925    3.5276 C   0  0  1  0  0  0  0  0  0  0  0  0
   -6.2523    2.1977    4.3994 O   0  0  0  0  0  0  0  0  0  0  0  0
   -5.3732    3.0282   -1.2812 C   0  0  1  0  0  0  0  0  0  0  0  0
   -4.4339    4.0534   -1.5217 O   0  0  0  0  0  0  0  0  0  0  0  0
   -5.6634    2.2087   -2.5596 C   0  0  1  0  0  0  0  0  0  0  0  0
   -6.0837    3.0186   -3.6294 O   0  0  0  0  0  0  0  0  0  0  0  0
   -4.4624    1.3135   -2.9374 C   0  0  1  0  0  0  0  0  0  0  0  0
   -3.3942    2.0991   -3.4266 O   0  0  0  0  0  0  0  0  0  0  0  0
   -1.5218   -2.1839   -2.1402 C   0  0  2  0  0  0  0  0  0  0  0  0
   -1.1249   -3.6732   -2.1285 C   0  0  0  0  0  0  0  0  0  0  0  0
    0.4272   -3.7118   -2.1397 C   0  0  0  0  0  0  0  0  0  0  0  0
    0.9065   -2.2547   -2.3975 C   0  0  1  0  0  0  0  0  0  0  0  0
    0.7984   -2.0270   -3.9585 C   0  0  0  0  0  0  0  0  0  0  0  0
   -0.2245   -1.4810   -1.6339 C   0  0  2  0  0  0  0  0  0  0  0  0
   -0.0489   -1.6442   -0.1072 C   0  0  0  0  0  0  0  0  0  0  0  0
    1.2721   -1.0929    0.3446 C   0  0  0  0  0  0  0  0  0  0  0  0
    2.5432   -1.7731   -0.2825 C   0  0  2  0  0  0  0  0  0  0  0  0
    3.8442   -0.9334    0.1818 C   0  0  2  0  0  0  0  0  0  0  0  0
    5.1240   -1.7105   -0.2679 C   0  0  0  0  0  0  0  0  0  0  0  0
    4.0100   -0.7799    1.7514 C   0  0  0  0  0  0  0  0  0  0  0  0
    4.8143    0.5004    2.2284 C   0  0  2  0  0  0  0  0  0  0  0  0
    3.9756    1.4787    2.8032 O   0  0  0  0  0  0  0  0  0  0  0  0
    5.7209    1.1486    1.1461 C   0  0  2  0  0  0  0  0  0  0  0  0
    6.3347    2.3126    1.6947 O   0  0  0  0  0  0  0  0  0  0  0  0
    7.7417    2.3952    1.5071 C   0  0  2  0  0  0  0  0  0  0  0  0
    8.3883    2.2000    2.7499 O   0  0  0  0  0  0  0  0  0  0  0  0
    9.8211    2.1776    2.6455 C   0  0  1  0  0  0  0  0  0  0  0  0
   10.3517    0.7531    2.8522 C   0  0  0  0  0  0  0  0  0  0  0  0
    9.8844    0.2292    4.0666 O   0  0  0  0  0  0  0  0  0  0  0  0
   10.4178    2.8565    1.3609 C   0  0  1  0  0  0  0  0  0  0  0  0
   10.3334    2.0007    0.2472 O   0  0  0  0  0  0  0  0  0  0  0  0
    9.6121    4.1440    1.1082 C   0  0  2  0  0  0  0  0  0  0  0  0
    9.8097    5.0488    2.1741 O   0  0  0  0  0  0  0  0  0  0  0  0
    8.1094    3.7879    0.8966 C   0  0  2  0  0  0  0  0  0  0  0  0
    7.2796    4.8362    1.3379 O   0  0  0  0  0  0  0  0  0  0  0  0
    4.9607    1.4830   -0.2044 C   0  0  0  0  0  0  0  0  0  0  0  0
    5.9631    1.3687   -1.3799 C   0  0  0  0  0  0  0  0  0  0  0  0
    4.4448    2.9561   -0.1808 C   0  0  0  0  0  0  0  0  0  0  0  0
    3.7067    0.5326   -0.4076 C   0  0  1  0  0  0  0  0  0  0  0  0
    2.9584    0.6265   -1.7923 C   0  0  0  0  0  0  0  0  0  0  0  0
    3.0821   -0.6583   -2.5932 C   0  0  0  0  0  0  0  0  0  0  0  0
    2.4307   -1.9332   -1.8947 C   0  0  2  0  0  0  0  0  0  0  0  0
    3.2810   -3.1688   -2.3812 C   0  0  0  0  0  0  0  0  0  0  0  0
   -3.6971   -7.0465    0.1387 H   0  0  0  0  0  0  0  0  0  0  0  0
   -2.7782   -5.8081   -0.7486 H   0  0  0  0  0  0  0  0  0  0  0  0
   -4.0371   -6.7793   -1.6025 H   0  0  0  0  0  0  0  0  0  0  0  0
   -5.2638   -6.2440    1.5612 H   0  0  0  0  0  0  0  0  0  0  0  0
   -6.6730   -5.4646    0.7585 H   0  0  0  0  0  0  0  0  0  0  0  0
   -5.4228   -4.4547    1.5920 H   0  0  0  0  0  0  0  0  0  0  0  0
   -5.9188   -3.5304   -0.8595 H   0  0  0  0  0  0  0  0  0  0  0  0
   -5.1874   -4.1308   -3.2512 H   0  0  0  0  0  0  0  0  0  0  0  0
   -3.5915   -4.5953   -2.6602 H   0  0  0  0  0  0  0  0  0  0  0  0
   -5.0281   -1.8972   -2.5507 H   0  0  0  0  0  0  0  0  0  0  0  0
   -3.7519   -2.2648   -3.7040 H   0  0  0  0  0  0  0  0  0  0  0  0
   -4.3791   -1.7569   -0.0130 H   0  0  0  0  0  0  0  0  0  0  0  0
   -2.7840   -1.2879    0.4612 H   0  0  0  0  0  0  0  0  0  0  0  0
   -3.1005   -3.0092    0.0691 H   0  0  0  0  0  0  0  0  0  0  0  0
   -4.9476   -0.1604   -1.4151 H   0  0  0  0  0  0  0  0  0  0  0  0
   -5.7290    1.3014   -0.0111 H   0  0  0  0  0  0  0  0  0  0  0  0
   -3.8114    3.4611    1.0433 H   0  0  0  0  0  0  0  0  0  0  0  0
   -4.2328    1.9722    1.9090 H   0  0  0  0  0  0  0  0  0  0  0  0
   -6.4534    1.4172    1.9828 H   0  0  0  0  0  0  0  0  0  0  0  0
   -9.8625    2.2789    1.2647 H   0  0  0  0  0  0  0  0  0  0  0  0
   -7.9745    0.1361    0.1272 H   0  0  0  0  0  0  0  0  0  0  0  0
   -8.9879    1.2954   -0.8045 H   0  0  0  0  0  0  0  0  0  0  0  0
   -9.7816    0.0348    0.2136 H   0  0  0  0  0  0  0  0  0  0  0  0
   -9.9702    0.5496    2.9046 H   0  0  0  0  0  0  0  0  0  0  0  0
   -8.4153   -0.8578    2.3522 H   0  0  0  0  0  0  0  0  0  0  0  0
   -8.6273    1.5694    4.8118 H   0  0  0  0  0  0  0  0  0  0  0  0
   -9.5251    3.6466    3.0954 H   0  0  0  0  0  0  0  0  0  0  0  0
   -7.3373    3.7791    3.7426 H   0  0  0  0  0  0  0  0  0  0  0  0
   -6.2203    1.2109    4.2934 H   0  0  0  0  0  0  0  0  0  0  0  0
   -6.3150    3.5183   -0.9538 H   0  0  0  0  0  0  0  0  0  0  0  0
   -3.5184    3.6982   -1.3956 H   0  0  0  0  0  0  0  0  0  0  0  0
   -6.5082    1.5246   -2.3176 H   0  0  0  0  0  0  0  0  0  0  0  0
   -5.3403    3.6344   -3.8573 H   0  0  0  0  0  0  0  0  0  0  0  0
   -4.7621    0.6198   -3.7531 H   0  0  0  0  0  0  0  0  0  0  0  0
   -2.6288    2.0722   -2.7974 H   0  0  0  0  0  0  0  0  0  0  0  0
   -1.5552   -1.8911   -3.2006 H   0  0  0  0  0  0  0  0  0  0  0  0
   -1.5323   -4.1748   -3.0285 H   0  0  0  0  0  0  0  0  0  0  0  0
   -1.4583   -4.1707   -1.2014 H   0  0  0  0  0  0  0  0  0  0  0  0
    0.8424   -4.4852   -2.8218 H   0  0  0  0  0  0  0  0  0  0  0  0
    0.7555   -4.0174   -1.1253 H   0  0  0  0  0  0  0  0  0  0  0  0
   -0.0832   -2.4837   -4.4451 H   0  0  0  0  0  0  0  0  0  0  0  0
    1.6231   -2.4927   -4.5226 H   0  0  0  0  0  0  0  0  0  0  0  0
    0.7637   -0.9453   -4.2010 H   0  0  0  0  0  0  0  0  0  0  0  0
   -0.2102   -0.3966   -1.8812 H   0  0  0  0  0  0  0  0  0  0  0  0
   -0.1536   -2.6867    0.2512 H   0  0  0  0  0  0  0  0  0  0  0  0
   -0.7941   -1.0388    0.4215 H   0  0  0  0  0  0  0  0  0  0  0  0
    1.2722   -1.2112    1.4434 H   0  0  0  0  0  0  0  0  0  0  0  0
    1.1901   -0.0203    0.1426 H   0  0  0  0  0  0  0  0  0  0  0  0
    2.5517   -2.7960    0.1526 H   0  0  0  0  0  0  0  0  0  0  0  0
    5.0259   -2.7793    0.0210 H   0  0  0  0  0  0  0  0  0  0  0  0
    6.0593   -1.4210    0.2153 H   0  0  0  0  0  0  0  0  0  0  0  0
    5.3754   -1.6297   -1.3244 H   0  0  0  0  0  0  0  0  0  0  0  0
    4.4622   -1.7106    2.1606 H   0  0  0  0  0  0  0  0  0  0  0  0
    3.0635   -0.7201    2.3049 H   0  0  0  0  0  0  0  0  0  0  0  0
    5.4599    0.1646    3.0698 H   0  0  0  0  0  0  0  0  0  0  0  0
    3.1331    1.5428    2.2957 H   0  0  0  0  0  0  0  0  0  0  0  0
    6.4662    0.3636    0.9706 H   0  0  0  0  0  0  0  0  0  0  0  0
    8.1106    1.6118    0.8096 H   0  0  0  0  0  0  0  0  0  0  0  0
   10.1890    2.7835    3.5014 H   0  0  0  0  0  0  0  0  0  0  0  0
   11.4651    0.7409    2.8366 H   0  0  0  0  0  0  0  0  0  0  0  0
    9.9985    0.0967    2.0301 H   0  0  0  0  0  0  0  0  0  0  0  0
   10.4045    0.6730    4.7870 H   0  0  0  0  0  0  0  0  0  0  0  0
   11.4955    3.0760    1.5413 H   0  0  0  0  0  0  0  0  0  0  0  0
   10.8070    2.4507   -0.5003 H   0  0  0  0  0  0  0  0  0  0  0  0
    9.9739    4.6717    0.1987 H   0  0  0  0  0  0  0  0  0  0  0  0
    9.2733    4.7598    2.9554 H   0  0  0  0  0  0  0  0  0  0  0  0
    7.9202    3.6733   -0.1900 H   0  0  0  0  0  0  0  0  0  0  0  0
    7.1096    4.7091    2.3068 H   0  0  0  0  0  0  0  0  0  0  0  0
    6.8109    2.0629   -1.2448 H   0  0  0  0  0  0  0  0  0  0  0  0
    5.4979    1.6275   -2.3516 H   0  0  0  0  0  0  0  0  0  0  0  0
    6.3885    0.3540   -1.4668 H   0  0  0  0  0  0  0  0  0  0  0  0
    5.2831    3.6753   -0.0850 H   0  0  0  0  0  0  0  0  0  0  0  0
    3.7552    3.1316    0.6706 H   0  0  0  0  0  0  0  0  0  0  0  0
    3.9059    3.2238   -1.1114 H   0  0  0  0  0  0  0  0  0  0  0  0
    2.9686    1.0122    0.2523 H   0  0  0  0  0  0  0  0  0  0  0  0
    3.3019    1.4960   -2.3816 H   0  0  0  0  0  0  0  0  0  0  0  0
    1.8731    0.8082   -1.6698 H   0  0  0  0  0  0  0  0  0  0  0  0
    4.1663   -0.7802   -2.7395 H   0  0  0  0  0  0  0  0  0  0  0  0
    2.7512   -0.5078   -3.6311 H   0  0  0  0  0  0  0  0  0  0  0  0
    4.3559   -3.1352   -2.2063 H   0  0  0  0  0  0  0  0  0  0  0  0
    3.2211   -3.3278   -3.4712 H   0  0  0  0  0  0  0  0  0  0  0  0
    2.9597   -4.1038   -1.8817 H   0  0  0  0  0  0  0  0  0  0  0  0
  1  2  1  0  0  0  0
  1 66  1  0  0  0  0
  1 67  1  0  0  0  0
  1 68  1  0  0  0  0
  2  3  1  0  0  0  0
  2  4  2  0  0  0  0
  3 69  1  0  0  0  0
  3 70  1  0  0  0  0
  3 71  1  0  0  0  0
  4  5  1  0  0  0  0
  4 72  1  0  0  0  0
  5  6  1  0  0  0  0
  5 73  1  0  0  0  0
  5 74  1  0  0  0  0
  6  7  1  0  0  0  0
  6 75  1  0  0  0  0
  6 76  1  0  0  0  0
  7  8  1  0  0  0  0
  7  9  1  6  0  0  0
  7 31  1  0  0  0  0
  8 77  1  0  0  0  0
  8 78  1  0  0  0  0
  8 79  1  0  0  0  0
 10  9  1  0  0  0  0
 10 11  1  0  0  0  0
 10 80  1  1  0  0  0
 11 12  1  0  0  0  0
 12 13  1  0  0  0  0
 12 25  1  0  0  0  0
 12 81  1  1  0  0  0
 13 14  1  0  0  0  0
 13 82  1  0  0  0  0
 13 83  1  0  0  0  0
 15 14  1  0  0  0  0
 15 16  1  0  0  0  0
 15 84  1  6  0  0  0
 16 17  1  0  0  0  0
 17 18  1  0  0  0  0
 17 19  1  0  0  0  0
 17 85  1  6  0  0  0
 18 86  1  0  0  0  0
 18 87  1  0  0  0  0
 18 88  1  0  0  0  0
 19 20  1  0  0  0  0
 19 21  1  0  0  0  0
 19 89  1  1  0  0  0
 20 90  1  0  0  0  0
 21 22  1  0  0  0  0
 21 23  1  0  0  0  0
 21 91  1  1  0  0  0
 22 92  1  0  0  0  0
 23 24  1  0  0  0  0
 23 15  1  0  0  0  0
 23 93  1  1  0  0  0
 24 94  1  0  0  0  0
 25 26  1  0  0  0  0
 25 27  1  0  0  0  0
 25 95  1  1  0  0  0
 26 96  1  0  0  0  0
 27 28  1  0  0  0  0
 27 29  1  0  0  0  0
 27 97  1  1  0  0  0
 28 98  1  0  0  0  0
 29 30  1  0  0  0  0
 29 10  1  0  0  0  0
 29 99  1  6  0  0  0
 30100  1  0  0  0  0
 31 32  1  0  0  0  0
 31101  1  6  0  0  0
 32 33  1  0  0  0  0
 32102  1  0  0  0  0
 32103  1  0  0  0  0
 33 34  1  0  0  0  0
 33104  1  0  0  0  0
 33105  1  0  0  0  0
 34 35  1  6  0  0  0
 34 36  1  0  0  0  0
 35106  1  0  0  0  0
 35107  1  0  0  0  0
 35108  1  0  0  0  0
 36 37  1  0  0  0  0
 36 31  1  0  0  0  0
 36109  1  6  0  0  0
 37 38  1  0  0  0  0
 37110  1  0  0  0  0
 37111  1  0  0  0  0
 38112  1  0  0  0  0
 38113  1  0  0  0  0
 39 38  1  0  0  0  0
 39 40  1  0  0  0  0
 39114  1  1  0  0  0
 40 41  1  6  0  0  0
 40 42  1  0  0  0  0
 41115  1  0  0  0  0
 41116  1  0  0  0  0
 41117  1  0  0  0  0
 42 43  1  0  0  0  0
 42118  1  0  0  0  0
 42119  1  0  0  0  0
 43 44  1  0  0  0  0
 43 45  1  0  0  0  0
 43120  1  1  0  0  0
 44121  1  0  0  0  0
 45 46  1  0  0  0  0
 45 58  1  0  0  0  0
 45122  1  6  0  0  0
 47 46  1  0  0  0  0
 47 48  1  0  0  0  0
 47123  1  6  0  0  0
 48 49  1  0  0  0  0
 49 50  1  0  0  0  0
 49 52  1  0  0  0  0
 49124  1  1  0  0  0
 50 51  1  0  0  0  0
 50125  1  0  0  0  0
 50126  1  0  0  0  0
 51127  1  0  0  0  0
 52 53  1  0  0  0  0
 52 54  1  0  0  0  0
 52128  1  1  0  0  0
 53129  1  0  0  0  0
 54 55  1  0  0  0  0
 54 56  1  0  0  0  0
 54130  1  6  0  0  0
 55131  1  0  0  0  0
 56 57  1  0  0  0  0
 56 47  1  0  0  0  0
 56132  1  6  0  0  0
 57133  1  0  0  0  0
 58 59  1  0  0  0  0
 58 60  1  0  0  0  0
 58 61  1  0  0  0  0
 59134  1  0  0  0  0
 59135  1  0  0  0  0
 59136  1  0  0  0  0
 60137  1  0  0  0  0
 60138  1  0  0  0  0
 60139  1  0  0  0  0
 61 62  1  0  0  0  0
 61 40  1  0  0  0  0
 61140  1  1  0  0  0
 62 63  1  0  0  0  0
 62141  1  0  0  0  0
 62142  1  0  0  0  0
 63 64  1  0  0  0  0
 63143  1  0  0  0  0
 63144  1  0  0  0  0
 64 65  1  6  0  0  0
 64 39  1  0  0  0  0
 64 34  1  0  0  0  0
 65145  1  0  0  0  0
 65146  1  0  0  0  0
 65147  1  0  0  0  0
M  END
>  <IDENTIFIER>
CNP0400562.1

>  <Energy>
2283.21

$$$$
