
 OpenBabel09052509032D

133132  0  0  0  0  0  0  0  0999 V2000
   -6.4952    3.7500    0.0000 C   0  0  0  0  0  0  0  0  0  0  0  0
   -5.1962    3.0000    0.0000 C   0  0  0  0  0  0  0  0  0  0  0  0
   -3.6239    3.2778   -0.2094 C   0  0  0  0  0  0  0  0  0  0  0  0
   -2.7086    1.9596    0.1121 C   0  0  0  0  0  0  0  0  0  0  0  0
   -1.1060    1.9371   -0.0929 C   0  0  0  0  0  0  0  0  0  0  0  0
   -0.3086    0.6558    0.4308 C   0  0  0  0  0  0  0  0  0  0  0  0
    1.0823    0.4727    0.3954 C   0  0  0  0  0  0  0  0  0  0  0  0
    1.9145   -0.7208    1.0757 C   0  0  0  0  0  0  0  0  0  0  0  0
    3.0950   -1.4651    0.3246 C   0  0  0  0  0  0  0  0  0  0  0  0
    4.0258   -2.3904    0.8759 C   0  0  0  0  0  0  0  0  0  0  0  0
    5.1962   -3.0000    0.0000 C   0  0  0  0  0  0  0  0  0  0  0  0
    6.4952   -3.7500    0.0000 C   0  0  0  0  0  0  0  0  0  0  0  0
    7.7942   -4.5000    0.0000 C   0  0  0  0  0  0  0  0  0  0  0  0
    9.0933   -5.2500    0.0000 C   0  0  0  0  0  0  0  0  0  0  0  0
   10.3923   -6.0000    0.0000 C   0  0  0  0  0  0  0  0  0  0  0  0
   11.6913   -6.7500    0.0000 C   0  0  0  0  0  0  0  0  0  0  0  0
   13.3240   -7.0910   -0.1975 C   0  0  0  0  0  0  0  0  0  0  0  0
   13.9519   -8.6405    0.1260 C   0  0  0  0  0  0  0  0  0  0  0  0
   15.5885   -9.0000    0.0000 C   0  0  0  0  0  0  0  0  0  0  0  0
   16.8875   -9.7500    0.0000 C   0  0  0  0  0  2  0  0  0  0  0  0
   18.1865  -10.5000    0.0000 C   0  0  0  0  0  0  0  0  0  0  0  0
   18.6751  -11.9479   -0.4153 C   0  0  0  0  0  0  0  0  0  0  0  0
   18.4525  -12.3122   -1.5593 O   0  0  0  0  0  0  0  0  0  0  0  0
   19.6140  -12.6764    0.3753 O   0  0  0  0  0  0  0  0  0  0  0  0
   20.7846  -13.5000    0.0000 C   0  0  2  0  0  0  0  0  0  0  0  0
   21.5346  -12.2010    0.0000 C   0  0  0  0  0  0  0  0  0  0  0  0
   22.3657  -11.2518    0.7804 O   0  0  0  0  0  0  0  0  0  0  0  0
   23.6510  -10.7280    0.3262 C   0  0  0  0  0  0  0  0  0  0  0  0
   24.2875  -11.4795   -0.3968 O   0  0  0  0  0  0  0  0  0  0  0  0
   24.5618   -9.4199    0.8074 C   0  0  0  0  0  0  0  0  0  0  0  0
   24.6246   -7.9196    0.0939 C   0  0  0  0  0  0  0  0  0  0  0  0
   25.6775   -6.6190    0.3782 C   0  0  0  0  0  2  0  0  0  0  0  0
   27.1599   -6.0379   -0.1753 C   0  0  0  0  0  0  0  0  0  0  0  0
   27.5346   -4.4067    0.0000 C   0  0  0  0  0  0  0  0  0  0  0  0
   28.2846   -3.1077   -0.0000 C   0  0  0  0  0  2  0  0  0  0  0  0
   29.0346   -1.8087    0.0000 C   0  0  0  0  0  0  0  0  0  0  0  0
   29.5183   -0.2418    0.3726 C   0  0  0  0  0  0  0  0  0  0  0  0
   30.8232    0.5304   -0.4123 C   0  0  0  0  0  0  0  0  0  0  0  0
   31.2846    2.0885    0.0000 C   0  0  0  0  0  0  0  0  0  0  0  0
   32.0346    3.3875    0.0000 C   0  0  0  0  0  0  0  0  0  0  0  0
   32.7846    4.6865    0.0000 C   0  0  0  0  0  0  0  0  0  0  0  0
   33.5346    5.9856    0.0000 C   0  0  0  0  0  0  0  0  0  0  0  0
   34.2846    7.2846   -0.0000 C   0  0  0  0  0  2  0  0  0  0  0  0
   35.0346    8.5836    0.0000 C   0  0  0  0  0  0  0  0  0  0  0  0
   35.7846    9.8827    0.0000 C   0  0  0  0  0  0  0  0  0  0  0  0
   36.5346   11.1817    0.0000 C   0  0  0  0  0  0  0  0  0  0  0  0
   20.0346  -14.7990    0.0000 C   0  0  0  0  0  0  0  0  0  0  0  0
   19.2846  -16.0981    0.0000 O   0  0  0  0  0  0  0  0  0  0  0  0
   17.7846  -16.0981    0.0000 P   0  0  3  0  0  0  0  0  0  0  0  0
   16.2846  -16.0981    0.0000 O   0  0  0  0  0  0  0  0  0  0  0  0
   17.7846  -14.5981    0.0000 O   0  0  0  0  0  0  0  0  0  0  0  0
   17.7846  -17.5981    0.0000 O   0  0  0  0  0  0  0  0  0  0  0  0
   16.9729  -18.3325   -0.9177 C   0  0  0  0  0  0  0  0  0  0  0  0
   15.6543  -18.8005   -0.2312 C   0  0  0  0  0  0  0  0  0  0  0  0
   14.9728  -19.8158   -1.0092 N   0  0  0  0  0  0  0  0  0  0  0  0
   -6.2321    4.4243    0.8447 H   0  0  0  0  0  0  0  0  0  0  0  0
   -7.1543    2.9087    0.3220 H   0  0  0  0  0  0  0  0  0  0  0  0
   -7.4218    4.2850    0.0000 H   0  0  0  0  0  0  0  0  0  0  0  0
   -5.3774    2.1896   -0.7424 H   0  0  0  0  0  0  0  0  0  0  0  0
   -5.1856    2.5009    1.0011 H   0  0  0  0  0  0  0  0  0  0  0  0
   -3.3024    4.0947    0.4698 H   0  0  0  0  0  0  0  0  0  0  0  0
   -3.4589    3.6047   -1.2571 H   0  0  0  0  0  0  0  0  0  0  0  0
   -2.8908    1.7160    1.1802 H   0  0  0  0  0  0  0  0  0  0  0  0
   -3.1095    1.1169   -0.4930 H   0  0  0  0  0  0  0  0  0  0  0  0
   -0.8960    2.0769   -1.1746 H   0  0  0  0  0  0  0  0  0  0  0  0
   -0.6956    2.8153    0.4485 H   0  0  0  0  0  0  0  0  0  0  0  0
   -0.9014   -0.1179    0.9123 H   0  0  0  0  0  0  0  0  0  0  0  0
    1.6719    1.2678   -0.0466 H   0  0  0  0  0  0  0  0  0  0  0  0
    1.2111   -1.4749    1.4859 H   0  0  0  0  0  0  0  0  0  0  0  0
    2.4147   -0.2319    1.9405 H   0  0  0  0  0  0  0  0  0  0  0  0
    3.2222   -1.2023   -0.7216 H   0  0  0  0  0  0  0  0  0  0  0  0
    3.9527   -2.6600    1.9241 H   0  0  0  0  0  0  0  0  0  0  0  0
    5.6076   -2.0379   -0.3854 H   0  0  0  0  0  0  0  0  0  0  0  0
    4.6330   -3.3654   -0.9026 H   0  0  0  0  0  0  0  0  0  0  0  0
    5.7974   -4.6424    0.0969 H   0  0  0  0  0  0  0  0  0  0  0  0
    6.7537   -3.2982    0.9889 H   0  0  0  0  0  0  0  0  0  0  0  0
    7.5744   -4.8362   -1.0514 H   0  0  0  0  0  0  0  0  0  0  0  0
    7.4305   -5.3322    0.6957 H   0  0  0  0  0  0  0  0  0  0  0  0
    9.4866   -4.3504   -0.5782 H   0  0  0  0  0  0  0  0  0  0  0  0
    9.2696   -5.0067    1.0998 H   0  0  0  0  0  0  0  0  0  0  0  0
   11.0676   -5.1411    0.3187 H   0  0  0  0  0  0  0  0  0  0  0  0
   10.3607   -6.0598   -1.1245 H   0  0  0  0  0  0  0  0  0  0  0  0
   11.6592   -7.0457    1.0766 H   0  0  0  0  0  0  0  0  0  0  0  0
   11.3537   -7.6897   -0.5094 H   0  0  0  0  0  0  0  0  0  0  0  0
   13.5812   -6.8601   -1.2526 H   0  0  0  0  0  0  0  0  0  0  0  0
   13.8786   -6.3720    0.4412 H   0  0  0  0  0  0  0  0  0  0  0  0
   13.4214   -9.3372   -0.5571 H   0  0  0  0  0  0  0  0  0  0  0  0
   13.6500   -8.9025    1.1622 H   0  0  0  0  0  0  0  0  0  0  0  0
   15.9330   -8.2054    0.6944 H   0  0  0  0  0  0  0  0  0  0  0  0
   15.7177   -8.5849   -1.0213 H   0  0  0  0  0  0  0  0  0  0  0  0
   18.8179   -9.8416   -0.6326 H   0  0  0  0  0  0  0  0  0  0  0  0
   18.5833  -10.3512    1.0257 H   0  0  0  0  0  0  0  0  0  0  0  0
   21.4471  -13.7882    0.8682 H   0  0  0  0  0  0  0  0  0  0  0  0
   21.1242  -11.5583   -0.8194 H   0  0  0  0  0  0  0  0  0  0  0  0
   22.3095  -12.6311   -0.6730 H   0  0  0  0  0  0  0  0  0  0  0  0
   25.6097   -9.7534    0.5703 H   0  0  0  0  0  0  0  0  0  0  0  0
   24.5584   -9.3314    1.9059 H   0  0  0  0  0  0  0  0  0  0  0  0
   23.6348   -7.5005    0.3867 H   0  0  0  0  0  0  0  0  0  0  0  0
   24.5688   -8.0489   -1.0047 H   0  0  0  0  0  0  0  0  0  0  0  0
   27.2279   -6.2697   -1.2592 H   0  0  0  0  0  0  0  0  0  0  0  0
   27.9428   -6.6342    0.3365 H   0  0  0  0  0  0  0  0  0  0  0  0
   27.2366   -4.3378    1.0670 H   0  0  0  0  0  0  0  0  0  0  0  0
   26.6713   -4.0265   -0.5854 H   0  0  0  0  0  0  0  0  0  0  0  0
   28.9212   -1.6323   -1.0901 H   0  0  0  0  0  0  0  0  0  0  0  0
   30.0336   -2.2726    0.1375 H   0  0  0  0  0  0  0  0  0  0  0  0
   28.6335    0.4054    0.2039 H   0  0  0  0  0  0  0  0  0  0  0  0
   29.7393   -0.2264    1.4613 H   0  0  0  0  0  0  0  0  0  0  0  0
   31.7111   -0.1212   -0.2822 H   0  0  0  0  0  0  0  0  0  0  0  0
   30.5728    0.5347   -1.4929 H   0  0  0  0  0  0  0  0  0  0  0  0
   30.2153    2.4431   -0.0568 H   0  0  0  0  0  0  0  0  0  0  0  0
   31.4927    1.8090    1.0621 H   0  0  0  0  0  0  0  0  0  0  0  0
   31.3711    3.8504    0.7924 H   0  0  0  0  0  0  0  0  0  0  0  0
   31.6030    3.6198   -1.0132 H   0  0  0  0  0  0  0  0  0  0  0  0
   33.3255    4.3768    0.9408 H   0  0  0  0  0  0  0  0  0  0  0  0
   33.4755    4.3131   -0.8097 H   0  0  0  0  0  0  0  0  0  0  0  0
   32.9332    6.3869    0.8531 H   0  0  0  0  0  0  0  0  0  0  0  0
   33.0294    6.3247   -0.9378 H   0  0  0  0  0  0  0  0  0  0  0  0
   35.5862    8.2043    0.8967 H   0  0  0  0  0  0  0  0  0  0  0  0
   35.6145    8.1873   -0.8727 H   0  0  0  0  0  0  0  0  0  0  0  0
   35.2370   10.2067    0.9262 H   0  0  0  0  0  0  0  0  0  0  0  0
   35.1836   10.1657   -0.9154 H   0  0  0  0  0  0  0  0  0  0  0  0
   37.1014   11.0069   -0.9451 H   0  0  0  0  0  0  0  0  0  0  0  0
   35.7007   11.9320   -0.1102 H   0  0  0  0  0  0  0  0  0  0  0  0
   37.0696   12.1083    0.0000 H   0  0  0  0  0  0  0  0  0  0  0  0
   19.7627  -14.7058    1.1034 H   0  0  0  0  0  0  0  0  0  0  0  0
   19.7506  -14.5311   -1.0519 H   0  0  0  0  0  0  0  0  0  0  0  0
   17.5399  -14.3191    0.9246 H   0  0  0  0  0  0  0  0  0  0  0  0
   16.7843  -17.7989   -1.8790 H   0  0  0  0  0  0  0  0  0  0  0  0
   17.5623  -19.2413   -1.1803 H   0  0  0  0  0  0  0  0  0  0  0  0
   14.9593  -17.9528   -0.0787 H   0  0  0  0  0  0  0  0  0  0  0  0
   15.8997  -19.2152    0.7805 H   0  0  0  0  0  0  0  0  0  0  0  0
   14.0743  -20.0103   -0.5571 H   0  0  0  0  0  0  0  0  0  0  0  0
   15.5344  -20.7016   -0.9634 H   0  0  0  0  0  0  0  0  0  0  0  0
  1  2  1  0  0  0  0
  1 56  1  0  0  0  0
  1 57  1  0  0  0  0
  1 58  1  0  0  0  0
  2  3  1  0  0  0  0
  2 59  1  0  0  0  0
  2 60  1  0  0  0  0
  3  4  1  0  0  0  0
  3 61  1  0  0  0  0
  3 62  1  0  0  0  0
  4  5  1  0  0  0  0
  4 63  1  0  0  0  0
  4 64  1  0  0  0  0
  5  6  1  0  0  0  0
  5 65  1  0  0  0  0
  5 66  1  0  0  0  0
  6  7  2  3  0  0  0
  6 67  1  0  0  0  0
  7  8  1  0  0  0  0
  7 68  1  0  0  0  0
  8  9  1  0  0  0  0
  8 69  1  0  0  0  0
  8 70  1  0  0  0  0
  9 10  2  3  0  0  0
  9 71  1  0  0  0  0
 10 11  1  0  0  0  0
 10 72  1  0  0  0  0
 11 12  1  0  0  0  0
 11 73  1  0  0  0  0
 11 74  1  0  0  0  0
 12 13  1  0  0  0  0
 12 75  1  0  0  0  0
 12 76  1  0  0  0  0
 13 14  1  0  0  0  0
 13 77  1  0  0  0  0
 13 78  1  0  0  0  0
 14 15  1  0  0  0  0
 14 79  1  0  0  0  0
 14 80  1  0  0  0  0
 15 16  1  0  0  0  0
 15 81  1  0  0  0  0
 15 82  1  0  0  0  0
 16 17  1  0  0  0  0
 16 83  1  0  0  0  0
 16 84  1  0  0  0  0
 17 18  1  0  0  0  0
 17 85  1  0  0  0  0
 17 86  1  0  0  0  0
 18 19  1  0  0  0  0
 18 87  1  0  0  0  0
 18 88  1  0  0  0  0
 19 20  1  0  0  0  0
 19 89  1  0  0  0  0
 19 90  1  0  0  0  0
 20 21  1  0  0  0  0
 21 22  1  0  0  0  0
 21 91  1  0  0  0  0
 21 92  1  0  0  0  0
 22 23  2  0  0  0  0
 22 24  1  0  0  0  0
 24 25  1  0  0  0  0
 25 26  1  0  0  0  0
 25 47  1  0  0  0  0
 25 93  1  1  0  0  0
 26 27  1  0  0  0  0
 26 94  1  0  0  0  0
 26 95  1  0  0  0  0
 27 28  1  0  0  0  0
 28 29  2  0  0  0  0
 28 30  1  0  0  0  0
 30 31  1  0  0  0  0
 30 96  1  0  0  0  0
 30 97  1  0  0  0  0
 31 32  1  0  0  0  0
 31 98  1  0  0  0  0
 31 99  1  0  0  0  0
 32 33  1  0  0  0  0
 33 34  1  0  0  0  0
 33100  1  0  0  0  0
 33101  1  0  0  0  0
 34 35  1  0  0  0  0
 34102  1  0  0  0  0
 34103  1  0  0  0  0
 35 36  1  0  0  0  0
 36 37  1  0  0  0  0
 36104  1  0  0  0  0
 36105  1  0  0  0  0
 37 38  1  0  0  0  0
 37106  1  0  0  0  0
 37107  1  0  0  0  0
 38 39  1  0  0  0  0
 38108  1  0  0  0  0
 38109  1  0  0  0  0
 39 40  1  0  0  0  0
 39110  1  0  0  0  0
 39111  1  0  0  0  0
 40 41  1  0  0  0  0
 40112  1  0  0  0  0
 40113  1  0  0  0  0
 41 42  1  0  0  0  0
 41114  1  0  0  0  0
 41115  1  0  0  0  0
 42 43  1  0  0  0  0
 42116  1  0  0  0  0
 42117  1  0  0  0  0
 43 44  1  0  0  0  0
 44 45  1  0  0  0  0
 44118  1  0  0  0  0
 44119  1  0  0  0  0
 45 46  1  0  0  0  0
 45120  1  0  0  0  0
 45121  1  0  0  0  0
 46122  1  0  0  0  0
 46123  1  0  0  0  0
 46124  1  0  0  0  0
 47 48  1  0  0  0  0
 47125  1  0  0  0  0
 47126  1  0  0  0  0
 48 49  1  0  0  0  0
 49 50  2  0  0  0  0
 49 51  1  0  0  0  0
 49 52  1  0  0  0  0
 51127  1  0  0  0  0
 52 53  1  0  0  0  0
 53 54  1  0  0  0  0
 53128  1  0  0  0  0
 53129  1  0  0  0  0
 54 55  1  0  0  0  0
 54130  1  0  0  0  0
 54131  1  0  0  0  0
 55132  1  0  0  0  0
 55133  1  0  0  0  0
M  END
>  <IDENTIFIER>
CNP0371260.1

>  <Energy>
11332.8

$$$$
