
 OpenBabel09072517243D

 42 44  0  0  0  0  0  0  0  0999 V2000
   -3.4707   -3.2255   -0.0202 C   0  0  0  0  0  0  0  0  0  0  0  0
   -2.4731   -2.8797    0.8759 O   0  0  0  0  0  0  0  0  0  0  0  0
   -1.8440   -1.6723    0.9197 C   0  0  0  0  0  0  0  0  0  0  0  0
   -2.2073   -0.6353    0.0556 C   0  0  0  0  0  0  0  0  0  0  0  0
   -1.5713    0.6060    0.1019 C   0  0  0  0  0  0  0  0  0  0  0  0
   -2.0559    1.7113   -0.7579 C   0  0  0  0  0  0  0  0  0  0  0  0
   -3.3784    2.0155   -0.8519 C   0  0  0  0  0  0  0  0  0  0  0  0
   -4.3474    1.3181   -0.0200 C   0  0  0  0  0  0  0  0  0  0  0  0
   -5.1125    0.7583    0.6455 N   0  0  0  0  0  0  0  0  0  0  0  0
   -3.8682    3.1043   -1.7455 C   0  0  0  0  0  0  0  0  0  0  0  0
   -5.1871    3.4252   -1.7971 N   0  0  0  0  0  0  0  0  0  0  0  0
   -3.0823    3.7105   -2.4585 O   0  0  0  0  0  0  0  0  0  0  0  0
   -0.5065    0.7996    0.9783 C   0  0  0  0  0  0  0  0  0  0  0  0
   -0.1209   -0.2153    1.8827 C   0  0  0  0  0  0  0  0  0  0  0  0
    0.9960    0.0153    2.8886 C   0  0  0  0  0  0  0  0  0  0  0  0
    2.0332    1.4965    2.5956 S   0  0  0  0  0  0  0  0  0  0  0  0
    2.9180    0.8356    1.1694 C   0  0  0  0  0  0  0  0  0  0  0  0
    4.0553    0.1032    1.2705 N   0  0  0  0  0  0  0  0  0  0  0  0
    4.5786   -0.1580    0.0425 C   0  0  0  0  0  0  0  0  0  0  0  0
    5.7595   -0.8708   -0.1811 C   0  0  0  0  0  0  0  0  0  0  0  0
    6.2106   -1.0364   -1.5033 C   0  0  0  0  0  0  0  0  0  0  0  0
    5.4783   -0.4988   -2.5805 C   0  0  0  0  0  0  0  0  0  0  0  0
    4.2879    0.2079   -2.3454 C   0  0  0  0  0  0  0  0  0  0  0  0
    3.8664    0.3644   -1.0258 C   0  0  0  0  0  0  0  0  0  0  0  0
    2.5235    1.1839   -0.4429 S   0  0  0  0  0  0  0  0  0  0  0  0
   -0.8235   -1.4548    1.8619 C   0  0  0  0  0  0  0  0  0  0  0  0
   -0.5406   -2.4536    2.7293 O   0  0  0  0  0  0  0  0  0  0  0  0
   -3.8008   -4.2657    0.1707 H   0  0  0  0  0  0  0  0  0  0  0  0
   -3.0919   -3.1626   -1.0647 H   0  0  0  0  0  0  0  0  0  0  0  0
   -4.3464   -2.5508    0.0985 H   0  0  0  0  0  0  0  0  0  0  0  0
   -2.9963   -0.7844   -0.6674 H   0  0  0  0  0  0  0  0  0  0  0  0
   -1.3220    2.3184   -1.2766 H   0  0  0  0  0  0  0  0  0  0  0  0
   -5.8866    2.9390   -1.2174 H   0  0  0  0  0  0  0  0  0  0  0  0
   -5.5207    4.1693   -2.4281 H   0  0  0  0  0  0  0  0  0  0  0  0
   -0.0321    1.7696    0.9877 H   0  0  0  0  0  0  0  0  0  0  0  0
    1.6887   -0.8480    2.9324 H   0  0  0  0  0  0  0  0  0  0  0  0
    0.5418    0.1070    3.8999 H   0  0  0  0  0  0  0  0  0  0  0  0
    6.3262   -1.2785    0.6459 H   0  0  0  0  0  0  0  0  0  0  0  0
    7.1300   -1.5749   -1.6953 H   0  0  0  0  0  0  0  0  0  0  0  0
    5.8385   -0.6260   -3.5938 H   0  0  0  0  0  0  0  0  0  0  0  0
    3.7228    0.6294   -3.1668 H   0  0  0  0  0  0  0  0  0  0  0  0
    0.0909   -2.3774    3.4561 H   0  0  0  0  0  0  0  0  0  0  0  0
  1  2  1  0  0  0  0
  1 28  1  0  0  0  0
  1 29  1  0  0  0  0
  1 30  1  0  0  0  0
  2  3  1  0  0  0  0
  3  4  2  0  0  0  0
  4  5  1  0  0  0  0
  4 31  1  0  0  0  0
  5  6  1  0  0  0  0
  5 13  2  0  0  0  0
  6  7  2  3  0  0  0
  6 32  1  0  0  0  0
  7  8  1  0  0  0  0
  7 10  1  0  0  0  0
  8  9  3  0  0  0  0
 10 11  1  0  0  0  0
 10 12  2  0  0  0  0
 11 33  1  0  0  0  0
 11 34  1  0  0  0  0
 13 14  1  0  0  0  0
 13 35  1  0  0  0  0
 14 15  1  0  0  0  0
 14 26  2  0  0  0  0
 15 16  1  0  0  0  0
 15 36  1  0  0  0  0
 15 37  1  0  0  0  0
 16 17  1  0  0  0  0
 17 18  2  0  0  0  0
 18 19  1  0  0  0  0
 19 20  2  0  0  0  0
 20 21  1  0  0  0  0
 20 38  1  0  0  0  0
 21 22  2  0  0  0  0
 21 39  1  0  0  0  0
 22 23  1  0  0  0  0
 22 40  1  0  0  0  0
 23 24  2  0  0  0  0
 23 41  1  0  0  0  0
 24 25  1  0  0  0  0
 24 19  1  0  0  0  0
 25 17  1  0  0  0  0
 26 27  1  0  0  0  0
 26  3  1  0  0  0  0
 27 42  1  0  0  0  0
M  END
>  <IDENTIFIER>
CNP0350072.0

>  <Energy>
483.452

$$$$
