
 OpenBabel09052513183D

 61 64  0  0  0  0  0  0  0  0999 V2000
    5.0777   -2.0773   -0.0914 C   0  0  0  0  0  0  0  0  0  0  0  0
    4.0093   -1.5315    0.8021 C   0  0  0  0  0  0  0  0  0  0  0  0
    4.2071   -1.4235    2.0032 O   0  0  0  0  0  0  0  0  0  0  0  0
    2.8223   -1.1798    0.2493 O   0  0  0  0  0  0  0  0  0  0  0  0
    1.7160   -0.6167    0.8745 C   0  0  2  0  0  0  0  0  0  0  0  0
    0.6642   -1.7393    1.0148 C   0  0  1  0  0  0  0  0  0  0  0  0
   -0.3470   -1.3470    1.9202 O   0  0  0  0  0  0  0  0  0  0  0  0
    0.1739   -2.2506   -0.3507 C   0  0  0  0  0  0  0  0  0  0  0  0
   -1.0249   -3.1495   -0.2062 C   0  0  0  0  0  0  0  0  0  0  0  0
   -0.9243   -4.4250    0.5916 C   0  0  0  0  0  0  0  0  0  0  0  0
   -2.2104   -2.8215   -0.7542 C   0  0  0  0  0  0  0  0  0  0  0  0
   -2.4962   -1.5887   -1.5979 C   0  0  1  0  0  0  0  0  0  0  0  0
   -3.8042   -1.7040   -2.0258 O   0  0  0  0  0  0  0  0  0  0  0  0
   -4.5744   -0.6936   -1.6174 C   0  0  0  0  0  0  0  0  0  0  0  0
   -5.7576   -0.6082   -1.9023 O   0  0  0  0  0  0  0  0  0  0  0  0
   -3.8256    0.3158   -0.8594 C   0  0  1  0  0  0  0  0  0  0  0  0
   -4.3572    1.7440   -0.6799 C   0  0  0  0  0  0  0  0  0  0  0  0
   -3.2260   -0.1696    0.3188 O   0  0  0  0  0  0  0  0  0  0  0  0
   -2.4171   -0.1955   -0.8467 C   0  0  1  0  0  0  0  0  0  0  0  0
   -1.2837    0.9211   -0.9627 C   0  0  2  0  0  0  0  0  0  0  0  0
   -0.7701    1.0786   -2.2588 O   0  0  0  0  0  0  0  0  0  0  0  0
   -0.2418    1.2153    0.2297 C   0  0  2  0  0  0  0  0  0  0  0  0
   -0.4577    2.6809    0.7747 C   0  0  2  0  0  0  0  0  0  0  0  0
   -0.2213    3.8431   -0.2171 C   0  0  0  0  0  0  0  0  0  0  0  0
    0.3127    2.8421    2.0655 C   0  0  0  0  0  0  0  0  0  0  0  0
   -0.2659    3.2178    3.0745 O   0  0  0  0  0  0  0  0  0  0  0  0
    1.7404    2.3989    2.1684 C   0  0  0  0  0  0  0  0  0  0  0  0
    2.2550    1.8916    0.8057 C   0  0  1  0  0  0  0  0  0  0  0  0
    3.6116    1.5078    0.8696 O   0  0  0  0  0  0  0  0  0  0  0  0
    1.3380    0.7724    0.1416 C   0  0  1  0  0  0  0  0  0  0  0  0
    1.8211    0.7391   -1.3394 C   0  0  0  0  0  0  0  0  0  0  0  0
    5.9930   -2.3285    0.4898 H   0  0  0  0  0  0  0  0  0  0  0  0
    5.3362   -1.3220   -0.8628 H   0  0  0  0  0  0  0  0  0  0  0  0
    4.7067   -2.9945   -0.5922 H   0  0  0  0  0  0  0  0  0  0  0  0
    1.9476   -0.3990    1.9385 H   0  0  0  0  0  0  0  0  0  0  0  0
    1.1599   -2.6011    1.5133 H   0  0  0  0  0  0  0  0  0  0  0  0
   -1.2391   -1.3839    1.4965 H   0  0  0  0  0  0  0  0  0  0  0  0
    0.9949   -2.7841   -0.8750 H   0  0  0  0  0  0  0  0  0  0  0  0
   -0.0812   -1.3917   -0.9696 H   0  0  0  0  0  0  0  0  0  0  0  0
    0.1002   -4.5819    0.9858 H   0  0  0  0  0  0  0  0  0  0  0  0
   -1.1862   -5.2939   -0.0475 H   0  0  0  0  0  0  0  0  0  0  0  0
   -1.6273   -4.3817    1.4515 H   0  0  0  0  0  0  0  0  0  0  0  0
   -3.0378   -3.5136   -0.6062 H   0  0  0  0  0  0  0  0  0  0  0  0
   -1.8538   -1.5981   -2.4978 H   0  0  0  0  0  0  0  0  0  0  0  0
   -5.4046    1.7067   -0.3166 H   0  0  0  0  0  0  0  0  0  0  0  0
   -4.3348    2.2677   -1.6584 H   0  0  0  0  0  0  0  0  0  0  0  0
   -3.7713    2.3235    0.0635 H   0  0  0  0  0  0  0  0  0  0  0  0
   -1.9102    1.8101   -0.9151 H   0  0  0  0  0  0  0  0  0  0  0  0
   -0.6336    0.1821   -2.6512 H   0  0  0  0  0  0  0  0  0  0  0  0
   -0.6649    0.7149    1.1046 H   0  0  0  0  0  0  0  0  0  0  0  0
   -1.5344    2.7950    1.0462 H   0  0  0  0  0  0  0  0  0  0  0  0
    0.7915    3.9309   -0.6300 H   0  0  0  0  0  0  0  0  0  0  0  0
   -0.4570    4.8018    0.2940 H   0  0  0  0  0  0  0  0  0  0  0  0
   -0.9064    3.7676   -1.0847 H   0  0  0  0  0  0  0  0  0  0  0  0
    1.7947    1.5957    2.9323 H   0  0  0  0  0  0  0  0  0  0  0  0
    2.3676    3.2493    2.5126 H   0  0  0  0  0  0  0  0  0  0  0  0
    2.2617    2.7851    0.1701 H   0  0  0  0  0  0  0  0  0  0  0  0
    3.8012    1.1444    1.7726 H   0  0  0  0  0  0  0  0  0  0  0  0
    2.9219    0.6036   -1.4088 H   0  0  0  0  0  0  0  0  0  0  0  0
    1.5986    1.7006   -1.8498 H   0  0  0  0  0  0  0  0  0  0  0  0
    1.3947   -0.0991   -1.9123 H   0  0  0  0  0  0  0  0  0  0  0  0
  1  2  1  0  0  0  0
  1 32  1  0  0  0  0
  1 33  1  0  0  0  0
  1 34  1  0  0  0  0
  2  3  2  0  0  0  0
  2  4  1  0  0  0  0
  5  4  1  0  0  0  0
  5  6  1  0  0  0  0
  5 35  1  1  0  0  0
  6  7  1  0  0  0  0
  6  8  1  0  0  0  0
  6 36  1  1  0  0  0
  7 37  1  0  0  0  0
  8  9  1  0  0  0  0
  8 38  1  0  0  0  0
  8 39  1  0  0  0  0
  9 10  1  0  0  0  0
  9 11  2  0  0  0  0
 10 40  1  0  0  0  0
 10 41  1  0  0  0  0
 10 42  1  0  0  0  0
 11 12  1  0  0  0  0
 11 43  1  0  0  0  0
 12 13  1  0  0  0  0
 12 44  1  6  0  0  0
 13 14  1  0  0  0  0
 14 15  2  0  0  0  0
 14 16  1  0  0  0  0
 16 17  1  6  0  0  0
 16 18  1  0  0  0  0
 17 45  1  0  0  0  0
 17 46  1  0  0  0  0
 17 47  1  0  0  0  0
 19 18  1  1  0  0  0
 19 20  1  0  0  0  0
 19 12  1  0  0  0  0
 19 16  1  0  0  0  0
 20 21  1  0  0  0  0
 20 22  1  0  0  0  0
 20 48  1  1  0  0  0
 21 49  1  0  0  0  0
 22 23  1  0  0  0  0
 22 50  1  1  0  0  0
 23 24  1  0  0  0  0
 23 25  1  0  0  0  0
 23 51  1  1  0  0  0
 24 52  1  0  0  0  0
 24 53  1  0  0  0  0
 24 54  1  0  0  0  0
 25 26  2  0  0  0  0
 25 27  1  0  0  0  0
 27 28  1  0  0  0  0
 27 55  1  0  0  0  0
 27 56  1  0  0  0  0
 28 29  1  0  0  0  0
 28 30  1  0  0  0  0
 28 57  1  6  0  0  0
 29 58  1  0  0  0  0
 30 31  1  6  0  0  0
 30  5  1  0  0  0  0
 30 22  1  0  0  0  0
 31 59  1  0  0  0  0
 31 60  1  0  0  0  0
 31 61  1  0  0  0  0
M  END
>  <IDENTIFIER>
CNP0189525.1

>  <Energy>
2419.16

$$$$
