
 OpenBabel09112511093D

 74 79  0  0  0  0  0  0  0  0999 V2000
   -6.0991    1.3364   -2.1263 C   0  0  0  0  0  0  0  0  0  0  0  0
   -5.6660    1.6559   -0.8991 C   0  0  0  0  0  0  0  0  0  0  0  0
   -6.5789    1.7331    0.2896 C   0  0  0  0  0  0  0  0  0  0  0  0
   -5.6928    2.4174    1.3347 C   0  0  0  0  0  0  0  0  0  0  0  0
   -4.2966    1.8562    1.0482 C   0  0  1  0  0  0  0  0  0  0  0  0
   -4.2364    0.4111    1.5917 C   0  0  0  0  0  0  0  0  0  0  0  0
   -4.3460    0.2018    2.9152 C   0  0  0  0  0  0  0  0  0  0  0  0
   -4.0887   -0.7823    0.6711 C   0  0  0  0  0  0  0  0  0  0  0  0
   -2.6967   -0.8878    0.0465 C   0  0  0  0  0  0  0  0  0  0  0  0
   -2.1309    0.4576   -0.4405 C   0  0  2  0  0  0  0  0  0  0  0  0
   -3.0794    1.3209   -1.2898 C   0  0  2  0  0  0  0  0  0  0  0  0
   -2.2124    2.2618   -1.8157 O   0  0  0  0  0  0  0  0  0  0  0  0
   -0.9414    1.8059   -1.8045 C   0  0  0  0  0  0  0  0  0  0  0  0
    0.0090    2.5645   -1.8928 O   0  0  0  0  0  0  0  0  0  0  0  0
   -0.8725    0.3737   -1.3309 C   0  0  2  0  0  0  0  0  0  0  0  0
   -1.1680   -0.5149   -2.3849 O   0  0  0  0  0  0  0  0  0  0  0  0
    0.3862   -0.0768   -0.5120 C   0  0  0  0  0  0  0  0  0  0  0  0
    1.7807   -0.4339   -1.1738 C   0  0  2  0  0  0  0  0  0  0  0  0
    2.3360    0.7652   -1.9758 C   0  0  0  0  0  0  0  0  0  0  0  0
    1.6415   -1.6165   -2.1993 C   0  0  0  0  0  0  0  0  0  0  0  0
    1.5390   -3.0002   -1.5657 C   0  0  0  0  0  0  0  0  0  0  0  0
    2.6773   -3.2573   -0.6060 C   0  0  0  0  0  0  0  0  0  0  0  0
    2.7042   -4.3357   -0.0307 O   0  0  0  0  0  0  0  0  0  0  0  0
    3.6533   -2.1394   -0.2142 C   0  0  2  0  0  0  0  0  0  0  0  0
    4.7633   -1.9664   -1.2955 C   0  0  0  0  0  0  0  0  0  0  0  0
    4.3897   -2.5345    1.1233 C   0  0  0  0  0  0  0  0  0  0  0  0
    5.2157   -1.3801    1.7421 C   0  0  0  0  0  0  0  0  0  0  0  0
    4.2543   -0.2201    1.9784 C   0  0  1  0  0  0  0  0  0  0  0  0
    4.7086    1.0784    2.5371 C   0  0  0  0  0  0  0  0  0  0  0  0
    5.6752    1.3001    3.4326 C   0  0  0  0  0  0  0  0  0  0  0  0
    3.7949    2.0507    1.9408 C   0  0  0  0  0  0  0  0  0  0  0  0
    3.7124    3.2293    2.2423 O   0  0  0  0  0  0  0  0  0  0  0  0
    3.0187    1.4599    0.9999 O   0  0  0  0  0  0  0  0  0  0  0  0
    3.6244    0.2621    0.6623 C   0  0  2  0  0  0  0  0  0  0  0  0
    2.7543   -0.8585    0.0372 C   0  0  1  0  0  0  0  0  0  0  0  0
   -4.2475    2.0149   -0.5081 C   0  0  1  0  0  0  0  0  0  0  0  0
   -7.1469    1.1052   -2.2915 H   0  0  0  0  0  0  0  0  0  0  0  0
   -5.4313    1.3087   -2.9788 H   0  0  0  0  0  0  0  0  0  0  0  0
   -6.8666    0.6987    0.5783 H   0  0  0  0  0  0  0  0  0  0  0  0
   -7.4896    2.3460    0.1180 H   0  0  0  0  0  0  0  0  0  0  0  0
   -6.0670    2.3201    2.3756 H   0  0  0  0  0  0  0  0  0  0  0  0
   -5.6648    3.5067    1.0978 H   0  0  0  0  0  0  0  0  0  0  0  0
   -3.4882    2.4410    1.5388 H   0  0  0  0  0  0  0  0  0  0  0  0
   -4.4579    1.0332    3.6043 H   0  0  0  0  0  0  0  0  0  0  0  0
   -4.3173   -0.8001    3.3323 H   0  0  0  0  0  0  0  0  0  0  0  0
   -4.8606   -0.7094   -0.1193 H   0  0  0  0  0  0  0  0  0  0  0  0
   -4.2808   -1.7444    1.1963 H   0  0  0  0  0  0  0  0  0  0  0  0
   -2.7650   -1.6292   -0.7780 H   0  0  0  0  0  0  0  0  0  0  0  0
   -1.9941   -1.2854    0.8093 H   0  0  0  0  0  0  0  0  0  0  0  0
   -1.8600    1.0682    0.4547 H   0  0  0  0  0  0  0  0  0  0  0  0
   -3.4667    0.7284   -2.1452 H   0  0  0  0  0  0  0  0  0  0  0  0
   -0.8641   -0.1150   -3.2425 H   0  0  0  0  0  0  0  0  0  0  0  0
    0.0745   -1.0037    0.0087 H   0  0  0  0  0  0  0  0  0  0  0  0
    0.5531    0.6938    0.2728 H   0  0  0  0  0  0  0  0  0  0  0  0
    1.6836    0.9884   -2.8454 H   0  0  0  0  0  0  0  0  0  0  0  0
    3.3487    0.5385   -2.3716 H   0  0  0  0  0  0  0  0  0  0  0  0
    2.4082    1.6804   -1.3574 H   0  0  0  0  0  0  0  0  0  0  0  0
    2.5127   -1.6541   -2.8629 H   0  0  0  0  0  0  0  0  0  0  0  0
    0.8404   -1.4676   -2.9325 H   0  0  0  0  0  0  0  0  0  0  0  0
    1.5554   -3.7620   -2.3750 H   0  0  0  0  0  0  0  0  0  0  0  0
    0.5777   -3.0936   -1.0173 H   0  0  0  0  0  0  0  0  0  0  0  0
    5.3200   -2.9222   -1.4054 H   0  0  0  0  0  0  0  0  0  0  0  0
    5.5002   -1.1903   -1.0231 H   0  0  0  0  0  0  0  0  0  0  0  0
    4.4335   -1.6907   -2.3005 H   0  0  0  0  0  0  0  0  0  0  0  0
    5.0423   -3.4212    0.9665 H   0  0  0  0  0  0  0  0  0  0  0  0
    3.6243   -2.8261    1.8792 H   0  0  0  0  0  0  0  0  0  0  0  0
    6.0545   -1.0717    1.0867 H   0  0  0  0  0  0  0  0  0  0  0  0
    5.6473   -1.7154    2.7094 H   0  0  0  0  0  0  0  0  0  0  0  0
    3.4458   -0.5622    2.6672 H   0  0  0  0  0  0  0  0  0  0  0  0
    6.2648    0.4744    3.8204 H   0  0  0  0  0  0  0  0  0  0  0  0
    5.8860    2.3049    3.7798 H   0  0  0  0  0  0  0  0  0  0  0  0
    4.4312    0.5254   -0.0600 H   0  0  0  0  0  0  0  0  0  0  0  0
    2.0813   -1.2016    0.8571 H   0  0  0  0  0  0  0  0  0  0  0  0
   -4.1896    3.0988   -0.7618 H   0  0  0  0  0  0  0  0  0  0  0  0
  1  2  2  0  0  0  0
  1 37  1  0  0  0  0
  1 38  1  0  0  0  0
  2  3  1  0  0  0  0
  3  4  1  0  0  0  0
  3 39  1  0  0  0  0
  3 40  1  0  0  0  0
  4 41  1  0  0  0  0
  4 42  1  0  0  0  0
  5  4  1  0  0  0  0
  5  6  1  0  0  0  0
  5 43  1  1  0  0  0
  6  7  2  0  0  0  0
  6  8  1  0  0  0  0
  7 44  1  0  0  0  0
  7 45  1  0  0  0  0
  8  9  1  0  0  0  0
  8 46  1  0  0  0  0
  8 47  1  0  0  0  0
  9 48  1  0  0  0  0
  9 49  1  0  0  0  0
 10  9  1  0  0  0  0
 10 11  1  0  0  0  0
 10 50  1  1  0  0  0
 11 12  1  0  0  0  0
 11 36  1  0  0  0  0
 11 51  1  6  0  0  0
 12 13  1  0  0  0  0
 13 14  2  0  0  0  0
 13 15  1  0  0  0  0
 15 16  1  6  0  0  0
 15 17  1  0  0  0  0
 15 10  1  0  0  0  0
 16 52  1  0  0  0  0
 17 53  1  0  0  0  0
 17 54  1  0  0  0  0
 18 17  1  1  0  0  0
 18 19  1  0  0  0  0
 18 20  1  0  0  0  0
 19 55  1  0  0  0  0
 19 56  1  0  0  0  0
 19 57  1  0  0  0  0
 20 21  1  0  0  0  0
 20 58  1  0  0  0  0
 20 59  1  0  0  0  0
 21 22  1  0  0  0  0
 21 60  1  0  0  0  0
 21 61  1  0  0  0  0
 22 23  2  0  0  0  0
 22 24  1  0  0  0  0
 24 25  1  6  0  0  0
 24 26  1  0  0  0  0
 25 62  1  0  0  0  0
 25 63  1  0  0  0  0
 25 64  1  0  0  0  0
 26 27  1  0  0  0  0
 26 65  1  0  0  0  0
 26 66  1  0  0  0  0
 27 67  1  0  0  0  0
 27 68  1  0  0  0  0
 28 27  1  0  0  0  0
 28 29  1  0  0  0  0
 28 69  1  1  0  0  0
 29 30  2  0  0  0  0
 29 31  1  0  0  0  0
 30 70  1  0  0  0  0
 30 71  1  0  0  0  0
 31 32  2  0  0  0  0
 31 33  1  0  0  0  0
 34 33  1  0  0  0  0
 34 35  1  0  0  0  0
 34 28  1  0  0  0  0
 34 72  1  6  0  0  0
 35 18  1  0  0  0  0
 35 24  1  0  0  0  0
 35 73  1  1  0  0  0
 36  2  1  0  0  0  0
 36  5  1  0  0  0  0
 36 74  1  6  0  0  0
M  END
>  <IDENTIFIER>
CNP0188410.1

>  <Energy>
1096.1

$$$$
