
 OpenBabel09062515383D

 73 77  0  0  0  0  0  0  0  0999 V2000
    4.9917   -0.8345   -2.5540 C   0  0  0  0  0  0  0  0  0  0  0  0
    5.8089    0.3444   -1.9803 C   0  0  1  0  0  0  0  0  0  0  0  0
    4.9756    1.3737   -1.4464 O   0  0  0  0  0  0  0  0  0  0  0  0
    4.3696    1.0063   -0.2090 C   0  0  2  0  0  0  0  0  0  0  0  0
    3.5619    2.0860    0.2532 O   0  0  0  0  0  0  0  0  0  0  0  0
    2.2363    1.9785   -0.2464 C   0  0  0  0  0  0  0  0  0  0  0  0
    1.3784    1.0596    0.6434 C   0  0  2  0  0  0  0  0  0  0  0  0
    0.1671    0.7664   -0.0524 O   0  0  0  0  0  0  0  0  0  0  0  0
   -0.8433    0.0998    0.7173 C   0  0  1  0  0  0  0  0  0  0  0  0
   -1.3887   -0.9104   -0.0627 O   0  0  0  0  0  0  0  0  0  0  0  0
   -2.7113   -1.1976   -0.1211 C   0  0  0  0  0  0  0  0  0  0  0  0
   -3.6477   -0.4668   -0.9045 C   0  0  0  0  0  0  0  0  0  0  0  0
   -3.3075    0.6669   -1.8322 C   0  0  0  0  0  0  0  0  0  0  0  0
   -2.0044    0.9331   -2.2975 C   0  0  0  0  0  0  0  0  0  0  0  0
   -1.7555    1.9984   -3.1667 C   0  0  0  0  0  0  0  0  0  0  0  0
   -2.8018    2.8191   -3.6034 C   0  0  0  0  0  0  0  0  0  0  0  0
   -2.5583    3.8456   -4.4449 O   0  0  0  0  0  0  0  0  0  0  0  0
   -4.1103    2.5613   -3.1661 C   0  0  0  0  0  0  0  0  0  0  0  0
   -5.1475    3.3239   -3.5723 O   0  0  0  0  0  0  0  0  0  0  0  0
   -4.3542    1.4942   -2.2944 C   0  0  0  0  0  0  0  0  0  0  0  0
   -4.9300   -0.8149   -0.8569 O   0  0  0  0  0  0  0  0  0  0  0  0
   -5.4054   -1.8242   -0.1326 C   0  0  0  0  0  0  0  0  0  0  0  0
   -6.7727   -2.1031   -0.1751 C   0  0  0  0  0  0  0  0  0  0  0  0
   -7.3009   -3.1682    0.5681 C   0  0  0  0  0  0  0  0  0  0  0  0
   -8.6177   -3.4498    0.5289 O   0  0  0  0  0  0  0  0  0  0  0  0
   -6.4531   -3.9445    1.3603 C   0  0  0  0  0  0  0  0  0  0  0  0
   -5.0775   -3.6769    1.4141 C   0  0  0  0  0  0  0  0  0  0  0  0
   -4.2807   -4.4442    2.1889 O   0  0  0  0  0  0  0  0  0  0  0  0
   -4.5404   -2.6036    0.6579 C   0  0  0  0  0  0  0  0  0  0  0  0
   -3.1754   -2.2738    0.6533 C   0  0  0  0  0  0  0  0  0  0  0  0
   -2.3786   -2.9119    1.3210 O   0  0  0  0  0  0  0  0  0  0  0  0
   -0.3165   -0.5145    2.0479 C   0  0  1  0  0  0  0  0  0  0  0  0
    0.6584   -1.4993    1.7767 O   0  0  0  0  0  0  0  0  0  0  0  0
    0.3369    0.6010    2.9090 C   0  0  2  0  0  0  0  0  0  0  0  0
   -0.5777    1.2229    3.7753 O   0  0  0  0  0  0  0  0  0  0  0  0
    1.0457    1.6667    2.0264 C   0  0  1  0  0  0  0  0  0  0  0  0
    2.1439    2.2397    2.6881 O   0  0  0  0  0  0  0  0  0  0  0  0
    5.4355    0.6861    0.8683 C   0  0  1  0  0  0  0  0  0  0  0  0
    4.8685    0.3880    2.1211 O   0  0  0  0  0  0  0  0  0  0  0  0
    6.3375   -0.4725    0.3817 C   0  0  1  0  0  0  0  0  0  0  0  0
    5.6160   -1.6709    0.2220 O   0  0  0  0  0  0  0  0  0  0  0  0
    6.9314   -0.0664   -0.9774 C   0  0  2  0  0  0  0  0  0  0  0  0
    7.8616    0.9805   -0.7991 O   0  0  0  0  0  0  0  0  0  0  0  0
    4.2868   -0.4567   -3.3231 H   0  0  0  0  0  0  0  0  0  0  0  0
    4.3956   -1.3844   -1.8033 H   0  0  0  0  0  0  0  0  0  0  0  0
    5.6755   -1.5654   -3.0358 H   0  0  0  0  0  0  0  0  0  0  0  0
    6.3321    0.7680   -2.8647 H   0  0  0  0  0  0  0  0  0  0  0  0
    3.7656    0.0866   -0.3471 H   0  0  0  0  0  0  0  0  0  0  0  0
    2.2425    1.5933   -1.2947 H   0  0  0  0  0  0  0  0  0  0  0  0
    1.7772    2.9878   -0.3109 H   0  0  0  0  0  0  0  0  0  0  0  0
    1.9578    0.1290    0.7619 H   0  0  0  0  0  0  0  0  0  0  0  0
   -1.6303    0.8446    0.9746 H   0  0  0  0  0  0  0  0  0  0  0  0
   -1.1670    0.3191   -2.0296 H   0  0  0  0  0  0  0  0  0  0  0  0
   -0.7440    2.1792   -3.5091 H   0  0  0  0  0  0  0  0  0  0  0  0
   -1.6686    4.0481   -4.7678 H   0  0  0  0  0  0  0  0  0  0  0  0
   -5.0426    4.0718   -4.1771 H   0  0  0  0  0  0  0  0  0  0  0  0
   -5.3746    1.3212   -1.9744 H   0  0  0  0  0  0  0  0  0  0  0  0
   -7.4268   -1.4991   -0.7936 H   0  0  0  0  0  0  0  0  0  0  0  0
   -9.2374   -2.9385   -0.0106 H   0  0  0  0  0  0  0  0  0  0  0  0
   -6.8675   -4.7642    1.9357 H   0  0  0  0  0  0  0  0  0  0  0  0
   -4.6228   -5.1799    2.7178 H   0  0  0  0  0  0  0  0  0  0  0  0
   -1.1190   -1.0026    2.6432 H   0  0  0  0  0  0  0  0  0  0  0  0
    0.2669   -2.1710    1.1628 H   0  0  0  0  0  0  0  0  0  0  0  0
    1.0715    0.0699    3.5556 H   0  0  0  0  0  0  0  0  0  0  0  0
   -1.3430    1.5426    3.2272 H   0  0  0  0  0  0  0  0  0  0  0  0
    0.3306    2.4895    1.8012 H   0  0  0  0  0  0  0  0  0  0  0  0
    2.7529    1.5036    2.9474 H   0  0  0  0  0  0  0  0  0  0  0  0
    6.0511    1.5998    1.0101 H   0  0  0  0  0  0  0  0  0  0  0  0
    4.0587   -0.1663    1.9800 H   0  0  0  0  0  0  0  0  0  0  0  0
    7.1642   -0.6564    1.1032 H   0  0  0  0  0  0  0  0  0  0  0  0
    5.1507   -1.8761    1.0713 H   0  0  0  0  0  0  0  0  0  0  0  0
    7.5051   -0.9173   -1.4053 H   0  0  0  0  0  0  0  0  0  0  0  0
    7.3867    1.8510   -0.8114 H   0  0  0  0  0  0  0  0  0  0  0  0
  1 44  1  0  0  0  0
  1 45  1  0  0  0  0
  1 46  1  0  0  0  0
  2  1  1  0  0  0  0
  2  3  1  0  0  0  0
  2 47  1  6  0  0  0
  3  4  1  0  0  0  0
  4  5  1  0  0  0  0
  4 38  1  0  0  0  0
  4 48  1  6  0  0  0
  5  6  1  0  0  0  0
  6 49  1  0  0  0  0
  6 50  1  0  0  0  0
  7  6  1  0  0  0  0
  7  8  1  0  0  0  0
  7 51  1  1  0  0  0
  8  9  1  0  0  0  0
  9 10  1  0  0  0  0
  9 32  1  0  0  0  0
  9 52  1  1  0  0  0
 10 11  1  0  0  0  0
 11 12  2  0  0  0  0
 12 13  1  0  0  0  0
 12 21  1  0  0  0  0
 13 14  2  0  0  0  0
 14 15  1  0  0  0  0
 14 53  1  0  0  0  0
 15 16  2  0  0  0  0
 15 54  1  0  0  0  0
 16 17  1  0  0  0  0
 16 18  1  0  0  0  0
 17 55  1  0  0  0  0
 18 19  1  0  0  0  0
 18 20  2  0  0  0  0
 19 56  1  0  0  0  0
 20 13  1  0  0  0  0
 20 57  1  0  0  0  0
 21 22  1  0  0  0  0
 22 23  2  0  0  0  0
 23 24  1  0  0  0  0
 23 58  1  0  0  0  0
 24 25  1  0  0  0  0
 24 26  2  0  0  0  0
 25 59  1  0  0  0  0
 26 27  1  0  0  0  0
 26 60  1  0  0  0  0
 27 28  1  0  0  0  0
 27 29  2  0  0  0  0
 28 61  1  0  0  0  0
 29 30  1  0  0  0  0
 29 22  1  0  0  0  0
 30 31  2  0  0  0  0
 30 11  1  0  0  0  0
 32 33  1  0  0  0  0
 32 34  1  0  0  0  0
 32 62  1  1  0  0  0
 33 63  1  0  0  0  0
 34 35  1  0  0  0  0
 34 36  1  0  0  0  0
 34 64  1  1  0  0  0
 35 65  1  0  0  0  0
 36 37  1  0  0  0  0
 36  7  1  0  0  0  0
 36 66  1  6  0  0  0
 37 67  1  0  0  0  0
 38 39  1  0  0  0  0
 38 40  1  0  0  0  0
 38 68  1  1  0  0  0
 39 69  1  0  0  0  0
 40 41  1  0  0  0  0
 40 42  1  0  0  0  0
 40 70  1  1  0  0  0
 41 71  1  0  0  0  0
 42 43  1  0  0  0  0
 42  2  1  0  0  0  0
 42 72  1  6  0  0  0
 43 73  1  0  0  0  0
M  END
>  <IDENTIFIER>
CNP0268715.33

>  <Energy>
862.068

$$$$
