
 OpenBabel09062503023D

 79 80  0  0  0  0  0  0  0  0999 V2000
   -3.8092    0.9821   -3.5262 C   0  0  0  0  0  0  0  0  0  0  0  0
   -2.4661    0.2795   -3.2249 C   0  0  2  0  0  0  0  0  0  0  0  0
   -2.7014   -1.2615   -3.0010 C   0  0  0  0  0  0  0  0  0  0  0  0
   -3.2749   -1.7835   -1.6241 C   0  0  2  0  0  0  0  0  0  0  0  0
   -4.4832   -0.9711   -1.1074 C   0  0  0  0  0  0  0  0  0  0  0  0
   -2.1250   -2.0746   -0.6061 C   0  0  0  0  0  0  0  0  0  0  0  0
   -2.4204   -2.0684    0.9194 C   0  0  1  0  0  0  0  0  0  0  0  0
   -3.5537   -3.0211    1.3480 C   0  0  0  0  0  0  0  0  0  0  0  0
   -1.0977   -2.3907    1.7011 C   0  0  1  0  0  0  0  0  0  0  0  0
   -1.3075   -2.3880    3.0967 O   0  0  0  0  0  0  0  0  0  0  0  0
   -0.4187   -3.6744    1.2334 C   0  0  0  0  0  0  0  0  0  0  0  0
   -1.1172   -4.8980    1.5718 C   0  0  0  0  0  0  0  0  0  0  0  0
   -1.6759   -5.8916    1.7740 N   0  0  0  0  0  0  0  0  0  0  0  0
    0.7325   -3.7856    0.5140 C   0  0  0  0  0  0  0  0  0  0  0  0
    1.6759   -2.7731   -0.0846 C   0  0  0  0  0  0  0  0  0  0  0  0
    1.5238   -1.4377   -0.2168 C   0  0  0  0  0  0  0  0  0  0  0  0
    2.5283   -0.5274   -0.8715 C   0  0  0  0  0  0  0  0  0  0  0  0
    2.8475    0.6944    0.0188 C   0  0  2  0  0  0  0  0  0  0  0  0
    3.6094    0.3161    1.3151 C   0  0  1  0  0  0  0  0  0  0  0  0
    5.0726   -0.1052    1.0152 C   0  0  0  0  0  0  0  0  0  0  0  0
    5.9640    1.0039    1.5567 C   0  0  0  0  0  0  0  0  0  0  0  0
    5.1877    1.5783    2.7092 C   0  0  0  0  0  0  0  0  0  0  0  0
    3.7169    1.5204    2.2946 C   0  0  2  0  0  0  0  0  0  0  0  0
    2.8272    1.3962    3.5275 C   0  0  0  0  0  0  0  0  0  0  0  0
    3.1829    1.9903    4.6948 N   0  0  0  0  0  0  0  0  0  0  0  0
    1.8269    0.6928    3.4984 O   0  0  0  0  0  0  0  0  0  0  0  0
    1.6631    1.3928    0.2874 O   0  0  0  0  0  0  0  0  0  0  0  0
    1.3868    2.6264   -0.2453 C   0  0  0  0  0  0  0  0  0  0  0  0
    2.1676    3.1462   -1.0268 O   0  0  0  0  0  0  0  0  0  0  0  0
    0.1124    3.3776    0.0658 C   0  0  0  0  0  0  0  0  0  0  0  0
   -1.1158    2.6034   -0.3782 C   0  0  1  0  0  0  0  0  0  0  0  0
   -2.3053    3.2358    0.0413 O   0  0  0  0  0  0  0  0  0  0  0  0
   -1.1633    2.2812   -1.9190 C   0  0  2  0  0  0  0  0  0  0  0  0
   -1.8236    3.3932   -2.7468 C   0  0  0  0  0  0  0  0  0  0  0  0
   -1.7596    0.8718   -2.0077 C   0  0  0  0  0  0  0  0  0  0  0  0
   -4.2977    0.4908   -4.3907 H   0  0  0  0  0  0  0  0  0  0  0  0
   -3.7016    2.0367   -3.8004 H   0  0  0  0  0  0  0  0  0  0  0  0
   -4.5027    0.9790   -2.6743 H   0  0  0  0  0  0  0  0  0  0  0  0
   -1.8241    0.3991   -4.1250 H   0  0  0  0  0  0  0  0  0  0  0  0
   -1.7368   -1.7909   -3.1775 H   0  0  0  0  0  0  0  0  0  0  0  0
   -3.3828   -1.5949   -3.8099 H   0  0  0  0  0  0  0  0  0  0  0  0
   -3.6909   -2.7924   -1.8281 H   0  0  0  0  0  0  0  0  0  0  0  0
   -4.2560    0.0174   -0.6806 H   0  0  0  0  0  0  0  0  0  0  0  0
   -5.0307   -1.4410   -0.3054 H   0  0  0  0  0  0  0  0  0  0  0  0
   -5.2406   -0.9129   -1.9071 H   0  0  0  0  0  0  0  0  0  0  0  0
   -1.3128   -1.3639   -0.7206 H   0  0  0  0  0  0  0  0  0  0  0  0
   -1.6760   -3.0431   -0.9231 H   0  0  0  0  0  0  0  0  0  0  0  0
   -2.7267   -1.0303    1.1890 H   0  0  0  0  0  0  0  0  0  0  0  0
   -3.3365   -4.0607    1.0926 H   0  0  0  0  0  0  0  0  0  0  0  0
   -4.5295   -2.8811    0.9016 H   0  0  0  0  0  0  0  0  0  0  0  0
   -3.7475   -2.8782    2.4285 H   0  0  0  0  0  0  0  0  0  0  0  0
   -0.4225   -1.5501    1.5673 H   0  0  0  0  0  0  0  0  0  0  0  0
   -1.8007   -3.2131    3.3378 H   0  0  0  0  0  0  0  0  0  0  0  0
    1.0374   -4.8016    0.3011 H   0  0  0  0  0  0  0  0  0  0  0  0
    2.5730   -3.2142   -0.5098 H   0  0  0  0  0  0  0  0  0  0  0  0
    0.6639   -0.9083    0.0966 H   0  0  0  0  0  0  0  0  0  0  0  0
    2.0516   -0.1255   -1.7895 H   0  0  0  0  0  0  0  0  0  0  0  0
    3.4491   -1.0682   -1.1775 H   0  0  0  0  0  0  0  0  0  0  0  0
    3.5398    1.3448   -0.5547 H   0  0  0  0  0  0  0  0  0  0  0  0
    3.1050   -0.5473    1.8072 H   0  0  0  0  0  0  0  0  0  0  0  0
    5.3102   -0.2877   -0.0560 H   0  0  0  0  0  0  0  0  0  0  0  0
    5.2766   -1.0380    1.5822 H   0  0  0  0  0  0  0  0  0  0  0  0
    6.0874    1.7893    0.7865 H   0  0  0  0  0  0  0  0  0  0  0  0
    6.9640    0.6345    1.8857 H   0  0  0  0  0  0  0  0  0  0  0  0
    5.5044    2.6190    2.9611 H   0  0  0  0  0  0  0  0  0  0  0  0
    5.3509    0.9128    3.5801 H   0  0  0  0  0  0  0  0  0  0  0  0
    3.4980    2.4621    1.7423 H   0  0  0  0  0  0  0  0  0  0  0  0
    4.0349    2.5645    4.7665 H   0  0  0  0  0  0  0  0  0  0  0  0
    2.6287    1.8471    5.5499 H   0  0  0  0  0  0  0  0  0  0  0  0
    0.1143    4.3500   -0.4643 H   0  0  0  0  0  0  0  0  0  0  0  0
    0.0450    3.5553    1.1610 H   0  0  0  0  0  0  0  0  0  0  0  0
   -1.0360    1.6617    0.2169 H   0  0  0  0  0  0  0  0  0  0  0  0
   -2.3004    4.1639   -0.3179 H   0  0  0  0  0  0  0  0  0  0  0  0
   -0.1458    2.1829   -2.3562 H   0  0  0  0  0  0  0  0  0  0  0  0
   -2.8721    3.5942   -2.4386 H   0  0  0  0  0  0  0  0  0  0  0  0
   -1.8021    3.1255   -3.8244 H   0  0  0  0  0  0  0  0  0  0  0  0
   -1.2340    4.3252   -2.6335 H   0  0  0  0  0  0  0  0  0  0  0  0
   -2.4636    0.7642   -1.1832 H   0  0  0  0  0  0  0  0  0  0  0  0
   -0.8675    0.2483   -1.8152 H   0  0  0  0  0  0  0  0  0  0  0  0
  1 36  1  0  0  0  0
  1 37  1  0  0  0  0
  1 38  1  0  0  0  0
  2  1  1  0  0  0  0
  2  3  1  0  0  0  0
  2 39  1  6  0  0  0
  3  4  1  0  0  0  0
  3 40  1  0  0  0  0
  3 41  1  0  0  0  0
  4  5  1  0  0  0  0
  4  6  1  0  0  0  0
  4 42  1  6  0  0  0
  5 43  1  0  0  0  0
  5 44  1  0  0  0  0
  5 45  1  0  0  0  0
  6  7  1  0  0  0  0
  6 46  1  0  0  0  0
  6 47  1  0  0  0  0
  7  8  1  0  0  0  0
  7  9  1  0  0  0  0
  7 48  1  1  0  0  0
  8 49  1  0  0  0  0
  8 50  1  0  0  0  0
  8 51  1  0  0  0  0
  9 10  1  0  0  0  0
  9 11  1  0  0  0  0
  9 52  1  6  0  0  0
 10 53  1  0  0  0  0
 11 12  1  0  0  0  0
 11 14  2  0  0  0  0
 12 13  3  0  0  0  0
 14 15  1  0  0  0  0
 14 54  1  0  0  0  0
 15 16  2  0  0  0  0
 15 55  1  0  0  0  0
 16 17  1  0  0  0  0
 16 56  1  0  0  0  0
 17 57  1  0  0  0  0
 17 58  1  0  0  0  0
 18 17  1  0  0  0  0
 18 19  1  0  0  0  0
 18 27  1  0  0  0  0
 18 59  1  6  0  0  0
 19 20  1  0  0  0  0
 19 60  1  1  0  0  0
 20 21  1  0  0  0  0
 20 61  1  0  0  0  0
 20 62  1  0  0  0  0
 21 22  1  0  0  0  0
 21 63  1  0  0  0  0
 21 64  1  0  0  0  0
 22 23  1  0  0  0  0
 22 65  1  0  0  0  0
 22 66  1  0  0  0  0
 23 24  1  0  0  0  0
 23 19  1  0  0  0  0
 23 67  1  6  0  0  0
 24 25  1  0  0  0  0
 24 26  2  0  0  0  0
 25 68  1  0  0  0  0
 25 69  1  0  0  0  0
 27 28  1  0  0  0  0
 28 29  2  0  0  0  0
 28 30  1  0  0  0  0
 30 31  1  0  0  0  0
 30 70  1  0  0  0  0
 30 71  1  0  0  0  0
 31 32  1  0  0  0  0
 31 33  1  0  0  0  0
 31 72  1  1  0  0  0
 32 73  1  0  0  0  0
 33 34  1  0  0  0  0
 33 35  1  0  0  0  0
 33 74  1  6  0  0  0
 34 75  1  0  0  0  0
 34 76  1  0  0  0  0
 34 77  1  0  0  0  0
 35  2  1  0  0  0  0
 35 78  1  0  0  0  0
 35 79  1  0  0  0  0
M  END
>  <IDENTIFIER>
CNP0450094.1

>  <Energy>
1011.49

$$$$
