
 OpenBabel09062501213D

 47 50  0  0  0  0  0  0  0  0999 V2000
    5.0812    1.3275   -2.8664 C   0  0  0  0  0  0  0  0  0  0  0  0
    4.4583    0.1137   -2.6564 O   0  0  0  0  0  0  0  0  0  0  0  0
    3.7742   -0.2400   -1.5370 C   0  0  0  0  0  0  0  0  0  0  0  0
    3.5538    0.6538   -0.4704 C   0  0  0  0  0  0  0  0  0  0  0  0
    2.8566    0.2364    0.6649 C   0  0  0  0  0  0  0  0  0  0  0  0
    2.3777   -1.0783    0.7634 C   0  0  0  0  0  0  0  0  0  0  0  0
    1.6731   -1.5139    2.0191 C   0  0  0  0  0  0  0  0  0  0  0  0
    0.4072   -0.8054    2.1683 N   0  0  0  0  0  0  0  0  0  0  0  0
    0.2062    0.1215    3.1486 C   0  0  0  0  0  0  0  0  0  0  0  0
    1.1029    0.4523    3.9112 O   0  0  0  0  0  0  0  0  0  0  0  0
   -1.1770    0.6774    3.3171 C   0  0  0  0  0  0  0  0  0  0  0  0
   -2.1045   -0.3891    3.3977 O   0  0  0  0  0  0  0  0  0  0  0  0
   -2.0614   -1.2469    2.2489 C   0  0  1  0  0  0  0  0  0  0  0  0
   -3.1368   -0.8485    1.2263 C   0  0  0  0  0  0  0  0  0  0  0  0
   -2.4778   -0.8864   -0.0877 N   0  0  1  0  0  0  0  0  0  0  0  0
   -3.2698   -0.2005   -1.1329 C   0  0  0  0  0  0  0  0  0  0  0  0
   -3.4902    1.3157   -1.0490 C   0  0  0  0  0  0  0  0  0  0  0  0
   -3.4187    1.3225   -2.5798 C   0  0  0  0  0  0  0  0  0  0  0  0
   -2.6150    0.0198   -2.4990 C   0  0  0  0  0  0  0  0  0  0  0  0
   -1.1172   -0.4088    0.1959 C   0  0  0  0  0  0  0  0  0  0  0  0
   -0.7564   -1.2456    1.4086 C   0  0  1  0  0  0  0  0  0  0  0  0
    2.5914   -1.9692   -0.2987 C   0  0  0  0  0  0  0  0  0  0  0  0
    3.2793   -1.5478   -1.4420 C   0  0  0  0  0  0  0  0  0  0  0  0
    5.5596    1.3224   -3.8670 H   0  0  0  0  0  0  0  0  0  0  0  0
    5.8694    1.4890   -2.0995 H   0  0  0  0  0  0  0  0  0  0  0  0
    4.3411    2.1548   -2.8312 H   0  0  0  0  0  0  0  0  0  0  0  0
    3.9219    1.6703   -0.5045 H   0  0  0  0  0  0  0  0  0  0  0  0
    2.7064    0.9351    1.4790 H   0  0  0  0  0  0  0  0  0  0  0  0
    2.3644   -1.3163    2.8662 H   0  0  0  0  0  0  0  0  0  0  0  0
    1.4778   -2.6089    2.0293 H   0  0  0  0  0  0  0  0  0  0  0  0
   -1.4491    1.3527    2.4811 H   0  0  0  0  0  0  0  0  0  0  0  0
   -1.2312    1.2935    4.2397 H   0  0  0  0  0  0  0  0  0  0  0  0
   -2.1904   -2.2922    2.6052 H   0  0  0  0  0  0  0  0  0  0  0  0
   -3.4449    0.2016    1.4370 H   0  0  0  0  0  0  0  0  0  0  0  0
   -4.0388   -1.4950    1.2799 H   0  0  0  0  0  0  0  0  0  0  0  0
   -4.2557   -0.7037   -1.2870 H   0  0  0  0  0  0  0  0  0  0  0  0
   -2.5853    1.8370   -0.6710 H   0  0  0  0  0  0  0  0  0  0  0  0
   -4.4178    1.6869   -0.5637 H   0  0  0  0  0  0  0  0  0  0  0  0
   -2.9694    2.1997   -3.0910 H   0  0  0  0  0  0  0  0  0  0  0  0
   -4.4332    1.0870   -2.9825 H   0  0  0  0  0  0  0  0  0  0  0  0
   -1.5439    0.2981   -2.3861 H   0  0  0  0  0  0  0  0  0  0  0  0
   -2.7647   -0.7456   -3.2895 H   0  0  0  0  0  0  0  0  0  0  0  0
   -1.1161    0.6703    0.4405 H   0  0  0  0  0  0  0  0  0  0  0  0
   -0.4083   -0.5944   -0.6385 H   0  0  0  0  0  0  0  0  0  0  0  0
   -0.6077   -2.2727    0.9956 H   0  0  0  0  0  0  0  0  0  0  0  0
    2.2287   -2.9878   -0.2428 H   0  0  0  0  0  0  0  0  0  0  0  0
    3.4393   -2.2450   -2.2548 H   0  0  0  0  0  0  0  0  0  0  0  0
  1  2  1  0  0  0  0
  1 24  1  0  0  0  0
  1 25  1  0  0  0  0
  1 26  1  0  0  0  0
  2  3  1  0  0  0  0
  3  4  2  0  0  0  0
  4  5  1  0  0  0  0
  4 27  1  0  0  0  0
  5  6  2  0  0  0  0
  5 28  1  0  0  0  0
  6  7  1  0  0  0  0
  6 22  1  0  0  0  0
  7  8  1  0  0  0  0
  7 29  1  0  0  0  0
  7 30  1  0  0  0  0
  8  9  1  0  0  0  0
  9 10  2  0  0  0  0
  9 11  1  0  0  0  0
 11 12  1  0  0  0  0
 11 31  1  0  0  0  0
 11 32  1  0  0  0  0
 12 13  1  0  0  0  0
 13 14  1  0  0  0  0
 13 33  1  1  0  0  0
 14 15  1  0  0  0  0
 14 34  1  0  0  0  0
 14 35  1  0  0  0  0
 15 16  1  6  0  0  0
 15 20  1  0  0  0  0
 16 17  1  0  0  0  0
 16 36  1  0  0  0  0
 17 18  1  0  0  0  0
 17 37  1  0  0  0  0
 17 38  1  0  0  0  0
 18 19  1  0  0  0  0
 18 39  1  0  0  0  0
 18 40  1  0  0  0  0
 19 16  1  0  0  0  0
 19 41  1  0  0  0  0
 19 42  1  0  0  0  0
 20 43  1  0  0  0  0
 20 44  1  0  0  0  0
 21 20  1  0  0  0  0
 21  8  1  0  0  0  0
 21 13  1  0  0  0  0
 21 45  1  6  0  0  0
 22 23  2  0  0  0  0
 22 46  1  0  0  0  0
 23  3  1  0  0  0  0
 23 47  1  0  0  0  0
M  END
>  <IDENTIFIER>
CNP0335093.1

>  <Energy>
978.911

$$$$
