
 OpenBabel09052507523D

 55 58  0  0  0  0  0  0  0  0999 V2000
   -5.4512   -1.0340   -0.1913 C   0  0  0  0  0  0  0  0  0  0  0  0
   -4.4241   -1.9392   -0.8993 C   0  0  0  0  0  0  0  0  0  0  0  0
   -4.4975   -3.3434   -0.2920 C   0  0  0  0  0  0  0  0  0  0  0  0
   -2.9865   -1.3127   -0.9008 C   0  0  1  0  0  0  0  0  0  0  0  0
   -3.0608   -0.0507   -1.6247 N   0  0  0  0  0  0  0  0  0  0  0  0
   -3.1348    1.2008   -0.9639 C   0  0  0  0  0  0  0  0  0  0  0  0
   -3.4893    2.3569   -1.6758 C   0  0  0  0  0  0  0  0  0  0  0  0
   -3.5884    3.5844   -1.0161 C   0  0  0  0  0  0  0  0  0  0  0  0
   -3.3297    3.6636    0.3541 C   0  0  0  0  0  0  0  0  0  0  0  0
   -2.9660    2.5166    1.0647 C   0  0  0  0  0  0  0  0  0  0  0  0
   -2.8737    1.2780    0.4052 C   0  0  0  0  0  0  0  0  0  0  0  0
   -2.4385    0.0566    1.1030 C   0  0  0  0  0  0  0  0  0  0  0  0
   -2.0131    0.1529    2.2472 O   0  0  0  0  0  0  0  0  0  0  0  0
   -2.4334   -1.1583    0.4599 N   0  0  0  0  0  0  0  0  0  0  0  0
   -1.6769   -2.2726    1.0495 C   0  0  0  0  0  0  0  0  0  0  0  0
   -0.2125   -2.2945    0.5561 C   0  0  0  0  0  0  0  0  0  0  0  0
    0.5699   -1.0272    0.9440 C   0  0  0  0  0  0  0  0  0  0  0  0
    2.0176   -1.0352    0.5081 C   0  0  0  0  0  0  0  0  0  0  0  0
    2.4660   -2.0004   -0.0887 O   0  0  0  0  0  0  0  0  0  0  0  0
    2.7871    0.0592    0.7917 N   0  0  0  0  0  0  0  0  0  0  0  0
    4.1711    0.2800    0.4690 C   0  0  0  0  0  0  0  0  0  0  0  0
    5.0018   -0.6659   -0.2113 C   0  0  0  0  0  0  0  0  0  0  0  0
    6.3500   -0.3735   -0.4933 C   0  0  0  0  0  0  0  0  0  0  0  0
    6.8516    0.8592   -0.0931 C   0  0  0  0  0  0  0  0  0  0  0  0
    8.0975    1.3333   -0.2631 N   0  0  0  0  0  0  0  0  0  0  0  0
    8.1090    2.5686    0.2884 C   0  0  0  0  0  0  0  0  0  0  0  0
    6.8579    2.8757    0.8113 C   0  0  0  0  0  0  0  0  0  0  0  0
    6.0733    1.7723    0.5567 C   0  0  0  0  0  0  0  0  0  0  0  0
    4.7386    1.5209    0.8540 C   0  0  0  0  0  0  0  0  0  0  0  0
   -6.4658   -1.4816   -0.2510 H   0  0  0  0  0  0  0  0  0  0  0  0
   -5.5087   -0.0379   -0.6752 H   0  0  0  0  0  0  0  0  0  0  0  0
   -5.1875   -0.8991    0.8793 H   0  0  0  0  0  0  0  0  0  0  0  0
   -4.7376   -2.0369   -1.9626 H   0  0  0  0  0  0  0  0  0  0  0  0
   -4.2982   -3.3192    0.7991 H   0  0  0  0  0  0  0  0  0  0  0  0
   -3.7845   -4.0239   -0.8027 H   0  0  0  0  0  0  0  0  0  0  0  0
   -5.5205   -3.7566   -0.4259 H   0  0  0  0  0  0  0  0  0  0  0  0
   -2.3024   -1.9706   -1.4808 H   0  0  0  0  0  0  0  0  0  0  0  0
   -3.3016   -0.0880   -2.6275 H   0  0  0  0  0  0  0  0  0  0  0  0
   -3.6949    2.3044   -2.7375 H   0  0  0  0  0  0  0  0  0  0  0  0
   -3.8661    4.4735   -1.5670 H   0  0  0  0  0  0  0  0  0  0  0  0
   -3.4045    4.6148    0.8646 H   0  0  0  0  0  0  0  0  0  0  0  0
   -2.7564    2.5973    2.1239 H   0  0  0  0  0  0  0  0  0  0  0  0
   -2.1171   -3.2441    0.7650 H   0  0  0  0  0  0  0  0  0  0  0  0
   -1.7023   -2.2371    2.1604 H   0  0  0  0  0  0  0  0  0  0  0  0
   -0.1921   -2.4148   -0.5485 H   0  0  0  0  0  0  0  0  0  0  0  0
    0.2890   -3.1777    1.0093 H   0  0  0  0  0  0  0  0  0  0  0  0
    0.5404   -0.9083    2.0486 H   0  0  0  0  0  0  0  0  0  0  0  0
    0.0956   -0.1450    0.4678 H   0  0  0  0  0  0  0  0  0  0  0  0
    2.3117    0.8253    1.2946 H   0  0  0  0  0  0  0  0  0  0  0  0
    4.6514   -1.6283   -0.5359 H   0  0  0  0  0  0  0  0  0  0  0  0
    6.9785   -1.0890   -1.0078 H   0  0  0  0  0  0  0  0  0  0  0  0
    8.8982    0.8493   -0.7269 H   0  0  0  0  0  0  0  0  0  0  0  0
    8.9770    3.2142    0.3113 H   0  0  0  0  0  0  0  0  0  0  0  0
    6.5646    3.7891    1.3117 H   0  0  0  0  0  0  0  0  0  0  0  0
    4.1512    2.2702    1.3706 H   0  0  0  0  0  0  0  0  0  0  0  0
  1  2  1  0  0  0  0
  1 30  1  0  0  0  0
  1 31  1  0  0  0  0
  1 32  1  0  0  0  0
  2  3  1  0  0  0  0
  2 33  1  0  0  0  0
  3 34  1  0  0  0  0
  3 35  1  0  0  0  0
  3 36  1  0  0  0  0
  4  2  1  0  0  0  0
  4  5  1  0  0  0  0
  4 37  1  6  0  0  0
  5  6  1  0  0  0  0
  5 38  1  0  0  0  0
  6  7  2  0  0  0  0
  7  8  1  0  0  0  0
  7 39  1  0  0  0  0
  8  9  2  0  0  0  0
  8 40  1  0  0  0  0
  9 10  1  0  0  0  0
  9 41  1  0  0  0  0
 10 11  2  0  0  0  0
 10 42  1  0  0  0  0
 11 12  1  0  0  0  0
 11  6  1  0  0  0  0
 12 13  2  0  0  0  0
 12 14  1  0  0  0  0
 14 15  1  0  0  0  0
 14  4  1  0  0  0  0
 15 16  1  0  0  0  0
 15 43  1  0  0  0  0
 15 44  1  0  0  0  0
 16 17  1  0  0  0  0
 16 45  1  0  0  0  0
 16 46  1  0  0  0  0
 17 18  1  0  0  0  0
 17 47  1  0  0  0  0
 17 48  1  0  0  0  0
 18 19  2  0  0  0  0
 18 20  1  0  0  0  0
 20 21  1  0  0  0  0
 20 49  1  0  0  0  0
 21 22  2  0  0  0  0
 22 23  1  0  0  0  0
 22 50  1  0  0  0  0
 23 24  2  0  0  0  0
 23 51  1  0  0  0  0
 24 25  1  0  0  0  0
 25 26  1  0  0  0  0
 25 52  1  0  0  0  0
 26 27  2  0  0  0  0
 26 53  1  0  0  0  0
 27 28  1  0  0  0  0
 27 54  1  0  0  0  0
 28 29  2  0  0  0  0
 28 24  1  0  0  0  0
 29 21  1  0  0  0  0
 29 55  1  0  0  0  0
M  END
>  <IDENTIFIER>
CNP0342040.0

>  <Energy>
494.299

$$$$
