
 OpenBabel09072512243D

290296  0  0  0  0  0  0  0  0999 V2000
   12.6790   -5.3556    4.3660 C   0  0  0  0  0  0  0  0  0  0  0  0
   12.7216   -4.9078    3.0318 O   0  0  0  0  0  0  0  0  0  0  0  0
   11.5238   -5.2305    2.3425 C   0  0  1  0  0  0  0  0  0  0  0  0
   10.9762   -3.9915    1.6445 C   0  0  0  0  0  0  0  0  0  0  0  0
   11.9925   -3.4772    0.6001 C   0  0  2  0  0  0  0  0  0  0  0  0
   11.3773   -2.3296   -0.2308 C   0  0  0  0  0  0  0  0  0  0  0  0
   10.3295   -2.8678   -1.2579 C   0  0  0  0  0  0  0  0  0  0  0  0
    9.8973   -1.9191   -2.4019 C   0  0  2  0  0  0  0  0  0  0  0  0
   11.1119   -1.3458   -3.1531 C   0  0  0  0  0  0  0  0  0  0  0  0
    8.9140   -0.7919   -1.9943 C   0  0  2  0  0  0  0  0  0  0  0  0
    9.5115    0.0545   -1.0425 O   0  0  0  0  0  0  0  0  0  0  0  0
    7.4722   -1.2635   -1.5595 C   0  0  2  0  0  0  0  0  0  0  0  0
    6.7912   -2.0484   -2.6991 C   0  0  0  0  0  0  0  0  0  0  0  0
    6.6342   -0.0128   -1.1614 C   0  0  2  0  0  0  0  0  0  0  0  0
    5.1562   -0.1968   -0.7445 C   0  0  0  0  0  0  0  0  0  0  0  0
    4.8522   -0.9958    0.5463 C   0  0  2  0  0  0  0  0  0  0  0  0
    5.7532   -0.6520    1.5746 O   0  0  0  0  0  0  0  0  0  0  0  0
    4.7024   -2.5213    0.4059 C   0  0  0  0  0  0  0  0  0  0  0  0
    3.5609   -2.9423   -0.5651 C   0  0  2  0  0  0  0  0  0  0  0  0
    2.4188   -2.1433   -0.3504 O   0  0  0  0  0  0  0  0  0  0  0  0
    3.1687   -4.4320   -0.4078 C   0  0  2  0  0  0  0  0  0  0  0  0
    4.3577   -5.4099   -0.5225 C   0  0  0  0  0  0  0  0  0  0  0  0
    2.0202   -4.8143   -1.4043 C   0  0  1  0  0  0  0  0  0  0  0  0
    2.5702   -5.3253   -2.6123 O   0  0  0  0  0  0  0  0  0  0  0  0
    2.2842   -4.4800   -3.7047 C   0  0  0  0  0  0  0  0  0  0  0  0
    1.0997   -5.8724   -0.7705 C   0  0  0  0  0  0  0  0  0  0  0  0
    0.1542   -5.2199    0.2777 C   0  0  2  0  0  0  0  0  0  0  0  0
   -0.5465   -6.2207    1.1921 C   0  0  0  0  0  0  0  0  0  0  0  0
   -1.4071   -7.0825    0.3576 C   0  0  0  0  0  0  0  0  0  0  0  0
   -2.0756   -6.5117   -0.6364 C   0  0  0  0  0  0  0  0  0  0  0  0
   -1.9125   -5.0377   -0.9764 C   0  0  1  0  0  0  0  0  0  0  0  0
   -3.1734   -4.2161   -0.6409 C   0  0  0  0  0  0  0  0  0  0  0  0
   -4.5349   -4.9263   -0.8269 C   0  0  1  0  0  0  0  0  0  0  0  0
   -4.6715   -5.8965    0.2154 O   0  0  0  0  0  0  0  0  0  0  0  0
   -5.2444   -7.1409   -0.1901 C   0  0  1  0  0  0  0  0  0  0  0  0
   -4.3341   -8.1600    0.2532 O   0  0  0  0  0  0  0  0  0  0  0  0
   -4.9789   -9.3529    0.6309 C   0  0  0  0  0  0  0  0  0  0  0  0
   -5.8709   -9.1453    1.8790 C   0  0  2  0  0  0  0  0  0  0  0  0
   -6.8787  -10.1445    1.8426 O   0  0  0  0  0  0  0  0  0  0  0  0
   -6.8674  -10.9177    3.0192 C   0  0  0  0  0  0  0  0  0  0  0  0
   -6.5265   -7.7385    1.8745 C   0  0  1  0  0  0  0  0  0  0  0  0
   -5.6576   -6.8296    2.5450 O   0  0  0  0  0  0  0  0  0  0  0  0
   -6.3466   -6.0833    3.5210 C   0  0  0  0  0  0  0  0  0  0  0  0
   -6.6835   -7.2701    0.4207 C   0  0  2  0  0  0  0  0  0  0  0  0
   -7.4053   -8.2188   -0.2950 O   0  0  0  0  0  0  0  0  0  0  0  0
   -8.5191   -8.0017   -1.0395 C   0  0  0  0  0  0  0  0  0  0  0  0
   -9.0052   -6.8839   -1.1403 O   0  0  0  0  0  0  0  0  0  0  0  0
   -9.1206   -9.1692   -1.7827 C   0  0  2  0  0  0  0  0  0  0  0  0
  -10.2050   -8.7632   -2.5835 O   0  0  0  0  0  0  0  0  0  0  0  0
   -9.5424  -10.2830   -0.8124 C   0  0  0  0  0  0  0  0  0  0  0  0
  -10.0206  -11.3956   -1.5190 O   0  0  0  0  0  0  0  0  0  0  0  0
   -5.6614   -3.9013   -0.6541 C   0  0  0  0  0  0  0  0  0  0  0  0
   -5.9173   -3.0875   -1.9070 C   0  0  0  0  0  0  0  0  0  0  0  0
   -7.1165   -3.0450   -2.5502 C   0  0  0  0  0  0  0  0  0  0  0  0
   -7.2008   -2.4265   -3.9211 C   0  0  0  0  0  0  0  0  0  0  0  0
   -8.3802   -3.6626   -2.0437 C   0  0  0  0  0  0  0  0  0  0  0  0
   -8.8578   -3.6862   -0.7789 C   0  0  0  0  0  0  0  0  0  0  0  0
   -8.3335   -2.9813    0.4258 C   0  0  0  0  0  0  0  0  0  0  0  0
   -8.7888   -3.3115    1.5116 O   0  0  0  0  0  0  0  0  0  0  0  0
   -7.5067   -1.8885    0.3305 O   0  0  0  0  0  0  0  0  0  0  0  0
   -7.3599   -0.9540    1.3585 C   0  0  2  0  0  0  0  0  0  0  0  0
   -8.7613   -0.2875    1.6811 C   0  0  1  0  0  0  0  0  0  0  0  0
   -8.6671    0.8752    2.6942 C   0  0  0  0  0  0  0  0  0  0  0  0
   -9.6673    0.0104    0.4137 C   0  0  1  0  0  0  0  0  0  0  0  0
  -10.9662    0.4364    0.7661 O   0  0  0  0  0  0  0  0  0  0  0  0
   -9.1254    0.9118   -0.7472 C   0  0  1  0  0  0  0  0  0  0  0  0
  -10.0250    0.7418   -1.9914 C   0  0  0  0  0  0  0  0  0  0  0  0
   -8.9519    2.4288   -0.4327 C   0  0  0  0  0  0  0  0  0  0  0  0
  -10.2032    3.0814    0.1887 C   0  0  0  0  0  0  0  0  0  0  0  0
  -10.2560    4.6068    0.0927 C   0  0  1  0  0  0  0  0  0  0  0  0
   -9.0735    5.3718    0.7403 C   0  0  0  0  0  0  0  0  0  0  0  0
   -9.0604    6.8462    0.2524 C   0  0  2  0  0  0  0  0  0  0  0  0
   -8.5420    7.6784    1.2759 O   0  0  0  0  0  0  0  0  0  0  0  0
   -7.6744    8.6491    0.7331 C   0  0  0  0  0  0  0  0  0  0  0  0
  -10.4820    7.2636   -0.1451 C   0  0  0  0  0  0  0  0  0  0  0  0
  -10.9013    6.3492   -1.3440 C   0  0  2  0  0  0  0  0  0  0  0  0
  -12.4152    6.3583   -1.5620 C   0  0  0  0  0  0  0  0  0  0  0  0
  -10.4199    5.0032   -1.2528 O   0  0  0  0  0  0  0  0  0  0  0  0
   -6.2827    0.1272    1.0643 C   0  0  0  0  0  0  0  0  0  0  0  0
   -4.8196   -0.2764    0.7719 C   0  0  2  0  0  0  0  0  0  0  0  0
   -4.2647   -1.0397    1.8135 O   0  0  0  0  0  0  0  0  0  0  0  0
   -3.9270    0.9725    0.4264 C   0  0  0  0  0  0  0  0  0  0  0  0
   -3.6882    2.0484    1.5496 C   0  0  2  0  0  0  0  0  0  0  0  0
   -4.8872    2.4938    2.1313 O   0  0  0  0  0  0  0  0  0  0  0  0
   -2.8859    3.3225    1.1026 C   0  0  2  0  0  0  0  0  0  0  0  0
   -3.6318    4.1050   -0.0062 C   0  0  0  0  0  0  0  0  0  0  0  0
   -1.3980    3.0951    0.6897 C   0  0  1  0  0  0  0  0  0  0  0  0
   -0.8324    4.3614    0.3722 O   0  0  0  0  0  0  0  0  0  0  0  0
   -0.4597    4.4206   -0.9902 C   0  0  0  0  0  0  0  0  0  0  0  0
   -0.5677    2.4535    1.8288 C   0  0  0  0  0  0  0  0  0  0  0  0
    0.9578    2.4962    1.5738 C   0  0  2  0  0  0  0  0  0  0  0  0
    1.6751    1.5928    2.5852 C   0  0  0  0  0  0  0  0  0  0  0  0
    3.1515    1.7320    2.4135 C   0  0  0  0  0  0  0  0  0  0  0  0
    3.6797    2.8401    1.8729 C   0  0  0  0  0  0  0  0  0  0  0  0
    2.8089    4.0151    1.4582 C   0  0  1  0  0  0  0  0  0  0  0  0
    2.9799    4.5205   -0.0017 C   0  0  0  0  0  0  0  0  0  0  0  0
    4.2868    5.2875   -0.3735 C   0  0  1  0  0  0  0  0  0  0  0  0
    4.5746    6.2685    0.6176 O   0  0  0  0  0  0  0  0  0  0  0  0
    4.1420    7.5861    0.2750 C   0  0  1  0  0  0  0  0  0  0  0  0
    3.1406    8.0271    1.1831 O   0  0  0  0  0  0  0  0  0  0  0  0
    3.6421    8.0589    2.5123 C   0  0  0  0  0  0  0  0  0  0  0  0
    4.7532    9.1115    2.6568 C   0  0  2  0  0  0  0  0  0  0  0  0
    4.2203   10.3970    2.3757 O   0  0  0  0  0  0  0  0  0  0  0  0
    4.1538   11.1678    3.5584 C   0  0  0  0  0  0  0  0  0  0  0  0
    5.8936    8.7857    1.6758 C   0  0  1  0  0  0  0  0  0  0  0  0
    6.5452    7.5979    2.1071 O   0  0  0  0  0  0  0  0  0  0  0  0
    7.8685    7.8780    2.5116 C   0  0  0  0  0  0  0  0  0  0  0  0
    5.3467    8.5616    0.2520 C   0  0  2  0  0  0  0  0  0  0  0  0
    4.9797    9.7759   -0.3209 O   0  0  0  0  0  0  0  0  0  0  0  0
    5.5924   10.3089   -1.4238 C   0  0  0  0  0  0  0  0  0  0  0  0
    6.5310    9.7314   -1.9571 O   0  0  0  0  0  0  0  0  0  0  0  0
    5.1610   11.6380   -1.9930 C   0  0  2  0  0  0  0  0  0  0  0  0
    4.1133   12.1972   -1.2431 O   0  0  0  0  0  0  0  0  0  0  0  0
    4.7742   11.5098   -3.4791 C   0  0  0  0  0  0  0  0  0  0  0  0
    4.5048   12.7713   -4.0281 O   0  0  0  0  0  0  0  0  0  0  0  0
    5.5291    4.4065   -0.6070 C   0  0  0  0  0  0  0  0  0  0  0  0
    6.7110    5.2807   -0.9924 C   0  0  0  0  0  0  0  0  0  0  0  0
    7.4075    5.2919   -2.1669 C   0  0  0  0  0  0  0  0  0  0  0  0
    8.4339    6.3760   -2.3798 C   0  0  0  0  0  0  0  0  0  0  0  0
    7.1896    4.3742   -3.3245 C   0  0  0  0  0  0  0  0  0  0  0  0
    7.0041    3.0401   -3.3056 C   0  0  0  0  0  0  0  0  0  0  0  0
    7.1067    2.1650   -2.1208 C   0  0  0  0  0  0  0  0  0  0  0  0
    7.6252    2.5705   -1.0903 O   0  0  0  0  0  0  0  0  0  0  0  0
    6.6427    0.8935   -2.2092 O   0  0  0  0  0  0  0  0  0  0  0  0
    1.4154    3.8315    1.7312 O   0  0  0  0  0  0  0  0  0  0  0  0
   -0.7959   -4.3703   -0.3632 O   0  0  0  0  0  0  0  0  0  0  0  0
   12.4186   -4.4645   -0.3404 O   0  0  0  0  0  0  0  0  0  0  0  0
   12.7663   -5.7359    0.1788 C   0  0  1  0  0  0  0  0  0  0  0  0
   14.2427   -5.7904    0.5792 C   0  0  0  0  0  0  0  0  0  0  0  0
   11.7829   -6.2621    1.2453 C   0  0  0  0  0  0  0  0  0  0  0  0
   13.6585   -5.1355    4.8384 H   0  0  0  0  0  0  0  0  0  0  0  0
   12.5289   -6.4566    4.4171 H   0  0  0  0  0  0  0  0  0  0  0  0
   11.9022   -4.8044    4.9397 H   0  0  0  0  0  0  0  0  0  0  0  0
   10.7210   -5.6202    3.0166 H   0  0  0  0  0  0  0  0  0  0  0  0
   10.7556   -3.1975    2.3943 H   0  0  0  0  0  0  0  0  0  0  0  0
   10.0188   -4.2679    1.1582 H   0  0  0  0  0  0  0  0  0  0  0  0
   12.8764   -3.0776    1.1489 H   0  0  0  0  0  0  0  0  0  0  0  0
   12.2252   -1.8873   -0.7887 H   0  0  0  0  0  0  0  0  0  0  0  0
   10.9687   -1.5442    0.4361 H   0  0  0  0  0  0  0  0  0  0  0  0
    9.4368   -3.2766   -0.7448 H   0  0  0  0  0  0  0  0  0  0  0  0
   10.7969   -3.7170   -1.7967 H   0  0  0  0  0  0  0  0  0  0  0  0
    9.3876   -2.5530   -3.1529 H   0  0  0  0  0  0  0  0  0  0  0  0
   11.6794   -0.6270   -2.5284 H   0  0  0  0  0  0  0  0  0  0  0  0
   10.7739   -0.8095   -4.0649 H   0  0  0  0  0  0  0  0  0  0  0  0
   11.7876   -2.1684   -3.4738 H   0  0  0  0  0  0  0  0  0  0  0  0
    8.7556   -0.1800   -2.9099 H   0  0  0  0  0  0  0  0  0  0  0  0
    9.2820   -0.2864   -0.1412 H   0  0  0  0  0  0  0  0  0  0  0  0
    7.5460   -1.9264   -0.6739 H   0  0  0  0  0  0  0  0  0  0  0  0
    6.7188   -1.4340   -3.6210 H   0  0  0  0  0  0  0  0  0  0  0  0
    5.7811   -2.3570   -2.4107 H   0  0  0  0  0  0  0  0  0  0  0  0
    7.3223   -2.9926   -2.9257 H   0  0  0  0  0  0  0  0  0  0  0  0
    7.1274    0.4296   -0.2705 H   0  0  0  0  0  0  0  0  0  0  0  0
    4.5241   -0.5436   -1.5872 H   0  0  0  0  0  0  0  0  0  0  0  0
    4.8137    0.8405   -0.5234 H   0  0  0  0  0  0  0  0  0  0  0  0
    3.8566   -0.6469    0.8844 H   0  0  0  0  0  0  0  0  0  0  0  0
    6.5847   -1.1750    1.4343 H   0  0  0  0  0  0  0  0  0  0  0  0
    4.4391   -2.8916    1.4219 H   0  0  0  0  0  0  0  0  0  0  0  0
    5.6580   -2.9963    0.1082 H   0  0  0  0  0  0  0  0  0  0  0  0
    3.8771   -2.7701   -1.6050 H   0  0  0  0  0  0  0  0  0  0  0  0
    2.1047   -2.2994    0.5789 H   0  0  0  0  0  0  0  0  0  0  0  0
    2.8089   -4.5144    0.6361 H   0  0  0  0  0  0  0  0  0  0  0  0
    4.8402   -5.3308   -1.5196 H   0  0  0  0  0  0  0  0  0  0  0  0
    4.0164   -6.4555   -0.3729 H   0  0  0  0  0  0  0  0  0  0  0  0
    5.1200   -5.2081    0.2560 H   0  0  0  0  0  0  0  0  0  0  0  0
    1.3447   -3.9429   -1.5872 H   0  0  0  0  0  0  0  0  0  0  0  0
    2.7630   -4.9050   -4.6105 H   0  0  0  0  0  0  0  0  0  0  0  0
    2.7127   -3.4659   -3.5536 H   0  0  0  0  0  0  0  0  0  0  0  0
    1.1896   -4.4354   -3.8982 H   0  0  0  0  0  0  0  0  0  0  0  0
    1.7168   -6.6810   -0.3201 H   0  0  0  0  0  0  0  0  0  0  0  0
    0.4728   -6.3400   -1.5604 H   0  0  0  0  0  0  0  0  0  0  0  0
    0.7314   -4.5885    0.9842 H   0  0  0  0  0  0  0  0  0  0  0  0
   -1.1917   -5.6371    1.8835 H   0  0  0  0  0  0  0  0  0  0  0  0
    0.1592   -6.8300    1.7993 H   0  0  0  0  0  0  0  0  0  0  0  0
   -1.4790   -8.1506    0.5415 H   0  0  0  0  0  0  0  0  0  0  0  0
   -2.7214   -7.1156   -1.2634 H   0  0  0  0  0  0  0  0  0  0  0  0
   -1.7533   -5.0250   -2.0764 H   0  0  0  0  0  0  0  0  0  0  0  0
   -3.1130   -3.2809   -1.2387 H   0  0  0  0  0  0  0  0  0  0  0  0
   -3.1268   -3.9198    0.4318 H   0  0  0  0  0  0  0  0  0  0  0  0
   -4.5856   -5.3580   -1.8527 H   0  0  0  0  0  0  0  0  0  0  0  0
   -5.3437   -7.2150   -1.2972 H   0  0  0  0  0  0  0  0  0  0  0  0
   -4.2389  -10.1575    0.8262 H   0  0  0  0  0  0  0  0  0  0  0  0
   -5.5644   -9.7185   -0.2417 H   0  0  0  0  0  0  0  0  0  0  0  0
   -5.2358   -9.1888    2.7995 H   0  0  0  0  0  0  0  0  0  0  0  0
   -7.6824  -11.6670    2.9509 H   0  0  0  0  0  0  0  0  0  0  0  0
   -7.0710  -10.2873    3.9131 H   0  0  0  0  0  0  0  0  0  0  0  0
   -5.9101  -11.4753    3.1166 H   0  0  0  0  0  0  0  0  0  0  0  0
   -7.5208   -7.8222    2.3789 H   0  0  0  0  0  0  0  0  0  0  0  0
   -5.6418   -5.3439    3.9548 H   0  0  0  0  0  0  0  0  0  0  0  0
   -6.6876   -6.7420    4.3494 H   0  0  0  0  0  0  0  0  0  0  0  0
   -7.1881   -5.5106    3.0725 H   0  0  0  0  0  0  0  0  0  0  0  0
   -7.2112   -6.3010    0.3888 H   0  0  0  0  0  0  0  0  0  0  0  0
   -8.3354   -9.5760   -2.4570 H   0  0  0  0  0  0  0  0  0  0  0  0
  -10.9302   -8.4594   -1.9779 H   0  0  0  0  0  0  0  0  0  0  0  0
  -10.3114   -9.9160   -0.0936 H   0  0  0  0  0  0  0  0  0  0  0  0
   -8.6680  -10.6088   -0.2102 H   0  0  0  0  0  0  0  0  0  0  0  0
  -10.9717  -11.2108   -1.7342 H   0  0  0  0  0  0  0  0  0  0  0  0
   -5.4506   -3.2638    0.2293 H   0  0  0  0  0  0  0  0  0  0  0  0
   -6.5480   -4.4933   -0.4486 H   0  0  0  0  0  0  0  0  0  0  0  0
   -5.0624   -2.5905   -2.3546 H   0  0  0  0  0  0  0  0  0  0  0  0
   -6.2262   -2.0239   -4.2680 H   0  0  0  0  0  0  0  0  0  0  0  0
   -7.9480   -1.6062   -3.9188 H   0  0  0  0  0  0  0  0  0  0  0  0
   -7.5260   -3.2023   -4.6492 H   0  0  0  0  0  0  0  0  0  0  0  0
   -9.0041   -4.1411   -2.7943 H   0  0  0  0  0  0  0  0  0  0  0  0
   -9.7725   -4.2525   -0.6203 H   0  0  0  0  0  0  0  0  0  0  0  0
   -7.0000   -1.4788    2.2734 H   0  0  0  0  0  0  0  0  0  0  0  0
   -9.3320   -1.0672    2.2293 H   0  0  0  0  0  0  0  0  0  0  0  0
   -8.1576    1.7621    2.2778 H   0  0  0  0  0  0  0  0  0  0  0  0
   -8.1067    0.5392    3.5935 H   0  0  0  0  0  0  0  0  0  0  0  0
   -9.6696    1.1985    3.0372 H   0  0  0  0  0  0  0  0  0  0  0  0
   -9.8085   -0.9793   -0.0607 H   0  0  0  0  0  0  0  0  0  0  0  0
  -11.1710    0.1816    1.7003 H   0  0  0  0  0  0  0  0  0  0  0  0
   -8.1561    0.5118   -1.0985 H   0  0  0  0  0  0  0  0  0  0  0  0
  -11.0644    1.0787   -1.8126 H   0  0  0  0  0  0  0  0  0  0  0  0
  -10.0558   -0.3261   -2.2983 H   0  0  0  0  0  0  0  0  0  0  0  0
   -9.6079    1.3146   -2.8484 H   0  0  0  0  0  0  0  0  0  0  0  0
   -8.6987    2.9346   -1.3904 H   0  0  0  0  0  0  0  0  0  0  0  0
   -8.0907    2.6029    0.2402 H   0  0  0  0  0  0  0  0  0  0  0  0
  -10.2794    2.7736    1.2516 H   0  0  0  0  0  0  0  0  0  0  0  0
  -11.1149    2.7358   -0.3387 H   0  0  0  0  0  0  0  0  0  0  0  0
  -11.1907    4.8689    0.6439 H   0  0  0  0  0  0  0  0  0  0  0  0
   -8.0781    4.9415    0.5004 H   0  0  0  0  0  0  0  0  0  0  0  0
   -9.2242    5.3039    1.8399 H   0  0  0  0  0  0  0  0  0  0  0  0
   -8.4542    6.8784   -0.6895 H   0  0  0  0  0  0  0  0  0  0  0  0
   -7.3675    9.3398    1.5448 H   0  0  0  0  0  0  0  0  0  0  0  0
   -8.1837    9.2631   -0.0433 H   0  0  0  0  0  0  0  0  0  0  0  0
   -6.7518    8.1728    0.3340 H   0  0  0  0  0  0  0  0  0  0  0  0
  -10.5549    8.3306   -0.4463 H   0  0  0  0  0  0  0  0  0  0  0  0
  -11.1420    7.1192    0.7396 H   0  0  0  0  0  0  0  0  0  0  0  0
  -10.4117    6.7764   -2.2461 H   0  0  0  0  0  0  0  0  0  0  0  0
  -12.9348    5.9189   -0.6836 H   0  0  0  0  0  0  0  0  0  0  0  0
  -12.6691    5.7519   -2.4576 H   0  0  0  0  0  0  0  0  0  0  0  0
  -12.7806    7.3949   -1.7151 H   0  0  0  0  0  0  0  0  0  0  0  0
   -6.2432    0.7088    1.9903 H   0  0  0  0  0  0  0  0  0  0  0  0
   -6.5989    0.7782    0.2413 H   0  0  0  0  0  0  0  0  0  0  0  0
   -4.8367   -0.9112   -0.1393 H   0  0  0  0  0  0  0  0  0  0  0  0
   -4.3038   -0.4946    2.6409 H   0  0  0  0  0  0  0  0  0  0  0  0
   -4.4047    1.4625   -0.4459 H   0  0  0  0  0  0  0  0  0  0  0  0
   -2.9342    0.6015    0.0943 H   0  0  0  0  0  0  0  0  0  0  0  0
   -3.1280    1.5498    2.3661 H   0  0  0  0  0  0  0  0  0  0  0  0
   -5.5148    2.7425    1.4055 H   0  0  0  0  0  0  0  0  0  0  0  0
   -2.8564    3.9949    1.9906 H   0  0  0  0  0  0  0  0  0  0  0  0
   -3.6715    3.5255   -0.9505 H   0  0  0  0  0  0  0  0  0  0  0  0
   -3.1266    5.0700   -0.2147 H   0  0  0  0  0  0  0  0  0  0  0  0
   -4.6613    4.3784    0.2966 H   0  0  0  0  0  0  0  0  0  0  0  0
   -1.3647    2.3845   -0.1724 H   0  0  0  0  0  0  0  0  0  0  0  0
   -0.0846    5.4403   -1.2097 H   0  0  0  0  0  0  0  0  0  0  0  0
   -1.3280    4.2422   -1.6610 H   0  0  0  0  0  0  0  0  0  0  0  0
    0.3580    3.7019   -1.2101 H   0  0  0  0  0  0  0  0  0  0  0  0
   -0.9023    1.4000    1.9364 H   0  0  0  0  0  0  0  0  0  0  0  0
   -0.7588    2.9790    2.7917 H   0  0  0  0  0  0  0  0  0  0  0  0
    1.1693    2.1212    0.5467 H   0  0  0  0  0  0  0  0  0  0  0  0
    1.3755    0.5401    2.3921 H   0  0  0  0  0  0  0  0  0  0  0  0
    1.4195    1.8519    3.6353 H   0  0  0  0  0  0  0  0  0  0  0  0
    3.8051    0.9441    2.7710 H   0  0  0  0  0  0  0  0  0  0  0  0
    4.7540    2.8909    1.8121 H   0  0  0  0  0  0  0  0  0  0  0  0
    3.1170    4.8531    2.1166 H   0  0  0  0  0  0  0  0  0  0  0  0
    2.1855    5.2898   -0.1319 H   0  0  0  0  0  0  0  0  0  0  0  0
    2.7706    3.7109   -0.7347 H   0  0  0  0  0  0  0  0  0  0  0  0
    4.1117    5.7258   -1.3852 H   0  0  0  0  0  0  0  0  0  0  0  0
    3.6952    7.6409   -0.7423 H   0  0  0  0  0  0  0  0  0  0  0  0
    3.9972    7.0539    2.8316 H   0  0  0  0  0  0  0  0  0  0  0  0
    2.8090    8.3146    3.2000 H   0  0  0  0  0  0  0  0  0  0  0  0
    5.1803    9.0407    3.6890 H   0  0  0  0  0  0  0  0  0  0  0  0
    3.6670   12.1367    3.3298 H   0  0  0  0  0  0  0  0  0  0  0  0
    5.1750   11.3879    3.9428 H   0  0  0  0  0  0  0  0  0  0  0  0
    3.5349   10.6645    4.3365 H   0  0  0  0  0  0  0  0  0  0  0  0
    6.5924    9.6596    1.6403 H   0  0  0  0  0  0  0  0  0  0  0  0
    8.3481    6.9371    2.8437 H   0  0  0  0  0  0  0  0  0  0  0  0
    7.8795    8.5834    3.3733 H   0  0  0  0  0  0  0  0  0  0  0  0
    8.4690    8.2742    1.6608 H   0  0  0  0  0  0  0  0  0  0  0  0
    6.1551    8.1034   -0.3530 H   0  0  0  0  0  0  0  0  0  0  0  0
    6.0349   12.3232   -1.9294 H   0  0  0  0  0  0  0  0  0  0  0  0
    3.3154   11.6189   -1.3673 H   0  0  0  0  0  0  0  0  0  0  0  0
    3.9029   10.8278   -3.6129 H   0  0  0  0  0  0  0  0  0  0  0  0
    5.6174   11.0657   -4.0516 H   0  0  0  0  0  0  0  0  0  0  0  0
    3.5686   12.9947   -3.7886 H   0  0  0  0  0  0  0  0  0  0  0  0
    5.2532    3.6933   -1.4043 H   0  0  0  0  0  0  0  0  0  0  0  0
    5.8161    3.8641    0.2992 H   0  0  0  0  0  0  0  0  0  0  0  0
    6.9901    6.0095   -0.2397 H   0  0  0  0  0  0  0  0  0  0  0  0
    8.5326    7.0542   -1.5055 H   0  0  0  0  0  0  0  0  0  0  0  0
    8.1486    6.9908   -3.2589 H   0  0  0  0  0  0  0  0  0  0  0  0
    9.4255    5.9119   -2.5691 H   0  0  0  0  0  0  0  0  0  0  0  0
    7.2250    4.8348   -4.3088 H   0  0  0  0  0  0  0  0  0  0  0  0
    6.8177    2.5418   -4.2522 H   0  0  0  0  0  0  0  0  0  0  0  0
   12.6791   -6.4493   -0.6697 H   0  0  0  0  0  0  0  0  0  0  0  0
   14.4874   -5.1165    1.4193 H   0  0  0  0  0  0  0  0  0  0  0  0
   14.8686   -5.4982   -0.2914 H   0  0  0  0  0  0  0  0  0  0  0  0
   14.5074   -6.8348    0.8534 H   0  0  0  0  0  0  0  0  0  0  0  0
   12.1339   -7.2293    1.6606 H   0  0  0  0  0  0  0  0  0  0  0  0
   10.8093   -6.4551    0.7379 H   0  0  0  0  0  0  0  0  0  0  0  0
  1  2  1  0  0  0  0
  1131  1  0  0  0  0
  1132  1  0  0  0  0
  1133  1  0  0  0  0
  3  2  1  0  0  0  0
  3  4  1  0  0  0  0
  3134  1  1  0  0  0
  4  5  1  0  0  0  0
  4135  1  0  0  0  0
  4136  1  0  0  0  0
  5  6  1  0  0  0  0
  5127  1  0  0  0  0
  5137  1  1  0  0  0
  6  7  1  0  0  0  0
  6138  1  0  0  0  0
  6139  1  0  0  0  0
  7  8  1  0  0  0  0
  7140  1  0  0  0  0
  7141  1  0  0  0  0
  8  9  1  0  0  0  0
  8 10  1  0  0  0  0
  8142  1  6  0  0  0
  9143  1  0  0  0  0
  9144  1  0  0  0  0
  9145  1  0  0  0  0
 10 11  1  0  0  0  0
 10 12  1  0  0  0  0
 10146  1  6  0  0  0
 11147  1  0  0  0  0
 12 13  1  0  0  0  0
 12 14  1  0  0  0  0
 12148  1  1  0  0  0
 13149  1  0  0  0  0
 13150  1  0  0  0  0
 13151  1  0  0  0  0
 14 15  1  0  0  0  0
 14152  1  1  0  0  0
 15 16  1  0  0  0  0
 15153  1  0  0  0  0
 15154  1  0  0  0  0
 16 17  1  0  0  0  0
 16 18  1  0  0  0  0
 16155  1  1  0  0  0
 17156  1  0  0  0  0
 18 19  1  0  0  0  0
 18157  1  0  0  0  0
 18158  1  0  0  0  0
 19 20  1  0  0  0  0
 19 21  1  0  0  0  0
 19159  1  6  0  0  0
 20160  1  0  0  0  0
 21 22  1  0  0  0  0
 21 23  1  0  0  0  0
 21161  1  1  0  0  0
 22162  1  0  0  0  0
 22163  1  0  0  0  0
 22164  1  0  0  0  0
 23 24  1  0  0  0  0
 23 26  1  0  0  0  0
 23165  1  6  0  0  0
 24 25  1  0  0  0  0
 25166  1  0  0  0  0
 25167  1  0  0  0  0
 25168  1  0  0  0  0
 26169  1  0  0  0  0
 26170  1  0  0  0  0
 27 26  1  0  0  0  0
 27 28  1  0  0  0  0
 27171  1  1  0  0  0
 28 29  1  0  0  0  0
 28172  1  0  0  0  0
 28173  1  0  0  0  0
 29 30  2  0  0  0  0
 29174  1  0  0  0  0
 30 31  1  0  0  0  0
 30175  1  0  0  0  0
 31 32  1  0  0  0  0
 31126  1  0  0  0  0
 31176  1  6  0  0  0
 32 33  1  0  0  0  0
 32177  1  0  0  0  0
 32178  1  0  0  0  0
 33 34  1  0  0  0  0
 33 52  1  0  0  0  0
 33179  1  6  0  0  0
 35 34  1  0  0  0  0
 35 36  1  0  0  0  0
 35180  1  6  0  0  0
 36 37  1  0  0  0  0
 37 38  1  0  0  0  0
 37181  1  0  0  0  0
 37182  1  0  0  0  0
 38 39  1  0  0  0  0
 38 41  1  0  0  0  0
 38183  1  1  0  0  0
 39 40  1  0  0  0  0
 40184  1  0  0  0  0
 40185  1  0  0  0  0
 40186  1  0  0  0  0
 41 42  1  0  0  0  0
 41 44  1  0  0  0  0
 41187  1  1  0  0  0
 42 43  1  0  0  0  0
 43188  1  0  0  0  0
 43189  1  0  0  0  0
 43190  1  0  0  0  0
 44 45  1  0  0  0  0
 44 35  1  0  0  0  0
 44191  1  6  0  0  0
 45 46  1  0  0  0  0
 46 47  2  0  0  0  0
 46 48  1  0  0  0  0
 48 49  1  0  0  0  0
 48 50  1  0  0  0  0
 48192  1  6  0  0  0
 49193  1  0  0  0  0
 50 51  1  0  0  0  0
 50194  1  0  0  0  0
 50195  1  0  0  0  0
 51196  1  0  0  0  0
 52 53  1  0  0  0  0
 52197  1  0  0  0  0
 52198  1  0  0  0  0
 53 54  2  0  0  0  0
 53199  1  0  0  0  0
 54 55  1  0  0  0  0
 54 56  1  0  0  0  0
 55200  1  0  0  0  0
 55201  1  0  0  0  0
 55202  1  0  0  0  0
 56 57  2  0  0  0  0
 56203  1  0  0  0  0
 57 58  1  0  0  0  0
 57204  1  0  0  0  0
 58 59  2  0  0  0  0
 58 60  1  0  0  0  0
 60 61  1  0  0  0  0
 61 62  1  0  0  0  0
 61 79  1  0  0  0  0
 61205  1  1  0  0  0
 62 63  1  0  0  0  0
 62 64  1  0  0  0  0
 62206  1  1  0  0  0
 63207  1  0  0  0  0
 63208  1  0  0  0  0
 63209  1  0  0  0  0
 64 65  1  0  0  0  0
 64 66  1  0  0  0  0
 64210  1  6  0  0  0
 65211  1  0  0  0  0
 66 67  1  0  0  0  0
 66 68  1  0  0  0  0
 66212  1  6  0  0  0
 67213  1  0  0  0  0
 67214  1  0  0  0  0
 67215  1  0  0  0  0
 68 69  1  0  0  0  0
 68216  1  0  0  0  0
 68217  1  0  0  0  0
 69218  1  0  0  0  0
 69219  1  0  0  0  0
 70 69  1  0  0  0  0
 70 71  1  0  0  0  0
 70220  1  1  0  0  0
 71 72  1  0  0  0  0
 71221  1  0  0  0  0
 71222  1  0  0  0  0
 72 73  1  0  0  0  0
 72 75  1  0  0  0  0
 72223  1  6  0  0  0
 73 74  1  0  0  0  0
 74224  1  0  0  0  0
 74225  1  0  0  0  0
 74226  1  0  0  0  0
 75 76  1  0  0  0  0
 75227  1  0  0  0  0
 75228  1  0  0  0  0
 76 77  1  0  0  0  0
 76 78  1  0  0  0  0
 76229  1  6  0  0  0
 77230  1  0  0  0  0
 77231  1  0  0  0  0
 77232  1  0  0  0  0
 78 70  1  0  0  0  0
 79 80  1  0  0  0  0
 79233  1  0  0  0  0
 79234  1  0  0  0  0
 80 81  1  0  0  0  0
 80 82  1  0  0  0  0
 80235  1  6  0  0  0
 81236  1  0  0  0  0
 82 83  1  0  0  0  0
 82237  1  0  0  0  0
 82238  1  0  0  0  0
 83 84  1  0  0  0  0
 83 85  1  0  0  0  0
 83239  1  1  0  0  0
 84240  1  0  0  0  0
 85 86  1  0  0  0  0
 85 87  1  0  0  0  0
 85241  1  1  0  0  0
 86242  1  0  0  0  0
 86243  1  0  0  0  0
 86244  1  0  0  0  0
 87 88  1  0  0  0  0
 87 90  1  0  0  0  0
 87245  1  6  0  0  0
 88 89  1  0  0  0  0
 89246  1  0  0  0  0
 89247  1  0  0  0  0
 89248  1  0  0  0  0
 90249  1  0  0  0  0
 90250  1  0  0  0  0
 91 90  1  0  0  0  0
 91 92  1  0  0  0  0
 91251  1  6  0  0  0
 92 93  1  0  0  0  0
 92252  1  0  0  0  0
 92253  1  0  0  0  0
 93 94  2  0  0  0  0
 93254  1  0  0  0  0
 94 95  1  0  0  0  0
 94255  1  0  0  0  0
 95 96  1  0  0  0  0
 95125  1  0  0  0  0
 95256  1  1  0  0  0
 96 97  1  0  0  0  0
 96257  1  0  0  0  0
 96258  1  0  0  0  0
 97 98  1  0  0  0  0
 97116  1  0  0  0  0
 97259  1  6  0  0  0
 99 98  1  0  0  0  0
 99100  1  0  0  0  0
 99260  1  6  0  0  0
100101  1  0  0  0  0
101102  1  0  0  0  0
101261  1  0  0  0  0
101262  1  0  0  0  0
102103  1  0  0  0  0
102105  1  0  0  0  0
102263  1  1  0  0  0
103104  1  0  0  0  0
104264  1  0  0  0  0
104265  1  0  0  0  0
104266  1  0  0  0  0
105106  1  0  0  0  0
105108  1  0  0  0  0
105267  1  6  0  0  0
106107  1  0  0  0  0
107268  1  0  0  0  0
107269  1  0  0  0  0
107270  1  0  0  0  0
108109  1  0  0  0  0
108 99  1  0  0  0  0
108271  1  6  0  0  0
109110  1  0  0  0  0
110111  2  0  0  0  0
110112  1  0  0  0  0
112113  1  0  0  0  0
112114  1  0  0  0  0
112272  1  1  0  0  0
113273  1  0  0  0  0
114115  1  0  0  0  0
114274  1  0  0  0  0
114275  1  0  0  0  0
115276  1  0  0  0  0
116117  1  0  0  0  0
116277  1  0  0  0  0
116278  1  0  0  0  0
117118  2  0  0  0  0
117279  1  0  0  0  0
118119  1  0  0  0  0
118120  1  0  0  0  0
119280  1  0  0  0  0
119281  1  0  0  0  0
119282  1  0  0  0  0
120121  2  0  0  0  0
120283  1  0  0  0  0
121122  1  0  0  0  0
121284  1  0  0  0  0
122123  2  0  0  0  0
122124  1  0  0  0  0
124 14  1  0  0  0  0
125 91  1  0  0  0  0
126 27  1  0  0  0  0
127128  1  0  0  0  0
128129  1  0  0  0  0
128130  1  0  0  0  0
128285  1  6  0  0  0
129286  1  0  0  0  0
129287  1  0  0  0  0
129288  1  0  0  0  0
130  3  1  0  0  0  0
130289  1  0  0  0  0
130290  1  0  0  0  0
M  END
>  <IDENTIFIER>
CNP0296831.3

>  <Energy>
2887.64

$$$$
