
 OpenBabel09072511373D

 41 44  0  0  0  0  0  0  0  0999 V2000
    1.6510   -1.9859    3.1193 C   0  0  0  0  0  0  0  0  0  0  0  0
    1.4895   -1.1118    1.9158 C   0  0  0  0  0  0  0  0  0  0  0  0
    0.3166   -0.4417    1.7008 N   0  0  0  0  0  0  0  0  0  0  0  0
    0.1090    0.3648    0.6083 C   0  0  0  0  0  0  0  0  0  0  0  0
   -1.1857    1.0738    0.4419 C   0  0  0  0  0  0  0  0  0  0  0  0
   -1.3902    1.7087   -0.5845 O   0  0  0  0  0  0  0  0  0  0  0  0
   -2.1274    1.0565    1.4295 N   0  0  0  0  0  0  0  0  0  0  0  0
   -3.3845    1.7740    1.3111 C   0  0  0  0  0  0  0  0  0  0  0  0
   -4.2645    1.1481    0.2605 C   0  0  0  0  0  0  0  0  0  0  0  0
   -4.7478   -0.1578    0.4455 C   0  0  0  0  0  0  0  0  0  0  0  0
   -5.5770   -0.7453   -0.5139 C   0  0  0  0  0  0  0  0  0  0  0  0
   -5.9229   -0.0381   -1.6681 C   0  0  0  0  0  0  0  0  0  0  0  0
   -5.4427    1.2612   -1.8636 C   0  0  0  0  0  0  0  0  0  0  0  0
   -5.8728    2.1443   -3.3169 Cl  0  0  0  0  0  0  0  0  0  0  0  0
   -4.6195    1.8563   -0.8998 C   0  0  0  0  0  0  0  0  0  0  0  0
    1.1398    0.5265   -0.3466 C   0  0  0  0  0  0  0  0  0  0  0  0
    2.3352   -0.1433   -0.1157 C   0  0  0  0  0  0  0  0  0  0  0  0
    2.5164   -0.9481    0.9851 C   0  0  0  0  0  0  0  0  0  0  0  0
    3.7558   -1.4901    0.9961 N   0  0  0  0  0  0  0  0  0  0  0  0
    4.3608   -1.0099   -0.1117 C   0  0  0  0  0  0  0  0  0  0  0  0
    5.6607   -1.2660   -0.5467 C   0  0  0  0  0  0  0  0  0  0  0  0
    6.0907   -0.6478   -1.7358 C   0  0  0  0  0  0  0  0  0  0  0  0
    5.2228    0.2031   -2.4581 C   0  0  0  0  0  0  0  0  0  0  0  0
    3.9149    0.4455   -2.0001 C   0  0  0  0  0  0  0  0  0  0  0  0
    3.5169   -0.1789   -0.8197 C   0  0  0  0  0  0  0  0  0  0  0  0
    0.7234   -1.9826    3.7298 H   0  0  0  0  0  0  0  0  0  0  0  0
    2.4918   -1.6168    3.7433 H   0  0  0  0  0  0  0  0  0  0  0  0
    1.8619   -3.0280    2.7987 H   0  0  0  0  0  0  0  0  0  0  0  0
   -1.9359    0.5605    2.3128 H   0  0  0  0  0  0  0  0  0  0  0  0
   -3.1697    2.8422    1.0859 H   0  0  0  0  0  0  0  0  0  0  0  0
   -3.9311    1.7418    2.2786 H   0  0  0  0  0  0  0  0  0  0  0  0
   -4.4891   -0.7151    1.3375 H   0  0  0  0  0  0  0  0  0  0  0  0
   -5.9522   -1.7491   -0.3616 H   0  0  0  0  0  0  0  0  0  0  0  0
   -6.5636   -0.5002   -2.4084 H   0  0  0  0  0  0  0  0  0  0  0  0
   -4.2535    2.8631   -1.0589 H   0  0  0  0  0  0  0  0  0  0  0  0
    1.0211    1.1576   -1.2184 H   0  0  0  0  0  0  0  0  0  0  0  0
    4.1645   -2.1349    1.7095 H   0  0  0  0  0  0  0  0  0  0  0  0
    6.3198   -1.9172    0.0127 H   0  0  0  0  0  0  0  0  0  0  0  0
    7.0945   -0.8239   -2.0995 H   0  0  0  0  0  0  0  0  0  0  0  0
    5.5677    0.6732   -3.3699 H   0  0  0  0  0  0  0  0  0  0  0  0
    3.2454    1.0975   -2.5460 H   0  0  0  0  0  0  0  0  0  0  0  0
  1  2  1  0  0  0  0
  1 26  1  0  0  0  0
  1 27  1  0  0  0  0
  1 28  1  0  0  0  0
  2  3  2  0  0  0  0
  3  4  1  0  0  0  0
  4  5  1  0  0  0  0
  4 16  2  0  0  0  0
  5  6  2  0  0  0  0
  5  7  1  0  0  0  0
  7  8  1  0  0  0  0
  7 29  1  0  0  0  0
  8  9  1  0  0  0  0
  8 30  1  0  0  0  0
  8 31  1  0  0  0  0
  9 10  2  0  0  0  0
 10 11  1  0  0  0  0
 10 32  1  0  0  0  0
 11 12  2  0  0  0  0
 11 33  1  0  0  0  0
 12 13  1  0  0  0  0
 12 34  1  0  0  0  0
 13 14  1  0  0  0  0
 13 15  2  0  0  0  0
 15  9  1  0  0  0  0
 15 35  1  0  0  0  0
 16 17  1  0  0  0  0
 16 36  1  0  0  0  0
 17 18  2  0  0  0  0
 18 19  1  0  0  0  0
 18  2  1  0  0  0  0
 19 20  1  0  0  0  0
 19 37  1  0  0  0  0
 20 21  2  0  0  0  0
 21 22  1  0  0  0  0
 21 38  1  0  0  0  0
 22 23  2  0  0  0  0
 22 39  1  0  0  0  0
 23 24  1  0  0  0  0
 23 40  1  0  0  0  0
 24 25  2  0  0  0  0
 24 41  1  0  0  0  0
 25 20  1  0  0  0  0
 25 17  1  0  0  0  0
M  END
>  <IDENTIFIER>
CNP0278953.0

>  <Energy>
359.739

$$$$
