
 OpenBabel09122510382D

170169  0  0  0  0  0  0  0  0999 V2000
  -10.3923    6.0000    0.0000 C   0  0  0  0  0  0  0  0  0  0  0  0
   -9.0933    5.2500    0.0000 C   0  0  0  0  0  0  0  0  0  0  0  0
   -7.7942    4.5000    0.0000 C   0  0  0  0  0  0  0  0  0  0  0  0
   -6.4952    3.7500    0.0000 C   0  0  0  0  0  0  0  0  0  0  0  0
   -5.1962    3.0000    0.0000 C   0  0  0  0  0  0  0  0  0  0  0  0
   -3.6939    3.4241    0.2762 C   0  0  0  0  0  0  0  0  0  0  0  0
   -2.7407    2.1540    0.1011 C   0  0  0  0  0  0  0  0  0  0  0  0
   -1.1731    2.3017    0.2378 C   0  0  0  0  0  0  0  0  0  0  0  0
   -0.4222    0.9395    0.0939 C   0  0  0  0  0  0  0  0  0  0  0  0
    0.9411    0.7458    0.1697 C   0  0  0  0  0  0  0  0  0  0  0  0
    1.5880   -0.6683    0.0266 C   0  0  0  0  0  0  0  0  0  0  0  0
    3.1330   -0.7730    0.1509 C   0  0  0  0  0  0  0  0  0  0  0  0
    3.8552   -1.9522    0.0451 C   0  0  0  0  0  0  0  0  0  0  0  0
    5.3984   -1.9613    0.1846 C   0  0  0  0  0  0  0  0  0  0  0  0
    6.3126   -3.2443    0.0182 C   0  0  0  0  0  0  0  0  0  0  0  0
    7.6698   -3.0252    0.1227 C   0  0  0  0  0  0  0  0  0  0  0  0
    9.0933   -3.7500    0.0000 C   0  0  0  0  0  0  0  0  0  0  0  0
   10.3923   -4.5000    0.0000 C   0  0  0  0  0  0  0  0  0  0  0  0
   11.6913   -5.2500    0.0000 C   0  0  0  0  0  0  0  0  0  0  0  0
   13.0673   -6.1477    0.0644 C   0  0  0  0  0  0  0  0  0  0  0  0
   12.9973   -7.2368   -0.4993 O   0  0  0  0  0  0  0  0  0  0  0  0
   14.3187   -5.8955    0.6850 O   0  0  0  0  0  0  0  0  0  0  0  0
   15.5885   -6.0000    0.0000 C   0  0  0  0  0  0  0  0  0  0  0  0
   16.8875   -6.7500    0.0000 C   0  0  3  0  0  3  0  0  0  0  0  0
   18.1865   -7.5000    0.0000 C   0  0  0  0  0  0  0  0  0  0  0  0
   19.4475   -6.8507    0.1306 O   0  0  0  0  0  0  0  0  0  0  0  0
   20.8092   -7.3096    0.1367 C   0  0  0  0  0  0  0  0  0  0  0  0
   21.6484   -6.4290    0.2310 O   0  0  0  0  0  0  0  0  0  0  0  0
   21.4303   -8.7966    0.0456 C   0  0  0  0  0  0  0  0  0  0  0  0
   23.0859   -8.9630    0.0755 C   0  0  0  0  0  0  0  0  0  0  0  0
   23.8016  -10.4435    0.0145 C   0  0  0  0  0  0  0  0  0  0  0  0
   25.4153  -10.6980    0.0319 C   0  0  0  0  0  0  0  0  0  0  0  0
   25.9808  -12.0000    0.0000 C   0  0  0  0  0  0  0  0  0  0  0  0
   27.2798  -12.7500    0.0000 C   0  0  0  0  0  0  0  0  0  0  0  0
   28.5788  -13.5000    0.0000 C   0  0  0  0  0  0  0  0  0  0  0  0
   29.8657  -13.1321    0.0117 C   0  0  0  0  0  0  0  0  0  0  0  0
   30.6831  -14.3626    0.0036 C   0  0  0  0  0  0  0  0  0  0  0  0
   32.1599  -14.4558    0.0103 C   0  0  0  0  0  0  0  0  0  0  0  0
   32.4760  -15.7500    0.0000 C   0  0  0  0  0  0  0  0  0  0  0  0
   33.7750  -16.5000    0.0000 C   0  0  0  0  0  2  0  0  0  0  0  0
   35.0740  -17.2500    0.0000 C   0  0  0  0  0  0  0  0  0  0  0  0
   36.3731  -18.0000    0.0000 C   0  0  0  0  0  0  0  0  0  0  0  0
   37.6721  -18.7500    0.0000 C   0  0  0  0  0  2  0  0  0  0  0  0
   38.9711  -19.5000    0.0000 C   0  0  0  0  0  0  0  0  0  0  0  0
   40.6816  -19.5404   -0.2017 C   0  0  0  0  0  0  0  0  0  0  0  0
   41.5692  -21.0000    0.0000 C   0  0  0  0  0  0  0  0  0  0  0  0
   42.8683  -21.7500    0.0000 C   0  0  0  0  0  0  0  0  0  0  0  0
   16.0843   -8.0111    0.1195 O   0  0  0  0  0  0  0  0  0  0  0  0
   15.9492   -9.2535   -0.6034 C   0  0  0  0  0  0  0  0  0  0  0  0
   16.6624   -9.4436   -1.5750 O   0  0  0  0  0  0  0  0  0  0  0  0
   14.8647  -10.4360   -0.3489 C   0  0  0  0  0  0  0  0  0  0  0  0
   15.3875  -11.9462    0.0000 C   0  0  0  0  0  0  0  0  0  0  0  0
   14.6375  -13.2452    0.0000 C   0  0  0  0  0  0  0  0  0  0  0  0
   13.8875  -14.5442    0.0000 C   0  0  0  0  0  0  0  0  0  0  0  0
   13.1375  -15.8433    0.0000 C   0  0  0  0  0  0  0  0  0  0  0  0
   12.3875  -17.1423    0.0000 C   0  0  0  0  0  2  0  0  0  0  0  0
   11.6375  -18.4413    0.0000 C   0  0  0  0  0  0  0  0  0  0  0  0
   11.2822  -20.0804    0.1119 C   0  0  0  0  0  0  0  0  0  0  0  0
    9.7200  -20.6992   -0.1560 C   0  0  0  0  0  0  0  0  0  0  0  0
    9.3875  -22.3385    0.0000 C   0  0  0  0  0  0  0  0  0  0  0  0
    8.6375  -23.6375    0.0000 C   0  0  0  0  0  0  0  0  0  0  0  0
    7.8875  -24.9365    0.0000 C   0  0  0  0  0  0  0  0  0  0  0  0
    7.1375  -26.2356    0.0000 C   0  0  0  0  0  0  0  0  0  0  0  0
    6.3875  -27.5346    0.0000 C   0  0  0  0  0  2  0  0  0  0  0  0
    5.6375  -28.8336    0.0000 C   0  0  0  0  0  0  0  0  0  0  0  0
    5.2852  -30.4749   -0.0897 C   0  0  0  0  0  0  0  0  0  0  0  0
    3.7190  -31.0916    0.1616 C   0  0  0  0  0  0  0  0  0  0  0  0
    3.3875  -32.7308    0.0000 C   0  0  0  0  0  0  0  0  0  0  0  0
    2.6375  -34.0298    0.0000 C   0  0  0  0  0  0  0  0  0  0  0  0
  -10.3480    6.3343   -1.0634 H   0  0  0  0  0  0  0  0  0  0  0  0
  -11.1541    5.1915    0.2013 H   0  0  0  0  0  0  0  0  0  0  0  0
  -11.3189    6.5350    0.0000 H   0  0  0  0  0  0  0  0  0  0  0  0
   -9.5447    4.4300   -0.6460 H   0  0  0  0  0  0  0  0  0  0  0  0
   -9.2730    4.9552    1.0711 H   0  0  0  0  0  0  0  0  0  0  0  0
   -7.3797    5.4296    0.5118 H   0  0  0  0  0  0  0  0  0  0  0  0
   -7.6859    4.6586   -1.1197 H   0  0  0  0  0  0  0  0  0  0  0  0
   -5.8541    4.5846   -0.4257 H   0  0  0  0  0  0  0  0  0  0  0  0
   -6.4790    3.7454    1.1230 H   0  0  0  0  0  0  0  0  0  0  0  0
   -5.1587    2.5872   -1.0355 H   0  0  0  0  0  0  0  0  0  0  0  0
   -5.3607    2.0894    0.6297 H   0  0  0  0  0  0  0  0  0  0  0  0
   -3.4003    4.2120   -0.4506 H   0  0  0  0  0  0  0  0  0  0  0  0
   -3.5932    3.8271    1.3054 H   0  0  0  0  0  0  0  0  0  0  0  0
   -3.0623    1.4021    0.8533 H   0  0  0  0  0  0  0  0  0  0  0  0
   -2.9274    1.7272   -0.9083 H   0  0  0  0  0  0  0  0  0  0  0  0
   -0.8114    3.0015   -0.5467 H   0  0  0  0  0  0  0  0  0  0  0  0
   -0.9382    2.7356    1.2323 H   0  0  0  0  0  0  0  0  0  0  0  0
   -1.0361    0.0605   -0.0751 H   0  0  0  0  0  0  0  0  0  0  0  0
    1.5839    1.6055    0.3390 H   0  0  0  0  0  0  0  0  0  0  0  0
    1.3007   -1.0713   -0.9669 H   0  0  0  0  0  0  0  0  0  0  0  0
    1.1491   -1.3163    0.8134 H   0  0  0  0  0  0  0  0  0  0  0  0
    3.6808    0.1485    0.3326 H   0  0  0  0  0  0  0  0  0  0  0  0
    3.3350   -2.8847   -0.1429 H   0  0  0  0  0  0  0  0  0  0  0  0
    5.6176   -1.5355    1.1885 H   0  0  0  0  0  0  0  0  0  0  0  0
    5.7580   -1.2342   -0.5777 H   0  0  0  0  0  0  0  0  0  0  0  0
    5.9044   -4.2229   -0.2072 H   0  0  0  0  0  0  0  0  0  0  0  0
    7.8033   -1.9553    0.3375 H   0  0  0  0  0  0  0  0  0  0  0  0
    9.5677   -2.7302    0.1457 H   0  0  0  0  0  0  0  0  0  0  0  0
    8.8818   -3.9900   -1.0692 H   0  0  0  0  0  0  0  0  0  0  0  0
   10.9236   -3.7641   -0.6967 H   0  0  0  0  0  0  0  0  0  0  0  0
   10.5634   -4.2147    1.0786 H   0  0  0  0  0  0  0  0  0  0  0  0
   11.2082   -6.0650    0.6008 H   0  0  0  0  0  0  0  0  0  0  0  0
   11.5828   -5.5485   -1.0835 H   0  0  0  0  0  0  0  0  0  0  0  0
   15.3183   -6.0789   -1.0803 H   0  0  0  0  0  0  0  0  0  0  0  0
   15.9757   -4.9615    0.0496 H   0  0  0  0  0  0  0  0  0  0  0  0
   18.2839   -8.0141   -0.9698 H   0  0  0  0  0  0  0  0  0  0  0  0
   18.1931   -8.2603    0.8196 H   0  0  0  0  0  0  0  0  0  0  0  0
   21.0644   -9.2565   -0.8957 H   0  0  0  0  0  0  0  0  0  0  0  0
   21.0190   -9.3796    0.8956 H   0  0  0  0  0  0  0  0  0  0  0  0
   23.4850   -8.3783   -0.7798 H   0  0  0  0  0  0  0  0  0  0  0  0
   23.4436   -8.4777    1.0078 H   0  0  0  0  0  0  0  0  0  0  0  0
   23.3907  -11.0098    0.8767 H   0  0  0  0  0  0  0  0  0  0  0  0
   23.4226  -10.9275   -0.9100 H   0  0  0  0  0  0  0  0  0  0  0  0
   26.0770   -9.8399    0.0730 H   0  0  0  0  0  0  0  0  0  0  0  0
   25.1920  -12.7455   -0.0329 H   0  0  0  0  0  0  0  0  0  0  0  0
   27.5850  -12.2003   -0.9169 H   0  0  0  0  0  0  0  0  0  0  0  0
   27.5644  -12.2378    0.9448 H   0  0  0  0  0  0  0  0  0  0  0  0
   28.3202  -14.5623   -0.0131 H   0  0  0  0  0  0  0  0  0  0  0  0
   30.2293  -12.1101    0.0243 H   0  0  0  0  0  0  0  0  0  0  0  0
   30.3647  -14.9105   -0.9243 H   0  0  0  0  0  0  0  0  0  0  0  0
   30.3549  -14.9282    0.9173 H   0  0  0  0  0  0  0  0  0  0  0  0
   32.8659  -13.6323    0.0214 H   0  0  0  0  0  0  0  0  0  0  0  0
   31.6862  -16.5057   -0.0108 H   0  0  0  0  0  0  0  0  0  0  0  0
   34.7049  -17.8057    0.8959 H   0  0  0  0  0  0  0  0  0  0  0  0
   34.7049  -17.8057   -0.8960 H   0  0  0  0  0  0  0  0  0  0  0  0
   36.7422  -17.4444    0.8960 H   0  0  0  0  0  0  0  0  0  0  0  0
   36.7422  -17.4443   -0.8959 H   0  0  0  0  0  0  0  0  0  0  0  0
   38.6927  -20.3064   -0.7097 H   0  0  0  0  0  0  0  0  0  0  0  0
   38.8942  -19.9675    1.0034 H   0  0  0  0  0  0  0  0  0  0  0  0
   40.8999  -19.1620   -1.2217 H   0  0  0  0  0  0  0  0  0  0  0  0
   41.1039  -18.8091    0.5197 H   0  0  0  0  0  0  0  0  0  0  0  0
   41.1678  -21.2450    1.0152 H   0  0  0  0  0  0  0  0  0  0  0  0
   40.9865  -21.6287   -0.7114 H   0  0  0  0  0  0  0  0  0  0  0  0
   42.4862  -22.7417    0.3466 H   0  0  0  0  0  0  0  0  0  0  0  0
   43.3333  -21.1669    0.8258 H   0  0  0  0  0  0  0  0  0  0  0  0
   43.7950  -22.2850    0.0000 H   0  0  0  0  0  0  0  0  0  0  0  0
   14.1486  -10.1250    0.4409 H   0  0  0  0  0  0  0  0  0  0  0  0
   14.2925  -10.5123   -1.2977 H   0  0  0  0  0  0  0  0  0  0  0  0
   16.3412  -12.0708   -0.5793 H   0  0  0  0  0  0  0  0  0  0  0  0
   15.7391  -11.7878    1.0486 H   0  0  0  0  0  0  0  0  0  0  0  0
   15.4926  -13.7798    0.4935 H   0  0  0  0  0  0  0  0  0  0  0  0
   14.8037  -13.3157   -1.1105 H   0  0  0  0  0  0  0  0  0  0  0  0
   13.5354  -14.3168    1.0440 H   0  0  0  0  0  0  0  0  0  0  0  0
   13.0569  -14.1137   -0.6320 H   0  0  0  0  0  0  0  0  0  0  0  0
   13.8514  -16.3120    0.7219 H   0  0  0  0  0  0  0  0  0  0  0  0
   13.5140  -16.1029   -1.0197 H   0  0  0  0  0  0  0  0  0  0  0  0
   11.1961  -18.2980   -1.0083 H   0  0  0  0  0  0  0  0  0  0  0  0
   10.8611  -18.1074    0.7196 H   0  0  0  0  0  0  0  0  0  0  0  0
   11.5848  -20.4013    1.1305 H   0  0  0  0  0  0  0  0  0  0  0  0
   11.9509  -20.5995   -0.6069 H   0  0  0  0  0  0  0  0  0  0  0  0
    9.0361  -20.1672    0.5386 H   0  0  0  0  0  0  0  0  0  0  0  0
    9.4340  -20.4063   -1.1878 H   0  0  0  0  0  0  0  0  0  0  0  0
   10.2646  -22.6582   -0.6184 H   0  0  0  0  0  0  0  0  0  0  0  0
    9.7848  -22.4171    1.0423 H   0  0  0  0  0  0  0  0  0  0  0  0
    7.8436  -23.0232    0.5329 H   0  0  0  0  0  0  0  0  0  0  0  0
    8.5163  -23.5624   -1.1159 H   0  0  0  0  0  0  0  0  0  0  0  0
    7.9055  -24.9433    1.1277 H   0  0  0  0  0  0  0  0  0  0  0  0
    6.8976  -24.4966   -0.3508 H   0  0  0  0  0  0  0  0  0  0  0  0
    7.2504  -26.3539   -1.1084 H   0  0  0  0  0  0  0  0  0  0  0  0
    8.0016  -26.8123    0.4204 H   0  0  0  0  0  0  0  0  0  0  0  0
    4.8776  -28.5115   -0.7422 H   0  0  0  0  0  0  0  0  0  0  0  0
    5.1733  -28.6745    0.9956 H   0  0  0  0  0  0  0  0  0  0  0  0
    5.9408  -30.9824    0.6490 H   0  0  0  0  0  0  0  0  0  0  0  0
    5.6067  -30.8113   -1.0976 H   0  0  0  0  0  0  0  0  0  0  0  0
    3.4130  -30.7903    1.1852 H   0  0  0  0  0  0  0  0  0  0  0  0
    3.0495  -30.5626   -0.5498 H   0  0  0  0  0  0  0  0  0  0  0  0
    3.8082  -32.7685   -1.0376 H   0  0  0  0  0  0  0  0  0  0  0  0
    4.2001  -33.0490    0.6935 H   0  0  0  0  0  0  0  0  0  0  0  0
    1.9058  -33.7414   -0.7881 H   0  0  0  0  0  0  0  0  0  0  0  0
    3.4419  -34.7046   -0.3899 H   0  0  0  0  0  0  0  0  0  0  0  0
    2.1025  -34.9564    0.0000 H   0  0  0  0  0  0  0  0  0  0  0  0
  1  2  1  0  0  0  0
  1 70  1  0  0  0  0
  1 71  1  0  0  0  0
  1 72  1  0  0  0  0
  2  3  1  0  0  0  0
  2 73  1  0  0  0  0
  2 74  1  0  0  0  0
  3  4  1  0  0  0  0
  3 75  1  0  0  0  0
  3 76  1  0  0  0  0
  4  5  1  0  0  0  0
  4 77  1  0  0  0  0
  4 78  1  0  0  0  0
  5  6  1  0  0  0  0
  5 79  1  0  0  0  0
  5 80  1  0  0  0  0
  6  7  1  0  0  0  0
  6 81  1  0  0  0  0
  6 82  1  0  0  0  0
  7  8  1  0  0  0  0
  7 83  1  0  0  0  0
  7 84  1  0  0  0  0
  8  9  1  0  0  0  0
  8 85  1  0  0  0  0
  8 86  1  0  0  0  0
  9 10  2  3  0  0  0
  9 87  1  0  0  0  0
 10 11  1  0  0  0  0
 10 88  1  0  0  0  0
 11 12  1  0  0  0  0
 11 89  1  0  0  0  0
 11 90  1  0  0  0  0
 12 13  2  3  0  0  0
 12 91  1  0  0  0  0
 13 14  1  0  0  0  0
 13 92  1  0  0  0  0
 14 15  1  0  0  0  0
 14 93  1  0  0  0  0
 14 94  1  0  0  0  0
 15 16  2  3  0  0  0
 15 95  1  0  0  0  0
 16 17  1  0  0  0  0
 16 96  1  0  0  0  0
 17 18  1  0  0  0  0
 17 97  1  0  0  0  0
 17 98  1  0  0  0  0
 18 19  1  0  0  0  0
 18 99  1  0  0  0  0
 18100  1  0  0  0  0
 19 20  1  0  0  0  0
 19101  1  0  0  0  0
 19102  1  0  0  0  0
 20 21  2  0  0  0  0
 20 22  1  0  0  0  0
 22 23  1  0  0  0  0
 23 24  1  0  0  0  0
 23103  1  0  0  0  0
 23104  1  0  0  0  0
 24 25  1  0  0  0  0
 24 48  1  0  0  0  0
 25 26  1  0  0  0  0
 25105  1  0  0  0  0
 25106  1  0  0  0  0
 26 27  1  0  0  0  0
 27 28  2  0  0  0  0
 27 29  1  0  0  0  0
 29 30  1  0  0  0  0
 29107  1  0  0  0  0
 29108  1  0  0  0  0
 30 31  1  0  0  0  0
 30109  1  0  0  0  0
 30110  1  0  0  0  0
 31 32  1  0  0  0  0
 31111  1  0  0  0  0
 31112  1  0  0  0  0
 32 33  2  3  0  0  0
 32113  1  0  0  0  0
 33 34  1  0  0  0  0
 33114  1  0  0  0  0
 34 35  1  0  0  0  0
 34115  1  0  0  0  0
 34116  1  0  0  0  0
 35 36  2  3  0  0  0
 35117  1  0  0  0  0
 36 37  1  0  0  0  0
 36118  1  0  0  0  0
 37 38  1  0  0  0  0
 37119  1  0  0  0  0
 37120  1  0  0  0  0
 38 39  2  3  0  0  0
 38121  1  0  0  0  0
 39 40  1  0  0  0  0
 39122  1  0  0  0  0
 40 41  1  0  0  0  0
 41 42  1  0  0  0  0
 41123  1  0  0  0  0
 41124  1  0  0  0  0
 42 43  1  0  0  0  0
 42125  1  0  0  0  0
 42126  1  0  0  0  0
 43 44  1  0  0  0  0
 44 45  1  0  0  0  0
 44127  1  0  0  0  0
 44128  1  0  0  0  0
 45 46  1  0  0  0  0
 45129  1  0  0  0  0
 45130  1  0  0  0  0
 46 47  1  0  0  0  0
 46131  1  0  0  0  0
 46132  1  0  0  0  0
 47133  1  0  0  0  0
 47134  1  0  0  0  0
 47135  1  0  0  0  0
 48 49  1  0  0  0  0
 49 50  2  0  0  0  0
 49 51  1  0  0  0  0
 51 52  1  0  0  0  0
 51136  1  0  0  0  0
 51137  1  0  0  0  0
 52 53  1  0  0  0  0
 52138  1  0  0  0  0
 52139  1  0  0  0  0
 53 54  1  0  0  0  0
 53140  1  0  0  0  0
 53141  1  0  0  0  0
 54 55  1  0  0  0  0
 54142  1  0  0  0  0
 54143  1  0  0  0  0
 55 56  1  0  0  0  0
 55144  1  0  0  0  0
 55145  1  0  0  0  0
 56 57  1  0  0  0  0
 57 58  1  0  0  0  0
 57146  1  0  0  0  0
 57147  1  0  0  0  0
 58 59  1  0  0  0  0
 58148  1  0  0  0  0
 58149  1  0  0  0  0
 59 60  1  0  0  0  0
 59150  1  0  0  0  0
 59151  1  0  0  0  0
 60 61  1  0  0  0  0
 60152  1  0  0  0  0
 60153  1  0  0  0  0
 61 62  1  0  0  0  0
 61154  1  0  0  0  0
 61155  1  0  0  0  0
 62 63  1  0  0  0  0
 62156  1  0  0  0  0
 62157  1  0  0  0  0
 63 64  1  0  0  0  0
 63158  1  0  0  0  0
 63159  1  0  0  0  0
 64 65  1  0  0  0  0
 65 66  1  0  0  0  0
 65160  1  0  0  0  0
 65161  1  0  0  0  0
 66 67  1  0  0  0  0
 66162  1  0  0  0  0
 66163  1  0  0  0  0
 67 68  1  0  0  0  0
 67164  1  0  0  0  0
 67165  1  0  0  0  0
 68 69  1  0  0  0  0
 68166  1  0  0  0  0
 68167  1  0  0  0  0
 69168  1  0  0  0  0
 69169  1  0  0  0  0
 69170  1  0  0  0  0
M  END
>  <IDENTIFIER>
CNP0481690.0

>  <Energy>
11807.4

$$$$
