
 OpenBabel09062516043D

 16 17  0  0  0  0  0  0  0  0999 V2000
   -2.3185    0.7561   -0.0681 C   0  0  0  0  0  0  0  0  0  0  0  0
   -1.1438    1.3858   -0.0209 C   0  0  0  0  0  0  0  0  0  0  0  0
    0.0959    0.6790    0.0116 N   0  0  0  0  0  0  0  0  0  0  0  0
    1.3157    1.2482    0.0613 C   0  0  0  0  0  0  0  0  0  0  0  0
    2.2847    0.2652    0.0796 C   0  0  0  0  0  0  0  0  0  0  0  0
    1.6215   -0.9453    0.0388 C   0  0  0  0  0  0  0  0  0  0  0  0
    0.2714   -0.6527   -0.0025 C   0  0  0  0  0  0  0  0  0  0  0  0
   -0.8154   -1.6782   -0.0556 C   0  0  0  0  0  0  0  0  0  0  0  0
   -2.5352   -1.0366   -0.0968 S   0  0  0  0  0  0  0  0  0  0  0  0
   -3.2217    1.3573   -0.0909 H   0  0  0  0  0  0  0  0  0  0  0  0
   -1.1347    2.4724   -0.0069 H   0  0  0  0  0  0  0  0  0  0  0  0
    1.4966    2.3155    0.0833 H   0  0  0  0  0  0  0  0  0  0  0  0
    3.3553    0.4140    0.1182 H   0  0  0  0  0  0  0  0  0  0  0  0
    2.0730   -1.9287    0.0392 H   0  0  0  0  0  0  0  0  0  0  0  0
   -0.7177   -2.3206    0.8444 H   0  0  0  0  0  0  0  0  0  0  0  0
   -0.6604   -2.2883   -0.9699 H   0  0  0  0  0  0  0  0  0  0  0  0
  1  2  2  0  0  0  0
  1 10  1  0  0  0  0
  2  3  1  0  0  0  0
  2 11  1  0  0  0  0
  3  4  1  0  0  0  0
  4  5  2  0  0  0  0
  4 12  1  0  0  0  0
  5  6  1  0  0  0  0
  5 13  1  0  0  0  0
  6  7  2  0  0  0  0
  6 14  1  0  0  0  0
  7  8  1  0  0  0  0
  7  3  1  0  0  0  0
  8  9  1  0  0  0  0
  8 15  1  0  0  0  0
  8 16  1  0  0  0  0
  9  1  1  0  0  0  0
M  END
>  <IDENTIFIER>
CNP0386414.0

>  <Energy>
221.28

$$$$
