
 OpenBabel09042519453D

 28 28  0  0  0  0  0  0  0  0999 V2000
   -1.7957   -2.1484   -0.0167 C   0  0  0  0  0  0  0  0  0  0  0  0
   -2.2284   -0.6939   -0.2530 C   0  0  0  0  0  0  0  0  0  0  0  0
   -1.1777    0.3378   -0.1982 N   0  0  0  0  0  0  0  0  0  0  0  0
   -1.6174    1.7351   -0.1434 C   0  0  0  0  0  0  0  0  0  0  0  0
   -2.3156    2.0798    1.1750 C   0  0  0  0  0  0  0  0  0  0  0  0
    0.2398    0.0684   -0.2275 C   0  0  0  0  0  0  0  0  0  0  0  0
    1.1153    0.8091    0.5949 C   0  0  0  0  0  0  0  0  0  0  0  0
    2.4926    0.5766    0.5767 C   0  0  0  0  0  0  0  0  0  0  0  0
    3.0366   -0.3935   -0.2726 C   0  0  0  0  0  0  0  0  0  0  0  0
    4.4968   -0.6223   -0.2788 C   0  0  0  0  0  0  0  0  0  0  0  0
    5.0009   -1.4604   -1.0098 O   0  0  0  0  0  0  0  0  0  0  0  0
    2.1811   -1.1227   -1.1115 C   0  0  0  0  0  0  0  0  0  0  0  0
    0.8022   -0.8913   -1.0924 C   0  0  0  0  0  0  0  0  0  0  0  0
   -2.7075   -2.7765    0.0753 H   0  0  0  0  0  0  0  0  0  0  0  0
   -1.2217   -2.2317    0.9302 H   0  0  0  0  0  0  0  0  0  0  0  0
   -1.2300   -2.5929   -0.8487 H   0  0  0  0  0  0  0  0  0  0  0  0
   -2.9308   -0.5099    0.5831 H   0  0  0  0  0  0  0  0  0  0  0  0
   -2.8036   -0.6041   -1.1994 H   0  0  0  0  0  0  0  0  0  0  0  0
   -2.2947    1.9456   -0.9988 H   0  0  0  0  0  0  0  0  0  0  0  0
   -0.7558    2.4284   -0.2507 H   0  0  0  0  0  0  0  0  0  0  0  0
   -3.2543    1.5089    1.3115 H   0  0  0  0  0  0  0  0  0  0  0  0
   -2.5808    3.1579    1.1768 H   0  0  0  0  0  0  0  0  0  0  0  0
   -1.6360    1.8809    2.0303 H   0  0  0  0  0  0  0  0  0  0  0  0
    0.7344    1.5632    1.2702 H   0  0  0  0  0  0  0  0  0  0  0  0
    3.1346    1.1574    1.2278 H   0  0  0  0  0  0  0  0  0  0  0  0
    5.1395   -0.0398    0.3745 H   0  0  0  0  0  0  0  0  0  0  0  0
    2.5786   -1.8659   -1.7917 H   0  0  0  0  0  0  0  0  0  0  0  0
    0.1967   -1.4427   -1.7898 H   0  0  0  0  0  0  0  0  0  0  0  0
  1  2  1  0  0  0  0
  1 14  1  0  0  0  0
  1 15  1  0  0  0  0
  1 16  1  0  0  0  0
  2  3  1  0  0  0  0
  2 17  1  0  0  0  0
  2 18  1  0  0  0  0
  3  4  1  0  0  0  0
  3  6  1  0  0  0  0
  4  5  1  0  0  0  0
  4 19  1  0  0  0  0
  4 20  1  0  0  0  0
  5 21  1  0  0  0  0
  5 22  1  0  0  0  0
  5 23  1  0  0  0  0
  6  7  2  0  0  0  0
  7  8  1  0  0  0  0
  7 24  1  0  0  0  0
  8  9  2  0  0  0  0
  8 25  1  0  0  0  0
  9 10  1  0  0  0  0
  9 12  1  0  0  0  0
 10 11  2  0  0  0  0
 10 26  1  0  0  0  0
 12 13  2  0  0  0  0
 12 27  1  0  0  0  0
 13  6  1  0  0  0  0
 13 28  1  0  0  0  0
M  END
>  <IDENTIFIER>
CNP0196515.0

>  <Energy>
213.837

$$$$
