
 OpenBabel09092511322D

127126  0  0  0  0  0  0  0  0999 V2000
   16.8875    9.7500    0.0000 C   0  0  0  0  0  0  0  0  0  0  0  0
   15.5885    9.0000    0.0000 C   0  0  0  0  0  0  0  0  0  0  0  0
   13.9660    8.6281    0.2353 C   0  0  0  0  0  0  0  0  0  0  0  0
   13.2720    7.1908   -0.3632 C   0  0  0  0  0  0  0  0  0  0  0  0
   11.6913    6.7500    0.0000 C   0  0  0  0  0  0  0  0  0  0  0  0
   10.3923    6.0000    0.0000 C   0  0  0  0  0  0  0  0  0  0  0  0
    9.0933    5.2500    0.0000 C   0  0  0  0  0  0  0  0  0  0  0  0
    7.7942    4.5000    0.0000 C   0  0  0  0  0  0  0  0  0  0  0  0
    6.4952    3.7500    0.0000 C   0  0  0  0  0  0  0  0  0  0  0  0
    5.1962    3.0000    0.0000 C   0  0  0  0  0  0  0  0  0  0  0  0
    4.2230    2.0741    0.9539 C   0  0  0  0  0  0  0  0  0  0  0  0
    3.0394    1.2043    0.1705 C   0  0  0  0  0  0  0  0  0  0  0  0
    1.9536    0.2133    0.9307 C   0  0  0  0  0  0  0  0  0  0  0  0
    0.8614   -0.6360    0.0758 C   0  0  0  0  0  0  0  0  0  0  0  0
    0.9229   -0.5303   -1.1393 O   0  0  0  0  0  0  0  0  0  0  0  0
   -0.1702   -1.4810    0.6309 O   0  0  0  0  0  0  0  0  0  0  0  0
   -1.2990   -2.2500    0.0000 C   0  0  1  0  0  0  0  0  0  0  0  0
   -2.0490   -0.9510   -0.0000 C   0  0  0  0  0  0  0  0  0  0  0  0
   -2.8569   -0.0309    0.8195 O   0  0  0  0  0  0  0  0  0  0  0  0
   -3.9128    0.8134    0.2712 C   0  0  0  0  0  0  0  0  0  0  0  0
   -4.3786    0.4797   -0.8077 O   0  0  0  0  0  0  0  0  0  0  0  0
   -4.5652    2.2064    0.8673 C   0  0  0  0  0  0  0  0  0  0  0  0
   -5.7990    2.9462    0.0000 C   0  0  0  0  0  0  0  0  0  0  0  0
   -6.5490    4.2452    0.0000 C   0  0  0  0  0  0  0  0  0  0  0  0
   -7.2990    5.5442    0.0000 C   0  0  0  0  0  0  0  0  0  0  0  0
   -8.0490    6.8433    0.0000 C   0  0  0  0  0  0  0  0  0  0  0  0
   -8.7990    8.1423    0.0000 C   0  0  0  0  0  0  0  0  0  0  0  0
   -9.5490    9.4413    0.0000 C   0  0  0  0  0  0  0  0  0  0  0  0
   -0.5490   -3.5490    0.0000 C   0  0  0  0  0  0  0  0  0  0  0  0
   -0.2619   -4.9630   -0.2857 O   0  0  0  0  0  0  0  0  0  0  0  0
    1.0704   -5.5347   -0.1002 C   0  0  0  0  0  0  0  0  0  0  0  0
    1.9675   -4.7564    0.1898 O   0  0  0  0  0  0  0  0  0  0  0  0
    1.5718   -7.0935   -0.2161 C   0  0  0  0  0  0  0  0  0  0  0  0
    3.2010   -7.4462    0.0000 C   0  0  0  0  0  0  0  0  0  0  0  0
    3.9510   -8.7452    0.0000 C   0  0  0  0  0  0  0  0  0  0  0  0
    4.7010  -10.0442    0.0000 C   0  0  0  0  0  0  0  0  0  0  0  0
    5.4510  -11.3433    0.0000 C   0  0  0  0  0  0  0  0  0  0  0  0
    6.2010  -12.6423    0.0000 C   0  0  0  0  0  0  0  0  0  0  0  0
    6.9510  -13.9413    0.0000 C   0  0  0  0  0  0  0  0  0  0  0  0
    7.5113  -15.4490   -0.4842 C   0  0  0  0  0  0  0  0  0  0  0  0
    8.6342  -16.3214    0.4502 C   0  0  0  0  0  0  0  0  0  0  0  0
    9.2010  -17.8385    0.0000 C   0  0  0  0  0  0  0  0  0  0  0  0
    9.9510  -19.1375    0.0000 C   0  0  0  0  0  2  0  0  0  0  0  0
   10.7010  -20.4365    0.0000 C   0  0  0  0  0  0  0  0  0  0  0  0
   11.4510  -21.7356    0.0000 C   0  0  0  0  0  0  0  0  0  0  0  0
   12.2010  -23.0346    0.0000 C   0  0  0  0  0  2  0  0  0  0  0  0
   12.9510  -24.3336    0.0000 C   0  0  0  0  0  0  0  0  0  0  0  0
   13.7010  -25.6327    0.0000 C   0  0  0  0  0  0  0  0  0  0  0  0
   14.2500  -23.5836    0.0000 C   0  0  0  0  0  0  0  0  0  0  0  0
   17.5257    9.0103   -0.5479 H   0  0  0  0  0  0  0  0  0  0  0  0
   16.5412   10.5820   -0.6538 H   0  0  0  0  0  0  0  0  0  0  0  0
   17.8141   10.2850    0.0000 H   0  0  0  0  0  0  0  0  0  0  0  0
   15.9534    8.1080    0.5605 H   0  0  0  0  0  0  0  0  0  0  0  0
   15.5485    8.7225   -1.0845 H   0  0  0  0  0  0  0  0  0  0  0  0
   13.3725    9.4585   -0.2021 H   0  0  0  0  0  0  0  0  0  0  0  0
   13.7945    8.6490    1.3324 H   0  0  0  0  0  0  0  0  0  0  0  0
   13.3476    7.2543   -1.4687 H   0  0  0  0  0  0  0  0  0  0  0  0
   13.9163    6.3455   -0.0406 H   0  0  0  0  0  0  0  0  0  0  0  0
   11.8625    6.6825    1.1003 H   0  0  0  0  0  0  0  0  0  0  0  0
   11.3019    7.8035   -0.0801 H   0  0  0  0  0  0  0  0  0  0  0  0
   10.9570    5.0351    0.0473 H   0  0  0  0  0  0  0  0  0  0  0  0
   10.3283    6.4022   -1.0657 H   0  0  0  0  0  0  0  0  0  0  0  0
    8.5450    6.2338    0.0222 H   0  0  0  0  0  0  0  0  0  0  0  0
    9.1657    4.9299   -1.0976 H   0  0  0  0  0  0  0  0  0  0  0  0
    8.3408    3.5070   -0.1254 H   0  0  0  0  0  0  0  0  0  0  0  0
    7.7930    4.7082    1.1201 H   0  0  0  0  0  0  0  0  0  0  0  0
    5.9491    4.6630    0.3614 H   0  0  0  0  0  0  0  0  0  0  0  0
    6.7201    3.0511    0.8672 H   0  0  0  0  0  0  0  0  0  0  0  0
    4.4628    3.6211   -0.5738 H   0  0  0  0  0  0  0  0  0  0  0  0
    5.4705    2.2233   -0.7510 H   0  0  0  0  0  0  0  0  0  0  0  0
    3.7486    2.7327    1.7109 H   0  0  0  0  0  0  0  0  0  0  0  0
    4.8640    1.3422    1.4889 H   0  0  0  0  0  0  0  0  0  0  0  0
    3.5689    0.5667   -0.5684 H   0  0  0  0  0  0  0  0  0  0  0  0
    2.4364    1.9392   -0.4032 H   0  0  0  0  0  0  0  0  0  0  0  0
    2.5354   -0.5192    1.5274 H   0  0  0  0  0  0  0  0  0  0  0  0
    1.3860    0.8520    1.6390 H   0  0  0  0  0  0  0  0  0  0  0  0
   -2.0263   -2.6582    0.7480 H   0  0  0  0  0  0  0  0  0  0  0  0
   -2.8198   -1.3236   -0.7137 H   0  0  0  0  0  0  0  0  0  0  0  0
   -1.5320   -0.2684   -0.7146 H   0  0  0  0  0  0  0  0  0  0  0  0
   -4.9437    2.0131    1.8922 H   0  0  0  0  0  0  0  0  0  0  0  0
   -3.7296    2.9332    0.9425 H   0  0  0  0  0  0  0  0  0  0  0  0
   -5.3844    2.9040   -1.0392 H   0  0  0  0  0  0  0  0  0  0  0  0
   -6.5942    2.1646   -0.0203 H   0  0  0  0  0  0  0  0  0  0  0  0
   -5.4981    4.6841   -0.0096 H   0  0  0  0  0  0  0  0  0  0  0  0
   -6.8981    4.0168    1.0397 H   0  0  0  0  0  0  0  0  0  0  0  0
   -6.8428    5.7817   -1.0114 H   0  0  0  0  0  0  0  0  0  0  0  0
   -6.6261    6.0345    0.7835 H   0  0  0  0  0  0  0  0  0  0  0  0
   -8.4867    6.5891    1.0178 H   0  0  0  0  0  0  0  0  0  0  0  0
   -8.6948    6.3595   -0.8135 H   0  0  0  0  0  0  0  0  0  0  0  0
   -8.3739    8.3941   -1.0060 H   0  0  0  0  0  0  0  0  0  0  0  0
   -9.8325    7.6354    0.0332 H   0  0  0  0  0  0  0  0  0  0  0  0
  -10.2358    9.3332   -0.8917 H   0  0  0  0  0  0  0  0  0  0  0  0
  -10.0199    9.3733    1.0155 H   0  0  0  0  0  0  0  0  0  0  0  0
  -10.0840   10.3679    0.0000 H   0  0  0  0  0  0  0  0  0  0  0  0
    0.2674   -3.1697   -0.6628 H   0  0  0  0  0  0  0  0  0  0  0  0
   -0.2203   -3.6022    1.0779 H   0  0  0  0  0  0  0  0  0  0  0  0
    1.2890   -7.4621   -1.2239 H   0  0  0  0  0  0  0  0  0  0  0  0
    0.9986   -7.6764    0.5342 H   0  0  0  0  0  0  0  0  0  0  0  0
    3.4663   -6.9602    0.9675 H   0  0  0  0  0  0  0  0  0  0  0  0
    3.7131   -6.8248   -0.7694 H   0  0  0  0  0  0  0  0  0  0  0  0
    3.4314   -9.0141   -0.9569 H   0  0  0  0  0  0  0  0  0  0  0  0
    3.2926   -9.1122    0.8300 H   0  0  0  0  0  0  0  0  0  0  0  0
    5.2753   -9.6863    0.9032 H   0  0  0  0  0  0  0  0  0  0  0  0
    5.3580   -9.6601   -0.8369 H   0  0  0  0  0  0  0  0  0  0  0  0
    4.8033  -11.5912   -0.9051 H   0  0  0  0  0  0  0  0  0  0  0  0
    4.9068  -11.6586    0.9365 H   0  0  0  0  0  0  0  0  0  0  0  0
    5.2948  -13.3151   -0.1469 H   0  0  0  0  0  0  0  0  0  0  0  0
    6.6803  -12.3808   -0.9817 H   0  0  0  0  0  0  0  0  0  0  0  0
    6.6680  -14.2761    1.0311 H   0  0  0  0  0  0  0  0  0  0  0  0
    7.9703  -13.5168    0.1755 H   0  0  0  0  0  0  0  0  0  0  0  0
    7.9609  -15.3197   -1.4910 H   0  0  0  0  0  0  0  0  0  0  0  0
    6.6189  -16.0987   -0.6030 H   0  0  0  0  0  0  0  0  0  0  0  0
    9.5261  -15.6695    0.5613 H   0  0  0  0  0  0  0  0  0  0  0  0
    8.1863  -16.4377    1.4594 H   0  0  0  0  0  0  0  0  0  0  0  0
    8.2001  -18.3024   -0.1229 H   0  0  0  0  0  0  0  0  0  0  0  0
    9.5229  -17.5408   -1.0197 H   0  0  0  0  0  0  0  0  0  0  0  0
   11.2568  -20.0675   -0.8959 H   0  0  0  0  0  0  0  0  0  0  0  0
   11.2568  -20.0675    0.8959 H   0  0  0  0  0  0  0  0  0  0  0  0
   10.8956  -22.1048    0.8959 H   0  0  0  0  0  0  0  0  0  0  0  0
   10.8957  -22.1046   -0.8961 H   0  0  0  0  0  0  0  0  0  0  0  0
   12.4754  -24.4939   -1.0030 H   0  0  0  0  0  0  0  0  0  0  0  0
   12.8100  -26.2733    0.1910 H   0  0  0  0  0  0  0  0  0  0  0  0
   14.0328  -25.7279   -1.0755 H   0  0  0  0  0  0  0  0  0  0  0  0
   14.2360  -26.5594    0.0000 H   0  0  0  0  0  0  0  0  0  0  0  0
   14.2808  -23.1818    1.0511 H   0  0  0  0  0  0  0  0  0  0  0  0
   14.2542  -23.0169   -0.9777 H   0  0  0  0  0  0  0  0  0  0  0  0
   15.1766  -23.0486    0.0000 H   0  0  0  0  0  0  0  0  0  0  0  0
  1  2  1  0  0  0  0
  1 50  1  0  0  0  0
  1 51  1  0  0  0  0
  1 52  1  0  0  0  0
  2  3  1  0  0  0  0
  2 53  1  0  0  0  0
  2 54  1  0  0  0  0
  3  4  1  0  0  0  0
  3 55  1  0  0  0  0
  3 56  1  0  0  0  0
  4  5  1  0  0  0  0
  4 57  1  0  0  0  0
  4 58  1  0  0  0  0
  5  6  1  0  0  0  0
  5 59  1  0  0  0  0
  5 60  1  0  0  0  0
  6  7  1  0  0  0  0
  6 61  1  0  0  0  0
  6 62  1  0  0  0  0
  7  8  1  0  0  0  0
  7 63  1  0  0  0  0
  7 64  1  0  0  0  0
  8  9  1  0  0  0  0
  8 65  1  0  0  0  0
  8 66  1  0  0  0  0
  9 10  1  0  0  0  0
  9 67  1  0  0  0  0
  9 68  1  0  0  0  0
 10 11  1  0  0  0  0
 10 69  1  0  0  0  0
 10 70  1  0  0  0  0
 11 12  1  0  0  0  0
 11 71  1  0  0  0  0
 11 72  1  0  0  0  0
 12 13  1  0  0  0  0
 12 73  1  0  0  0  0
 12 74  1  0  0  0  0
 13 14  1  0  0  0  0
 13 75  1  0  0  0  0
 13 76  1  0  0  0  0
 14 15  2  0  0  0  0
 14 16  1  0  0  0  0
 16 17  1  0  0  0  0
 17 18  1  0  0  0  0
 17 29  1  0  0  0  0
 17 77  1  1  0  0  0
 18 19  1  0  0  0  0
 18 78  1  0  0  0  0
 18 79  1  0  0  0  0
 19 20  1  0  0  0  0
 20 21  2  0  0  0  0
 20 22  1  0  0  0  0
 22 23  1  0  0  0  0
 22 80  1  0  0  0  0
 22 81  1  0  0  0  0
 23 24  1  0  0  0  0
 23 82  1  0  0  0  0
 23 83  1  0  0  0  0
 24 25  1  0  0  0  0
 24 84  1  0  0  0  0
 24 85  1  0  0  0  0
 25 26  1  0  0  0  0
 25 86  1  0  0  0  0
 25 87  1  0  0  0  0
 26 27  1  0  0  0  0
 26 88  1  0  0  0  0
 26 89  1  0  0  0  0
 27 28  1  0  0  0  0
 27 90  1  0  0  0  0
 27 91  1  0  0  0  0
 28 92  1  0  0  0  0
 28 93  1  0  0  0  0
 28 94  1  0  0  0  0
 29 30  1  0  0  0  0
 29 95  1  0  0  0  0
 29 96  1  0  0  0  0
 30 31  1  0  0  0  0
 31 32  2  0  0  0  0
 31 33  1  0  0  0  0
 33 34  1  0  0  0  0
 33 97  1  0  0  0  0
 33 98  1  0  0  0  0
 34 35  1  0  0  0  0
 34 99  1  0  0  0  0
 34100  1  0  0  0  0
 35 36  1  0  0  0  0
 35101  1  0  0  0  0
 35102  1  0  0  0  0
 36 37  1  0  0  0  0
 36103  1  0  0  0  0
 36104  1  0  0  0  0
 37 38  1  0  0  0  0
 37105  1  0  0  0  0
 37106  1  0  0  0  0
 38 39  1  0  0  0  0
 38107  1  0  0  0  0
 38108  1  0  0  0  0
 39 40  1  0  0  0  0
 39109  1  0  0  0  0
 39110  1  0  0  0  0
 40 41  1  0  0  0  0
 40111  1  0  0  0  0
 40112  1  0  0  0  0
 41 42  1  0  0  0  0
 41113  1  0  0  0  0
 41114  1  0  0  0  0
 42 43  1  0  0  0  0
 42115  1  0  0  0  0
 42116  1  0  0  0  0
 43 44  1  0  0  0  0
 44 45  1  0  0  0  0
 44117  1  0  0  0  0
 44118  1  0  0  0  0
 45 46  1  0  0  0  0
 45119  1  0  0  0  0
 45120  1  0  0  0  0
 46 47  1  0  0  0  0
 47 48  1  0  0  0  0
 47 49  1  0  0  0  0
 47121  1  0  0  0  0
 48122  1  0  0  0  0
 48123  1  0  0  0  0
 48124  1  0  0  0  0
 49125  1  0  0  0  0
 49126  1  0  0  0  0
 49127  1  0  0  0  0
M  END
>  <IDENTIFIER>
CNP0512271.1

>  <Energy>
11440.2

$$$$
