
 OpenBabel09072521413D

 38 40  0  0  0  0  0  0  0  0999 V2000
   -4.0728   -2.9952   -1.7304 C   0  0  0  0  0  0  0  0  0  0  0  0
   -4.2777   -1.8063   -1.0604 O   0  0  0  0  0  0  0  0  0  0  0  0
   -3.3139   -0.9740   -0.5785 C   0  0  0  0  0  0  0  0  0  0  0  0
   -1.9379   -1.2577   -0.7061 C   0  0  0  0  0  0  0  0  0  0  0  0
   -0.9427   -0.3851   -0.2093 C   0  0  0  0  0  0  0  0  0  0  0  0
    0.5701   -0.5856   -0.2925 C   0  0  0  0  0  0  0  0  0  0  0  0
    1.3303   -1.6586   -0.8926 C   0  0  0  0  0  0  0  0  0  0  0  0
    0.8388   -2.7397   -1.5390 O   0  0  0  0  0  0  0  0  0  0  0  0
    2.7350   -1.6084   -0.8250 C   0  0  0  0  0  0  0  0  0  0  0  0
    3.3932   -2.5078   -1.3257 O   0  0  0  0  0  0  0  0  0  0  0  0
    3.3797   -0.5406   -0.1976 C   0  0  0  0  0  0  0  0  0  0  0  0
    4.7826   -0.4487   -0.1127 C   0  0  0  0  0  0  0  0  0  0  0  0
    5.3769    0.6449    0.5228 C   0  0  0  0  0  0  0  0  0  0  0  0
    4.5797    1.6555    1.0790 C   0  0  0  0  0  0  0  0  0  0  0  0
    5.1402    2.7166    1.6937 O   0  0  0  0  0  0  0  0  0  0  0  0
    3.1857    1.5631    0.9957 C   0  0  0  0  0  0  0  0  0  0  0  0
    2.5867    0.4694    0.3596 C   0  0  0  0  0  0  0  0  0  0  0  0
    1.2663    0.3978    0.2880 O   0  0  0  0  0  0  0  0  0  0  0  0
   -1.4046    0.7929    0.4353 C   0  0  0  0  0  0  0  0  0  0  0  0
   -2.7746    1.0889    0.5753 C   0  0  0  0  0  0  0  0  0  0  0  0
   -3.2136    2.2176    1.1963 O   0  0  0  0  0  0  0  0  0  0  0  0
   -2.4262    3.1963    1.7664 C   0  0  0  0  0  0  0  0  0  0  0  0
   -3.7240    0.1968    0.0614 C   0  0  0  0  0  0  0  0  0  0  0  0
   -5.0473    0.4491    0.1750 O   0  0  0  0  0  0  0  0  0  0  0  0
   -5.0556   -3.4352   -1.9962 H   0  0  0  0  0  0  0  0  0  0  0  0
   -3.5282   -3.7136   -1.0814 H   0  0  0  0  0  0  0  0  0  0  0  0
   -3.5024   -2.8150   -2.6667 H   0  0  0  0  0  0  0  0  0  0  0  0
   -1.7102   -2.1603   -1.1912 H   0  0  0  0  0  0  0  0  0  0  0  0
   -0.0539   -2.9808   -1.7592 H   0  0  0  0  0  0  0  0  0  0  0  0
    5.4190   -1.2166   -0.5360 H   0  0  0  0  0  0  0  0  0  0  0  0
    6.4564    0.7061    0.5814 H   0  0  0  0  0  0  0  0  0  0  0  0
    6.0998    2.8176    1.7706 H   0  0  0  0  0  0  0  0  0  0  0  0
    2.5675    2.3426    1.4244 H   0  0  0  0  0  0  0  0  0  0  0  0
   -0.6957    1.4994    0.8398 H   0  0  0  0  0  0  0  0  0  0  0  0
   -3.0811    3.9836    2.1931 H   0  0  0  0  0  0  0  0  0  0  0  0
   -1.7718    3.6595    0.9977 H   0  0  0  0  0  0  0  0  0  0  0  0
   -1.8120    2.7659    2.5859 H   0  0  0  0  0  0  0  0  0  0  0  0
   -5.3996    1.2401    0.6063 H   0  0  0  0  0  0  0  0  0  0  0  0
  1  2  1  0  0  0  0
  1 25  1  0  0  0  0
  1 26  1  0  0  0  0
  1 27  1  0  0  0  0
  2  3  1  0  0  0  0
  3  4  2  0  0  0  0
  4  5  1  0  0  0  0
  4 28  1  0  0  0  0
  5  6  1  0  0  0  0
  5 19  2  0  0  0  0
  6  7  2  0  0  0  0
  7  8  1  0  0  0  0
  7  9  1  0  0  0  0
  8 29  1  0  0  0  0
  9 10  2  0  0  0  0
  9 11  1  0  0  0  0
 11 12  2  0  0  0  0
 12 13  1  0  0  0  0
 12 30  1  0  0  0  0
 13 14  2  0  0  0  0
 13 31  1  0  0  0  0
 14 15  1  0  0  0  0
 14 16  1  0  0  0  0
 15 32  1  0  0  0  0
 16 17  2  0  0  0  0
 16 33  1  0  0  0  0
 17 18  1  0  0  0  0
 17 11  1  0  0  0  0
 18  6  1  0  0  0  0
 19 20  1  0  0  0  0
 19 34  1  0  0  0  0
 20 21  1  0  0  0  0
 20 23  2  0  0  0  0
 21 22  1  0  0  0  0
 22 35  1  0  0  0  0
 22 36  1  0  0  0  0
 22 37  1  0  0  0  0
 23 24  1  0  0  0  0
 23  3  1  0  0  0  0
 24 38  1  0  0  0  0
M  END
>  <IDENTIFIER>
CNP0139366.0

>  <Energy>
310.552

$$$$
