
 OpenBabel09082502062D

 50 52  0  0  0  0  0  0  0  0999 V2000
    8.1885    4.2135    0.0000 C   0  0  0  0  0  0  0  0  0  0  0  0
    8.1885    5.7135    0.0000 O   0  0  0  0  0  0  0  0  0  0  0  0
    6.8889    6.1309    0.3302 C   0  0  0  0  0  0  0  0  0  0  0  0
    5.8137    5.1814    0.6200 C   0  0  0  0  0  0  0  0  0  0  0  0
    4.5148    5.5468    0.9878 C   0  0  0  0  0  0  0  0  0  0  0  0
    3.4326    4.5144    1.3184 C   0  0  0  0  0  0  0  0  0  0  0  0
    3.4659    3.1616    1.0566 C   0  0  0  0  0  0  0  0  0  0  0  0
    2.3547    2.1977    1.4369 C   0  0  0  0  0  0  0  0  0  0  0  0
    1.5009    2.5737    2.2231 O   0  0  0  0  0  0  0  0  0  0  0  0
    2.3128    0.9122    0.9111 O   0  0  0  0  0  0  0  0  0  0  0  0
    1.3128   -0.1034    0.7708 C   0  0  2  0  0  0  0  0  0  0  0  0
    1.3060   -0.6313   -0.6830 C   0  0  0  0  0  0  0  0  0  0  0  0
   -0.1342   -0.3520   -1.1990 C   0  0  1  0  0  0  0  0  0  0  0  0
   -0.2623    1.1855   -1.2973 C   0  0  0  0  0  0  0  0  0  0  0  0
   -0.4121    1.6053    0.1704 C   0  0  0  0  0  0  0  0  0  0  0  0
   -0.2100    0.2550    0.9423 C   0  0  2  0  0  0  0  0  0  0  0  0
   -0.6889    0.2950    2.3984 C   0  0  0  0  0  0  0  0  0  0  0  0
   -1.0323   -0.7500    0.0000 C   0  0  0  0  0  0  0  0  0  0  0  0
   -1.3442   -2.2172    0.0000 C   0  0  0  0  0  0  0  0  0  0  0  0
   -2.5422   -0.2784   -0.2267 C   0  0  0  0  0  0  0  0  0  0  0  0
    4.2525    6.9233    1.0727 C   0  0  0  0  0  0  0  0  0  0  0  0
    5.2514    7.8752    0.7821 C   0  0  0  0  0  0  0  0  0  0  0  0
    6.5585    7.4929    0.4156 C   0  0  0  0  0  0  0  0  0  0  0  0
    7.4745    8.4496    0.1592 O   0  0  0  0  0  0  0  0  0  0  0  0
    7.7662    4.0556   -1.0182 H   0  0  0  0  0  0  0  0  0  0  0  0
    9.2865    4.0722   -0.0703 H   0  0  0  0  0  0  0  0  0  0  0  0
    8.1885    3.1435    0.0000 H   0  0  0  0  0  0  0  0  0  0  0  0
    5.9619    4.1193    0.5942 H   0  0  0  0  0  0  0  0  0  0  0  0
    2.5377    4.9044    1.7954 H   0  0  0  0  0  0  0  0  0  0  0  0
    4.3057    2.7328    0.5249 H   0  0  0  0  0  0  0  0  0  0  0  0
    1.5795   -0.9646    1.4225 H   0  0  0  0  0  0  0  0  0  0  0  0
    2.0909   -0.1740   -1.3249 H   0  0  0  0  0  0  0  0  0  0  0  0
    1.5037   -1.7241   -0.6815 H   0  0  0  0  0  0  0  0  0  0  0  0
   -0.3325   -0.8327   -2.1818 H   0  0  0  0  0  0  0  0  0  0  0  0
    0.6289    1.6235   -1.7986 H   0  0  0  0  0  0  0  0  0  0  0  0
   -1.1581    1.5066   -1.8700 H   0  0  0  0  0  0  0  0  0  0  0  0
   -1.4245    1.9996    0.3718 H   0  0  0  0  0  0  0  0  0  0  0  0
    0.1716    2.5088    0.3710 H   0  0  0  0  0  0  0  0  0  0  0  0
   -0.1230    1.0241    3.0047 H   0  0  0  0  0  0  0  0  0  0  0  0
   -0.5663   -0.7071    2.8598 H   0  0  0  0  0  0  0  0  0  0  0  0
   -1.7624    0.5730    2.4438 H   0  0  0  0  0  0  0  0  0  0  0  0
   -1.7997   -2.2580    1.0170 H   0  0  0  0  0  0  0  0  0  0  0  0
   -0.3101   -2.5828    0.1250 H   0  0  0  0  0  0  0  0  0  0  0  0
   -1.5667   -3.2638    0.0000 H   0  0  0  0  0  0  0  0  0  0  0  0
   -2.7499    0.7602   -0.5180 H   0  0  0  0  0  0  0  0  0  0  0  0
   -3.1491   -0.4532    0.6892 H   0  0  0  0  0  0  0  0  0  0  0  0
   -3.0220   -0.8349   -1.0673 H   0  0  0  0  0  0  0  0  0  0  0  0
    3.2657    7.2683    1.3562 H   0  0  0  0  0  0  0  0  0  0  0  0
    5.0071    8.9278    0.8486 H   0  0  0  0  0  0  0  0  0  0  0  0
    8.3844    8.2442   -0.0985 H   0  0  0  0  0  0  0  0  0  0  0  0
  1  2  1  0  0  0  0
  1 25  1  0  0  0  0
  1 26  1  0  0  0  0
  1 27  1  0  0  0  0
  2  3  1  0  0  0  0
  3  4  2  0  0  0  0
  4  5  1  0  0  0  0
  4 28  1  0  0  0  0
  5  6  1  0  0  0  0
  5 21  2  0  0  0  0
  6  7  2  0  0  0  0
  6 29  1  0  0  0  0
  7  8  1  0  0  0  0
  7 30  1  0  0  0  0
  8  9  2  0  0  0  0
  8 10  1  0  0  0  0
 11 10  1  0  0  0  0
 11 12  1  0  0  0  0
 11 31  1  1  0  0  0
 12 32  1  0  0  0  0
 12 33  1  0  0  0  0
 13 12  1  0  0  0  0
 13 14  1  0  0  0  0
 13 34  1  1  0  0  0
 14 15  1  0  0  0  0
 14 35  1  0  0  0  0
 14 36  1  0  0  0  0
 15 16  1  0  0  0  0
 15 37  1  0  0  0  0
 15 38  1  0  0  0  0
 16 17  1  1  0  0  0
 16 18  1  0  0  0  0
 16 11  1  0  0  0  0
 17 39  1  0  0  0  0
 17 40  1  0  0  0  0
 17 41  1  0  0  0  0
 18 19  1  0  0  0  0
 18 20  1  0  0  0  0
 18 13  1  0  0  0  0
 19 42  1  0  0  0  0
 19 43  1  0  0  0  0
 19 44  1  0  0  0  0
 20 45  1  0  0  0  0
 20 46  1  0  0  0  0
 20 47  1  0  0  0  0
 21 22  1  0  0  0  0
 21 48  1  0  0  0  0
 22 23  2  0  0  0  0
 22 49  1  0  0  0  0
 23 24  1  0  0  0  0
 23  3  1  0  0  0  0
 24 50  1  0  0  0  0
M  END
>  <IDENTIFIER>
CNP0265183.11

>  <Energy>
1522.69

$$$$
