
 OpenBabel09052521153D

145151  0  0  0  0  0  0  0  0999 V2000
   -4.8682   -4.3169    4.3295 C   0  0  0  0  0  0  0  0  0  0  0  0
   -3.8903   -5.1732    3.5186 C   0  0  0  0  0  0  0  0  0  0  0  0
   -2.4749   -4.5515    3.3736 C   0  0  1  0  0  0  0  0  0  0  0  0
   -1.5308   -5.5417    2.6400 C   0  0  0  0  0  0  0  0  0  0  0  0
   -1.8946   -5.7910    1.1997 C   0  0  0  0  0  0  0  0  0  0  0  0
   -1.2125   -6.5447    0.5251 O   0  0  0  0  0  0  0  0  0  0  0  0
   -2.5398   -3.1678    2.6830 C   0  0  0  0  0  0  0  0  0  0  0  0
   -1.1706   -2.4806    2.4931 C   0  0  0  0  0  0  0  0  0  0  0  0
   -1.3438   -1.0826    1.8482 C   0  0  2  0  0  0  0  0  0  0  0  0
   -1.9970   -1.3090    0.4782 C   0  0  0  0  0  0  0  0  0  0  0  0
   -3.1772   -0.8192    0.0291 C   0  0  0  0  0  0  0  0  0  0  0  0
   -4.0981    0.0925    0.7613 C   0  0  0  0  0  0  0  0  0  0  0  0
   -3.8901    0.3443    1.9358 O   0  0  0  0  0  0  0  0  0  0  0  0
   -5.3256    0.7282    0.0848 C   0  0  1  0  0  0  0  0  0  0  0  0
   -4.9502    1.2972   -1.3161 C   0  0  0  0  0  0  0  0  0  0  0  0
   -6.0972    1.9635   -2.0423 C   0  0  0  0  0  0  0  0  0  0  0  0
   -6.2344    3.3567   -1.9995 C   0  0  0  0  0  0  0  0  0  0  0  0
   -7.3051    3.9825   -2.6329 C   0  0  0  0  0  0  0  0  0  0  0  0
   -8.2531    3.2244   -3.3317 C   0  0  0  0  0  0  0  0  0  0  0  0
   -9.2952    3.8298   -3.9364 O   0  0  0  0  0  0  0  0  0  0  0  0
   -8.1229    1.8285   -3.4048 C   0  0  0  0  0  0  0  0  0  0  0  0
   -9.0607    1.1295   -4.0995 O   0  0  0  0  0  0  0  0  0  0  0  0
   -9.0820   -0.2377   -4.2811 C   0  0  0  0  0  0  0  0  0  0  0  0
   -7.0388    1.2017   -2.7575 C   0  0  0  0  0  0  0  0  0  0  0  0
   -6.4739   -0.3029    0.0650 C   0  0  0  0  0  0  0  0  0  0  0  0
   -6.8587   -0.4062    1.5386 C   0  0  0  0  0  0  0  0  0  0  0  0
   -6.7234    1.0284    2.0937 C   0  0  0  0  0  0  0  0  0  0  0  0
   -5.9683    1.8181    1.0001 C   0  0  1  0  0  0  0  0  0  0  0  0
   -5.1668    3.0852    1.4817 C   0  0  0  0  0  0  0  0  0  0  0  0
   -3.3209    3.0485    1.4029 S   0  0  0  0  0  0  0  0  0  0  0  0
   -2.9888    4.8609    0.2985 S   0  0  0  0  0  0  0  0  0  0  0  0
   -1.7419    4.1419   -0.8359 C   0  0  0  0  0  0  0  0  0  0  0  0
   -2.4281    3.5092   -1.9340 N   0  0  0  0  0  0  0  0  0  0  0  0
   -1.9872    2.6806   -2.8294 C   0  0  0  0  0  0  0  0  0  0  0  0
   -2.7695    2.4333   -3.9979 N   0  0  0  0  0  0  0  0  0  0  0  0
   -3.9592    3.1729   -4.3591 C   0  0  0  0  0  0  0  0  0  0  0  0
   -0.6679    2.1235   -2.8441 N   0  0  0  0  0  0  0  0  0  0  0  0
    0.0288    1.2843   -1.8928 C   0  0  0  0  0  0  0  0  0  0  0  0
   -0.3955    1.0008   -0.5611 C   0  0  0  0  0  0  0  0  0  0  0  0
    0.3649    0.1230    0.2744 C   0  0  0  0  0  0  0  0  0  0  0  0
    1.5076   -0.4727   -0.2701 C   0  0  0  0  0  0  0  0  0  0  0  0
    1.9522   -0.1942   -1.5477 C   0  0  0  0  0  0  0  0  0  0  0  0
    3.1253   -0.7259   -1.9868 O   0  0  0  0  0  0  0  0  0  0  0  0
    4.3988   -0.2891   -1.5885 C   0  0  1  0  0  0  0  0  0  0  0  0
    4.8624    0.8218   -2.5768 C   0  0  0  0  0  0  0  0  0  0  0  0
    4.6816    0.4934   -4.0038 N   0  0  0  0  0  0  0  0  0  0  0  0
    5.7357   -0.3379   -4.5814 C   0  0  0  0  0  0  0  0  0  0  0  0
    4.4330    0.2972   -0.1310 C   0  0  0  0  0  0  0  0  0  0  0  0
    4.8853   -0.8626    0.7424 C   0  0  0  0  0  0  0  0  0  0  0  0
    6.0176   -1.4549   -0.0944 C   0  0  2  0  0  0  0  0  0  0  0  0
    7.3156   -0.6012   -0.1647 C   0  0  0  0  0  0  0  0  0  0  0  0
    8.0487   -0.4372    1.1791 C   0  0  2  0  0  0  0  0  0  0  0  0
    7.2906    0.2671    2.1253 O   0  0  0  0  0  0  0  0  0  0  0  0
    9.2439    0.2811    0.9269 O   0  0  0  0  0  0  0  0  0  0  0  0
   10.3812   -0.2908    1.5425 C   0  0  0  0  0  0  0  0  0  0  0  0
   11.5356   -0.3631    0.5289 C   0  0  0  0  0  0  0  0  0  0  0  0
   12.4932    0.7382    0.9529 C   0  0  0  0  0  0  0  0  0  0  0  0
   12.3960    0.6430    2.4706 C   0  0  0  0  0  0  0  0  0  0  0  0
   10.8882    0.6417    2.6550 C   0  0  0  0  0  0  0  0  0  0  0  0
    5.3418   -1.5320   -1.4702 C   0  0  0  0  0  0  0  0  0  0  0  0
    1.2073    0.6564   -2.3668 C   0  0  0  0  0  0  0  0  0  0  0  0
    1.6024    0.8649   -3.6441 O   0  0  0  0  0  0  0  0  0  0  0  0
   -0.0152   -0.1940    1.7537 C   0  0  0  0  0  0  0  0  0  0  0  0
   -0.1648    1.1303    2.5575 C   0  0  0  0  0  0  0  0  0  0  0  0
   -0.1008    0.6909    4.0263 C   0  0  0  0  0  0  0  0  0  0  0  0
    1.0004   -0.3594    4.0613 C   0  0  0  0  0  0  0  0  0  0  0  0
    1.1872   -0.7635    2.5892 C   0  0  0  0  0  0  0  0  0  0  0  0
   -5.8292   -4.8615    4.4394 H   0  0  0  0  0  0  0  0  0  0  0  0
   -5.0946   -3.3600    3.8162 H   0  0  0  0  0  0  0  0  0  0  0  0
   -4.4570   -4.1092    5.3397 H   0  0  0  0  0  0  0  0  0  0  0  0
   -4.3379   -5.3590    2.5189 H   0  0  0  0  0  0  0  0  0  0  0  0
   -3.7919   -6.1498    4.0403 H   0  0  0  0  0  0  0  0  0  0  0  0
   -2.0608   -4.4090    4.3972 H   0  0  0  0  0  0  0  0  0  0  0  0
   -1.5307   -6.5118    3.1818 H   0  0  0  0  0  0  0  0  0  0  0  0
   -0.4906   -5.1572    2.6759 H   0  0  0  0  0  0  0  0  0  0  0  0
   -2.7489   -5.3089    0.7381 H   0  0  0  0  0  0  0  0  0  0  0  0
   -3.1539   -2.4859    3.3063 H   0  0  0  0  0  0  0  0  0  0  0  0
   -3.0472   -3.2805    1.7047 H   0  0  0  0  0  0  0  0  0  0  0  0
   -0.5013   -3.0894    1.8512 H   0  0  0  0  0  0  0  0  0  0  0  0
   -0.7212   -2.3910    3.5000 H   0  0  0  0  0  0  0  0  0  0  0  0
   -2.0090   -0.5702    2.5391 H   0  0  0  0  0  0  0  0  0  0  0  0
   -1.4367   -1.9247   -0.2132 H   0  0  0  0  0  0  0  0  0  0  0  0
   -3.4442   -1.0987   -0.9827 H   0  0  0  0  0  0  0  0  0  0  0  0
   -4.5089    0.5384   -1.9968 H   0  0  0  0  0  0  0  0  0  0  0  0
   -4.1625    2.0407   -1.1337 H   0  0  0  0  0  0  0  0  0  0  0  0
   -5.5177    3.9633   -1.4606 H   0  0  0  0  0  0  0  0  0  0  0  0
   -7.3989    5.0601   -2.5765 H   0  0  0  0  0  0  0  0  0  0  0  0
   -9.4273    4.7877   -3.8942 H   0  0  0  0  0  0  0  0  0  0  0  0
   -9.9744   -0.5067   -4.8860 H   0  0  0  0  0  0  0  0  0  0  0  0
   -9.1510   -0.7554   -3.3003 H   0  0  0  0  0  0  0  0  0  0  0  0
   -8.1736   -0.5682   -4.8279 H   0  0  0  0  0  0  0  0  0  0  0  0
   -6.9210    0.1270   -2.8021 H   0  0  0  0  0  0  0  0  0  0  0  0
   -6.2172   -1.2782   -0.4066 H   0  0  0  0  0  0  0  0  0  0  0  0
   -7.3590    0.1138   -0.4553 H   0  0  0  0  0  0  0  0  0  0  0  0
   -6.0753   -1.0281    2.0248 H   0  0  0  0  0  0  0  0  0  0  0  0
   -7.8304   -0.9005    1.7484 H   0  0  0  0  0  0  0  0  0  0  0  0
   -6.1908    0.9804    3.0667 H   0  0  0  0  0  0  0  0  0  0  0  0
   -7.7138    1.5124    2.2530 H   0  0  0  0  0  0  0  0  0  0  0  0
   -6.8149    2.2382    0.4122 H   0  0  0  0  0  0  0  0  0  0  0  0
   -5.4520    3.3247    2.5280 H   0  0  0  0  0  0  0  0  0  0  0  0
   -5.5037    3.9614    0.8955 H   0  0  0  0  0  0  0  0  0  0  0  0
   -1.0457    3.4983   -0.2873 H   0  0  0  0  0  0  0  0  0  0  0  0
   -1.1178    4.9711   -1.2347 H   0  0  0  0  0  0  0  0  0  0  0  0
   -2.4379    1.7293   -4.6748 H   0  0  0  0  0  0  0  0  0  0  0  0
   -4.1977    3.9592   -3.6197 H   0  0  0  0  0  0  0  0  0  0  0  0
   -4.8117    2.4716   -4.4618 H   0  0  0  0  0  0  0  0  0  0  0  0
   -3.7904    3.6672   -5.3379 H   0  0  0  0  0  0  0  0  0  0  0  0
   -0.3168    2.0626   -3.8072 H   0  0  0  0  0  0  0  0  0  0  0  0
   -1.3035    1.4235   -0.1706 H   0  0  0  0  0  0  0  0  0  0  0  0
    2.0895   -1.1618    0.3031 H   0  0  0  0  0  0  0  0  0  0  0  0
    5.8981    1.1653   -2.3749 H   0  0  0  0  0  0  0  0  0  0  0  0
    4.1965    1.6929   -2.3740 H   0  0  0  0  0  0  0  0  0  0  0  0
    4.6935    1.3987   -4.5299 H   0  0  0  0  0  0  0  0  0  0  0  0
    5.5911   -1.3983   -4.3100 H   0  0  0  0  0  0  0  0  0  0  0  0
    6.7441    0.0324   -4.2957 H   0  0  0  0  0  0  0  0  0  0  0  0
    5.6556   -0.3070   -5.6894 H   0  0  0  0  0  0  0  0  0  0  0  0
    3.5467    0.8622    0.2117 H   0  0  0  0  0  0  0  0  0  0  0  0
    5.2290    1.0625   -0.0498 H   0  0  0  0  0  0  0  0  0  0  0  0
    4.0882   -1.6298    0.8173 H   0  0  0  0  0  0  0  0  0  0  0  0
    5.1348   -0.5807    1.7801 H   0  0  0  0  0  0  0  0  0  0  0  0
    6.3172   -2.4622    0.2717 H   0  0  0  0  0  0  0  0  0  0  0  0
    7.1540    0.4005   -0.6031 H   0  0  0  0  0  0  0  0  0  0  0  0
    8.0112   -1.1263   -0.8549 H   0  0  0  0  0  0  0  0  0  0  0  0
    8.2086   -1.4689    1.5649 H   0  0  0  0  0  0  0  0  0  0  0  0
    7.1181    1.1711    1.7531 H   0  0  0  0  0  0  0  0  0  0  0  0
   10.2502   -1.3304    1.9250 H   0  0  0  0  0  0  0  0  0  0  0  0
   11.2308   -0.3555   -0.5399 H   0  0  0  0  0  0  0  0  0  0  0  0
   12.0786   -1.3194    0.7109 H   0  0  0  0  0  0  0  0  0  0  0  0
   12.0964    1.7254    0.6194 H   0  0  0  0  0  0  0  0  0  0  0  0
   13.5179    0.6080    0.5473 H   0  0  0  0  0  0  0  0  0  0  0  0
   12.9046    1.4721    3.0068 H   0  0  0  0  0  0  0  0  0  0  0  0
   12.8182   -0.3290    2.8150 H   0  0  0  0  0  0  0  0  0  0  0  0
   10.5571    1.6811    2.4211 H   0  0  0  0  0  0  0  0  0  0  0  0
   10.5147    0.3965    3.6715 H   0  0  0  0  0  0  0  0  0  0  0  0
    4.6755   -2.4241   -1.4024 H   0  0  0  0  0  0  0  0  0  0  0  0
    6.0461   -1.7434   -2.2900 H   0  0  0  0  0  0  0  0  0  0  0  0
    2.2924    0.3560   -4.0722 H   0  0  0  0  0  0  0  0  0  0  0  0
   -1.0751    1.7120    2.3250 H   0  0  0  0  0  0  0  0  0  0  0  0
    0.7172    1.7874    2.3710 H   0  0  0  0  0  0  0  0  0  0  0  0
   -1.0502    0.1762    4.2786 H   0  0  0  0  0  0  0  0  0  0  0  0
    0.0215    1.4988    4.7780 H   0  0  0  0  0  0  0  0  0  0  0  0
    0.7096   -1.1895    4.7371 H   0  0  0  0  0  0  0  0  0  0  0  0
    1.9638    0.0584    4.4316 H   0  0  0  0  0  0  0  0  0  0  0  0
    1.4897   -1.8195    2.4263 H   0  0  0  0  0  0  0  0  0  0  0  0
    2.0770   -0.1598    2.2836 H   0  0  0  0  0  0  0  0  0  0  0  0
  1  2  1  0  0  0  0
  1 68  1  0  0  0  0
  1 69  1  0  0  0  0
  1 70  1  0  0  0  0
  2 71  1  0  0  0  0
  2 72  1  0  0  0  0
  3  2  1  0  0  0  0
  3  4  1  0  0  0  0
  3  7  1  0  0  0  0
  3 73  1  1  0  0  0
  4  5  1  0  0  0  0
  4 74  1  0  0  0  0
  4 75  1  0  0  0  0
  5  6  2  0  0  0  0
  5 76  1  0  0  0  0
  7  8  1  0  0  0  0
  7 77  1  0  0  0  0
  7 78  1  0  0  0  0
  8 79  1  0  0  0  0
  8 80  1  0  0  0  0
  9  8  1  0  0  0  0
  9 10  1  0  0  0  0
  9 81  1  1  0  0  0
 10 11  2  0  0  0  0
 10 82  1  0  0  0  0
 11 12  1  0  0  0  0
 11 83  1  0  0  0  0
 12 13  2  0  0  0  0
 12 14  1  0  0  0  0
 14 15  1  6  0  0  0
 14 25  1  0  0  0  0
 15 16  1  0  0  0  0
 15 84  1  0  0  0  0
 15 85  1  0  0  0  0
 16 17  2  0  0  0  0
 17 18  1  0  0  0  0
 17 86  1  0  0  0  0
 18 19  2  0  0  0  0
 18 87  1  0  0  0  0
 19 20  1  0  0  0  0
 19 21  1  0  0  0  0
 20 88  1  0  0  0  0
 21 22  1  0  0  0  0
 21 24  2  0  0  0  0
 22 23  1  0  0  0  0
 23 89  1  0  0  0  0
 23 90  1  0  0  0  0
 23 91  1  0  0  0  0
 24 16  1  0  0  0  0
 24 92  1  0  0  0  0
 25 26  1  0  0  0  0
 25 93  1  0  0  0  0
 25 94  1  0  0  0  0
 26 27  1  0  0  0  0
 26 95  1  0  0  0  0
 26 96  1  0  0  0  0
 27 97  1  0  0  0  0
 27 98  1  0  0  0  0
 28 27  1  0  0  0  0
 28 29  1  0  0  0  0
 28 14  1  0  0  0  0
 28 99  1  6  0  0  0
 29 30  1  0  0  0  0
 29100  1  0  0  0  0
 29101  1  0  0  0  0
 30 31  1  0  0  0  0
 31 32  1  0  0  0  0
 32 33  1  0  0  0  0
 32102  1  0  0  0  0
 32103  1  0  0  0  0
 33 34  2  0  0  0  0
 34 35  1  0  0  0  0
 34 37  1  0  0  0  0
 35 36  1  0  0  0  0
 35104  1  0  0  0  0
 36105  1  0  0  0  0
 36106  1  0  0  0  0
 36107  1  0  0  0  0
 37 38  1  0  0  0  0
 37108  1  0  0  0  0
 38 39  2  0  0  0  0
 39 40  1  0  0  0  0
 39109  1  0  0  0  0
 40 41  2  0  0  0  0
 40 63  1  0  0  0  0
 41 42  1  0  0  0  0
 41110  1  0  0  0  0
 42 43  1  0  0  0  0
 42 61  2  0  0  0  0
 44 43  1  6  0  0  0
 44 45  1  0  0  0  0
 44 48  1  0  0  0  0
 45 46  1  0  0  0  0
 45111  1  0  0  0  0
 45112  1  0  0  0  0
 46 47  1  0  0  0  0
 46113  1  0  0  0  0
 47114  1  0  0  0  0
 47115  1  0  0  0  0
 47116  1  0  0  0  0
 48 49  1  0  0  0  0
 48117  1  0  0  0  0
 48118  1  0  0  0  0
 49 50  1  0  0  0  0
 49119  1  0  0  0  0
 49120  1  0  0  0  0
 50 51  1  0  0  0  0
 50 60  1  0  0  0  0
 50121  1  1  0  0  0
 51 52  1  0  0  0  0
 51122  1  0  0  0  0
 51123  1  0  0  0  0
 52 53  1  0  0  0  0
 52 54  1  0  0  0  0
 52124  1  1  0  0  0
 53125  1  0  0  0  0
 54 55  1  0  0  0  0
 55 56  1  0  0  0  0
 55126  1  0  0  0  0
 56 57  1  0  0  0  0
 56127  1  0  0  0  0
 56128  1  0  0  0  0
 57 58  1  0  0  0  0
 57129  1  0  0  0  0
 57130  1  0  0  0  0
 58 59  1  0  0  0  0
 58131  1  0  0  0  0
 58132  1  0  0  0  0
 59 55  1  0  0  0  0
 59133  1  0  0  0  0
 59134  1  0  0  0  0
 60 44  1  0  0  0  0
 60135  1  0  0  0  0
 60136  1  0  0  0  0
 61 62  1  0  0  0  0
 61 38  1  0  0  0  0
 62137  1  0  0  0  0
 63 64  1  0  0  0  0
 63  9  1  0  0  0  0
 64 65  1  0  0  0  0
 64138  1  0  0  0  0
 64139  1  0  0  0  0
 65 66  1  0  0  0  0
 65140  1  0  0  0  0
 65141  1  0  0  0  0
 66 67  1  0  0  0  0
 66142  1  0  0  0  0
 66143  1  0  0  0  0
 67 63  1  0  0  0  0
 67144  1  0  0  0  0
 67145  1  0  0  0  0
M  END
>  <IDENTIFIER>
CNP0093837.1

>  <Energy>
2067.44

$$$$
