
 OpenBabel09072522043D

 78 83  0  0  0  0  0  0  0  0999 V2000
   -3.6130   -0.0525   -2.0765 C   0  0  0  0  0  0  0  0  0  0  0  0
   -3.9662    0.2315   -0.6041 C   0  0  1  0  0  0  0  0  0  0  0  0
   -5.4991    0.0620   -0.3304 C   0  0  2  0  0  0  0  0  0  0  0  0
   -6.3607    1.0267   -1.1623 C   0  0  0  0  0  0  0  0  0  0  0  0
   -5.8048    0.2734    1.1764 C   0  0  0  0  0  0  0  0  0  0  0  0
   -5.0436   -0.7505    2.0374 C   0  0  0  0  0  0  0  0  0  0  0  0
   -3.5235   -0.6264    1.8238 C   0  0  1  0  0  0  0  0  0  0  0  0
   -2.8934    0.6668    2.4555 C   0  0  0  0  0  0  0  0  0  0  0  0
   -1.3276    0.6427    2.3849 C   0  0  0  0  0  0  0  0  0  0  0  0
   -0.8130    0.2691    0.9520 C   0  0  2  0  0  0  0  0  0  0  0  0
   -1.0765    1.5510    0.0803 C   0  0  0  0  0  0  0  0  0  0  0  0
   -1.6574   -0.9915    0.4316 C   0  0  1  0  0  0  0  0  0  0  0  0
   -1.0580   -1.5868   -0.8355 C   0  0  0  0  0  0  0  0  0  0  0  0
    0.1730   -1.2815   -1.3100 C   0  0  0  0  0  0  0  0  0  0  0  0
    1.1313   -0.3024   -0.6265 C   0  0  2  0  0  0  0  0  0  0  0  0
    2.6566   -0.4562   -1.0358 C   0  0  1  0  0  0  0  0  0  0  0  0
    3.1671   -1.9038   -0.7833 C   0  0  0  0  0  0  0  0  0  0  0  0
    2.8059   -0.1569   -2.5991 C   0  0  2  0  0  0  0  0  0  0  0  0
    2.6210   -1.3088   -3.3908 O   0  0  0  0  0  0  0  0  0  0  0  0
    4.0980    0.6128   -2.9849 C   0  0  0  0  0  0  0  0  0  0  0  0
    5.2465    0.3218   -2.0651 C   0  0  0  0  0  0  0  0  0  0  0  0
    6.3358    0.0156   -2.5277 O   0  0  0  0  0  0  0  0  0  0  0  0
    5.0665    0.5822   -0.5701 C   0  0  0  0  0  0  0  0  0  0  0  0
    5.8522   -0.4727    0.2662 C   0  0  0  0  0  0  0  0  0  0  0  0
    5.7229    1.9484   -0.2547 C   0  0  0  0  0  0  0  0  0  0  0  0
    3.5062    0.6410   -0.2515 C   0  0  2  0  0  0  0  0  0  0  0  0
    3.1889    0.6977    1.2661 C   0  0  0  0  0  0  0  0  0  0  0  0
    1.6877    0.9631    1.5103 C   0  0  0  0  0  0  0  0  0  0  0  0
    0.7634   -0.1374    0.9004 C   0  0  1  0  0  0  0  0  0  0  0  0
    1.0324   -1.4568    1.7085 C   0  0  0  0  0  0  0  0  0  0  0  0
   -1.6678   -1.9699    1.4345 O   0  0  0  0  0  0  0  0  0  0  0  0
   -2.7228   -1.8014    2.2724 C   0  0  0  0  0  0  0  0  0  0  0  0
   -2.7835   -2.3232    3.3726 O   0  0  0  0  0  0  0  0  0  0  0  0
   -3.1971   -0.7582    0.3283 C   0  0  2  0  0  0  0  0  0  0  0  0
   -4.1285    0.6463   -2.7642 H   0  0  0  0  0  0  0  0  0  0  0  0
   -3.8878   -1.0942   -2.3515 H   0  0  0  0  0  0  0  0  0  0  0  0
   -2.5311    0.0871   -2.2565 H   0  0  0  0  0  0  0  0  0  0  0  0
   -3.7462    1.2803   -0.3918 H   0  0  0  0  0  0  0  0  0  0  0  0
   -5.8064   -0.9750   -0.5979 H   0  0  0  0  0  0  0  0  0  0  0  0
   -6.0853    2.0816   -0.9515 H   0  0  0  0  0  0  0  0  0  0  0  0
   -7.4351    0.8813   -0.9200 H   0  0  0  0  0  0  0  0  0  0  0  0
   -6.2533    0.8310   -2.2478 H   0  0  0  0  0  0  0  0  0  0  0  0
   -6.8931    0.1362    1.3578 H   0  0  0  0  0  0  0  0  0  0  0  0
   -5.5406    1.3091    1.4799 H   0  0  0  0  0  0  0  0  0  0  0  0
   -5.3812   -1.7652    1.7290 H   0  0  0  0  0  0  0  0  0  0  0  0
   -5.2903   -0.6244    3.1135 H   0  0  0  0  0  0  0  0  0  0  0  0
   -3.1746    0.7439    3.5283 H   0  0  0  0  0  0  0  0  0  0  0  0
   -3.3046    1.5647    1.9587 H   0  0  0  0  0  0  0  0  0  0  0  0
   -1.0015   -0.1211    3.1127 H   0  0  0  0  0  0  0  0  0  0  0  0
   -0.8970    1.6004    2.7490 H   0  0  0  0  0  0  0  0  0  0  0  0
   -2.0307    2.0346    0.2805 H   0  0  0  0  0  0  0  0  0  0  0  0
   -1.0415    1.3640   -1.0091 H   0  0  0  0  0  0  0  0  0  0  0  0
   -0.3918    2.3794    0.3232 H   0  0  0  0  0  0  0  0  0  0  0  0
   -1.6299   -2.3450   -1.3628 H   0  0  0  0  0  0  0  0  0  0  0  0
    0.4934   -1.7975   -2.2062 H   0  0  0  0  0  0  0  0  0  0  0  0
    0.9186    0.6828   -1.0671 H   0  0  0  0  0  0  0  0  0  0  0  0
    2.4816   -2.6535   -1.2279 H   0  0  0  0  0  0  0  0  0  0  0  0
    3.3070   -2.1621    0.2714 H   0  0  0  0  0  0  0  0  0  0  0  0
    4.1321   -2.0748   -1.2942 H   0  0  0  0  0  0  0  0  0  0  0  0
    2.0199    0.5542   -2.9373 H   0  0  0  0  0  0  0  0  0  0  0  0
    3.5035   -1.7437   -3.5188 H   0  0  0  0  0  0  0  0  0  0  0  0
    3.9060    1.6989   -2.8316 H   0  0  0  0  0  0  0  0  0  0  0  0
    4.3404    0.4967   -4.0631 H   0  0  0  0  0  0  0  0  0  0  0  0
    6.9313   -0.4433    0.0031 H   0  0  0  0  0  0  0  0  0  0  0  0
    5.5430   -1.5166    0.1361 H   0  0  0  0  0  0  0  0  0  0  0  0
    5.7859   -0.2456    1.3507 H   0  0  0  0  0  0  0  0  0  0  0  0
    6.8002    1.9420   -0.5284 H   0  0  0  0  0  0  0  0  0  0  0  0
    5.6592    2.1974    0.8242 H   0  0  0  0  0  0  0  0  0  0  0  0
    5.2323    2.7638   -0.8292 H   0  0  0  0  0  0  0  0  0  0  0  0
    3.1356    1.6139   -0.6522 H   0  0  0  0  0  0  0  0  0  0  0  0
    3.7411    1.5363    1.7344 H   0  0  0  0  0  0  0  0  0  0  0  0
    3.5331   -0.2185    1.7735 H   0  0  0  0  0  0  0  0  0  0  0  0
    1.4944    1.9524    1.0621 H   0  0  0  0  0  0  0  0  0  0  0  0
    1.5011    1.0554    2.6024 H   0  0  0  0  0  0  0  0  0  0  0  0
    0.6746   -1.3808    2.7514 H   0  0  0  0  0  0  0  0  0  0  0  0
    2.0822   -1.7176    1.8376 H   0  0  0  0  0  0  0  0  0  0  0  0
    0.5932   -2.3520    1.2318 H   0  0  0  0  0  0  0  0  0  0  0  0
   -3.6061   -1.7483   -0.0132 H   0  0  0  0  0  0  0  0  0  0  0  0
  1 35  1  0  0  0  0
  1 36  1  0  0  0  0
  1 37  1  0  0  0  0
  2  1  1  0  0  0  0
  2  3  1  0  0  0  0
  2 38  1  1  0  0  0
  3  4  1  0  0  0  0
  3  5  1  0  0  0  0
  3 39  1  6  0  0  0
  4 40  1  0  0  0  0
  4 41  1  0  0  0  0
  4 42  1  0  0  0  0
  5  6  1  0  0  0  0
  5 43  1  0  0  0  0
  5 44  1  0  0  0  0
  6 45  1  0  0  0  0
  6 46  1  0  0  0  0
  7  6  1  0  0  0  0
  7  8  1  0  0  0  0
  7 32  1  1  0  0  0
  8  9  1  0  0  0  0
  8 47  1  0  0  0  0
  8 48  1  0  0  0  0
  9 10  1  0  0  0  0
  9 49  1  0  0  0  0
  9 50  1  0  0  0  0
 10 11  1  6  0  0  0
 10 12  1  0  0  0  0
 11 51  1  0  0  0  0
 11 52  1  0  0  0  0
 11 53  1  0  0  0  0
 12 13  1  6  0  0  0
 12 31  1  0  0  0  0
 12 34  1  0  0  0  0
 13 14  2  0  0  0  0
 13 54  1  0  0  0  0
 14 55  1  0  0  0  0
 15 14  1  0  0  0  0
 15 16  1  0  0  0  0
 15 56  1  6  0  0  0
 16 17  1  1  0  0  0
 16 18  1  0  0  0  0
 17 57  1  0  0  0  0
 17 58  1  0  0  0  0
 17 59  1  0  0  0  0
 18 19  1  0  0  0  0
 18 20  1  0  0  0  0
 18 60  1  6  0  0  0
 19 61  1  0  0  0  0
 20 21  1  0  0  0  0
 20 62  1  0  0  0  0
 20 63  1  0  0  0  0
 21 22  2  0  0  0  0
 21 23  1  0  0  0  0
 23 24  1  0  0  0  0
 23 25  1  0  0  0  0
 23 26  1  0  0  0  0
 24 64  1  0  0  0  0
 24 65  1  0  0  0  0
 24 66  1  0  0  0  0
 25 67  1  0  0  0  0
 25 68  1  0  0  0  0
 25 69  1  0  0  0  0
 26 27  1  0  0  0  0
 26 16  1  0  0  0  0
 26 70  1  6  0  0  0
 27 28  1  0  0  0  0
 27 71  1  0  0  0  0
 27 72  1  0  0  0  0
 28 29  1  0  0  0  0
 28 73  1  0  0  0  0
 28 74  1  0  0  0  0
 29 30  1  1  0  0  0
 29 10  1  0  0  0  0
 29 15  1  0  0  0  0
 30 75  1  0  0  0  0
 30 76  1  0  0  0  0
 30 77  1  0  0  0  0
 31 32  1  0  0  0  0
 32 33  2  0  0  0  0
 34  2  1  0  0  0  0
 34  7  1  0  0  0  0
 34 78  1  6  0  0  0
M  END
>  <IDENTIFIER>
CNP0486542.1

>  <Energy>
1013.44

$$$$
