
 OpenBabel09062516573D

 76 80  0  0  0  0  0  0  0  0999 V2000
    4.0842    3.1860    1.2084 C   0  0  0  0  0  0  0  0  0  0  0  0
    3.7013    1.8649    1.1108 O   0  0  0  0  0  0  0  0  0  0  0  0
    2.7899    1.4091    0.2139 C   0  0  0  0  0  0  0  0  0  0  0  0
    2.1773    2.1988   -0.4944 O   0  0  0  0  0  0  0  0  0  0  0  0
    2.5516   -0.0851    0.0744 C   0  0  2  0  0  0  0  0  0  0  0  0
    3.8598   -0.7955   -0.3368 C   0  0  0  0  0  0  0  0  0  0  0  0
    4.9129   -0.7310    0.7357 C   0  0  0  0  0  0  0  0  0  0  0  0
    4.8730   -1.3839    1.9637 C   0  0  0  0  0  0  0  0  0  0  0  0
    5.9863   -1.1016    2.6772 N   0  0  0  0  0  0  0  0  0  0  0  0
    6.7221   -0.2696    1.9193 C   0  0  0  0  0  0  0  0  0  0  0  0
    7.9490    0.3071    2.2434 C   0  0  0  0  0  0  0  0  0  0  0  0
    8.5383    1.1704    1.3022 C   0  0  0  0  0  0  0  0  0  0  0  0
    7.8976    1.4306    0.0702 C   0  0  0  0  0  0  0  0  0  0  0  0
    6.6623    0.8285   -0.2320 C   0  0  0  0  0  0  0  0  0  0  0  0
    6.1003   -0.0219    0.7216 C   0  0  0  0  0  0  0  0  0  0  0  0
    1.5569   -0.3208   -0.9620 N   0  0  0  0  0  0  0  0  0  0  0  0
    0.3293   -0.8740   -0.7506 C   0  0  0  0  0  0  0  0  0  0  0  0
   -0.0250   -1.2153    0.3682 O   0  0  0  0  0  0  0  0  0  0  0  0
   -0.5810   -1.0315   -1.9455 C   0  0  0  0  0  0  0  0  0  0  0  0
   -1.9381   -1.5695   -1.6907 N   0  0  0  0  0  0  0  0  0  0  0  0
   -1.9603   -2.9889   -1.2923 C   0  0  0  0  0  0  0  0  0  0  0  0
   -3.3146   -3.5610   -1.6972 C   0  0  0  0  0  0  0  0  0  0  0  0
   -4.5365   -2.8523   -1.0412 C   0  0  1  0  0  0  0  0  0  0  0  0
   -5.6620   -3.1667   -1.8350 O   0  0  0  0  0  0  0  0  0  0  0  0
   -4.8857   -3.3658    0.4087 C   0  0  0  0  0  0  0  0  0  0  0  0
   -4.3916   -2.4496    1.5147 C   0  0  0  0  0  0  0  0  0  0  0  0
   -5.0007   -1.0277    1.3562 C   0  0  0  0  0  0  0  0  0  0  0  0
   -5.3189   -0.6341   -0.1137 C   0  0  0  0  0  0  0  0  0  0  0  0
   -4.3340   -1.2823   -1.1019 C   0  0  1  0  0  0  0  0  0  0  0  0
   -2.8641   -0.7828   -0.8431 C   0  0  2  0  0  0  0  0  0  0  0  0
   -2.7675    0.7196   -1.0890 C   0  0  0  0  0  0  0  0  0  0  0  0
   -2.9753    1.2632   -2.3670 C   0  0  0  0  0  0  0  0  0  0  0  0
   -2.8778    2.6413   -2.5722 C   0  0  0  0  0  0  0  0  0  0  0  0
   -2.5876    3.4989   -1.5019 C   0  0  0  0  0  0  0  0  0  0  0  0
   -2.4997    4.8312   -1.7009 O   0  0  0  0  0  0  0  0  0  0  0  0
   -2.3896    2.9783   -0.2156 C   0  0  0  0  0  0  0  0  0  0  0  0
   -2.1307    3.8412    0.8020 O   0  0  0  0  0  0  0  0  0  0  0  0
   -1.9898    3.5048    2.1328 C   0  0  0  0  0  0  0  0  0  0  0  0
   -2.4741    1.5850   -0.0187 C   0  0  0  0  0  0  0  0  0  0  0  0
    4.8437    3.2872    2.0103 H   0  0  0  0  0  0  0  0  0  0  0  0
    3.2090    3.8244    1.4534 H   0  0  0  0  0  0  0  0  0  0  0  0
    4.5358    3.5211    0.2493 H   0  0  0  0  0  0  0  0  0  0  0  0
    2.2003   -0.4830    1.0514 H   0  0  0  0  0  0  0  0  0  0  0  0
    4.2329   -0.3215   -1.2702 H   0  0  0  0  0  0  0  0  0  0  0  0
    3.6684   -1.8675   -0.5597 H   0  0  0  0  0  0  0  0  0  0  0  0
    4.0794   -2.0331    2.3100 H   0  0  0  0  0  0  0  0  0  0  0  0
    6.2212   -1.4565    3.6309 H   0  0  0  0  0  0  0  0  0  0  0  0
    8.4302    0.1045    3.1914 H   0  0  0  0  0  0  0  0  0  0  0  0
    9.4872    1.6406    1.5248 H   0  0  0  0  0  0  0  0  0  0  0  0
    8.3577    2.1016   -0.6431 H   0  0  0  0  0  0  0  0  0  0  0  0
    6.1674    1.0327   -1.1727 H   0  0  0  0  0  0  0  0  0  0  0  0
    1.7983   -0.0282   -1.9230 H   0  0  0  0  0  0  0  0  0  0  0  0
   -0.0687   -1.6836   -2.6857 H   0  0  0  0  0  0  0  0  0  0  0  0
   -0.6696   -0.0428   -2.4375 H   0  0  0  0  0  0  0  0  0  0  0  0
   -1.7705   -3.1196   -0.2051 H   0  0  0  0  0  0  0  0  0  0  0  0
   -1.1810   -3.5593   -1.8443 H   0  0  0  0  0  0  0  0  0  0  0  0
   -3.3593   -4.6575   -1.5196 H   0  0  0  0  0  0  0  0  0  0  0  0
   -3.3786   -3.4055   -2.7985 H   0  0  0  0  0  0  0  0  0  0  0  0
   -5.7650   -4.1555   -1.8571 H   0  0  0  0  0  0  0  0  0  0  0  0
   -4.5707   -4.4220    0.5459 H   0  0  0  0  0  0  0  0  0  0  0  0
   -5.9934   -3.3573    0.5329 H   0  0  0  0  0  0  0  0  0  0  0  0
   -3.2908   -2.4443    1.4555 H   0  0  0  0  0  0  0  0  0  0  0  0
   -4.6351   -2.8392    2.5263 H   0  0  0  0  0  0  0  0  0  0  0  0
   -4.2886   -0.3171    1.8271 H   0  0  0  0  0  0  0  0  0  0  0  0
   -5.9610   -0.9439    1.9102 H   0  0  0  0  0  0  0  0  0  0  0  0
   -5.3801    0.4713   -0.2062 H   0  0  0  0  0  0  0  0  0  0  0  0
   -6.3258   -1.0276   -0.3787 H   0  0  0  0  0  0  0  0  0  0  0  0
   -4.5794   -0.9831   -2.1451 H   0  0  0  0  0  0  0  0  0  0  0  0
   -2.5765   -0.9482    0.2061 H   0  0  0  0  0  0  0  0  0  0  0  0
   -3.1991    0.6196   -3.2078 H   0  0  0  0  0  0  0  0  0  0  0  0
   -3.0320    3.0416   -3.5660 H   0  0  0  0  0  0  0  0  0  0  0  0
   -2.6262    5.2316   -2.5728 H   0  0  0  0  0  0  0  0  0  0  0  0
   -1.7983    4.4249    2.7224 H   0  0  0  0  0  0  0  0  0  0  0  0
   -1.1297    2.8124    2.2675 H   0  0  0  0  0  0  0  0  0  0  0  0
   -2.9213    3.0333    2.5085 H   0  0  0  0  0  0  0  0  0  0  0  0
   -2.3217    1.1696    0.9690 H   0  0  0  0  0  0  0  0  0  0  0  0
  1  2  1  0  0  0  0
  1 40  1  0  0  0  0
  1 41  1  0  0  0  0
  1 42  1  0  0  0  0
  2  3  1  0  0  0  0
  3  4  2  0  0  0  0
  3  5  1  0  0  0  0
  5  6  1  0  0  0  0
  5 16  1  0  0  0  0
  5 43  1  1  0  0  0
  6  7  1  0  0  0  0
  6 44  1  0  0  0  0
  6 45  1  0  0  0  0
  7  8  2  0  0  0  0
  8  9  1  0  0  0  0
  8 46  1  0  0  0  0
  9 10  1  0  0  0  0
  9 47  1  0  0  0  0
 10 11  2  0  0  0  0
 11 12  1  0  0  0  0
 11 48  1  0  0  0  0
 12 13  2  0  0  0  0
 12 49  1  0  0  0  0
 13 14  1  0  0  0  0
 13 50  1  0  0  0  0
 14 15  2  0  0  0  0
 14 51  1  0  0  0  0
 15  7  1  0  0  0  0
 15 10  1  0  0  0  0
 16 17  1  0  0  0  0
 16 52  1  0  0  0  0
 17 18  2  0  0  0  0
 17 19  1  0  0  0  0
 19 20  1  0  0  0  0
 19 53  1  0  0  0  0
 19 54  1  0  0  0  0
 20 21  1  0  0  0  0
 21 22  1  0  0  0  0
 21 55  1  0  0  0  0
 21 56  1  0  0  0  0
 22 23  1  0  0  0  0
 22 57  1  0  0  0  0
 22 58  1  0  0  0  0
 23 24  1  6  0  0  0
 23 25  1  0  0  0  0
 24 59  1  0  0  0  0
 25 26  1  0  0  0  0
 25 60  1  0  0  0  0
 25 61  1  0  0  0  0
 26 27  1  0  0  0  0
 26 62  1  0  0  0  0
 26 63  1  0  0  0  0
 27 28  1  0  0  0  0
 27 64  1  0  0  0  0
 27 65  1  0  0  0  0
 28 66  1  0  0  0  0
 28 67  1  0  0  0  0
 29 28  1  0  0  0  0
 29 30  1  0  0  0  0
 29 23  1  0  0  0  0
 29 68  1  6  0  0  0
 30 31  1  0  0  0  0
 30 20  1  0  0  0  0
 30 69  1  1  0  0  0
 31 32  2  0  0  0  0
 32 33  1  0  0  0  0
 32 70  1  0  0  0  0
 33 34  2  0  0  0  0
 33 71  1  0  0  0  0
 34 35  1  0  0  0  0
 34 36  1  0  0  0  0
 35 72  1  0  0  0  0
 36 37  1  0  0  0  0
 36 39  2  0  0  0  0
 37 38  1  0  0  0  0
 38 73  1  0  0  0  0
 38 74  1  0  0  0  0
 38 75  1  0  0  0  0
 39 31  1  0  0  0  0
 39 76  1  0  0  0  0
M  END
>  <IDENTIFIER>
CNP0274632.9

>  <Energy>
733.369

$$$$
