
 OpenBabel09042522253D

131139  0  0  0  0  0  0  0  0999 V2000
   13.0457    0.7535   -1.2945 C   0  0  0  0  0  0  0  0  0  0  0  0
   11.5722    0.5465   -0.9335 C   0  0  2  0  0  0  0  0  0  0  0  0
   10.8218    1.8895   -0.7764 C   0  0  0  0  0  0  0  0  0  0  0  0
    9.6998    1.7919    0.2745 C   0  0  0  0  0  0  0  0  0  0  0  0
    9.0667    0.3763    0.2842 C   0  0  2  0  0  0  0  0  0  0  0  0
   10.0347   -0.6604    0.5170 O   0  0  0  0  0  0  0  0  0  0  0  0
   11.3985   -0.3049    0.3254 C   0  0  0  0  0  0  0  0  0  0  0  0
    8.4247    0.1656   -0.9913 O   0  0  0  0  0  0  0  0  0  0  0  0
    7.1711   -0.3580   -0.6443 C   0  0  2  0  0  0  0  0  0  0  0  0
    5.9532   -0.3569   -1.5888 C   0  0  0  0  0  0  0  0  0  0  0  0
    4.7504   -0.2072   -0.5901 C   0  0  1  0  0  0  0  0  0  0  0  0
    3.4540   -1.0256   -0.7480 C   0  0  2  0  0  0  0  0  0  0  0  0
    2.7808   -0.7978   -2.1191 C   0  0  0  0  0  0  0  0  0  0  0  0
    1.4082   -1.4348   -2.2039 C   0  0  0  0  0  0  0  0  0  0  0  0
    0.7230   -1.8903   -1.1267 C   0  0  0  0  0  0  0  0  0  0  0  0
   -0.5849   -2.6469   -1.3217 C   0  0  0  0  0  0  0  0  0  0  0  0
   -1.7087   -2.1328   -0.3996 C   0  0  2  0  0  0  0  0  0  0  0  0
   -2.1629   -0.8480   -0.8305 O   0  0  0  0  0  0  0  0  0  0  0  0
   -3.5897   -0.7468   -0.8739 C   0  0  2  0  0  0  0  0  0  0  0  0
   -3.9302   -0.0549   -2.0819 O   0  0  0  0  0  0  0  0  0  0  0  0
   -5.1694    0.6156   -1.9650 C   0  0  2  0  0  0  0  0  0  0  0  0
   -5.6974    1.0029   -3.3525 C   0  0  0  0  0  0  0  0  0  0  0  0
   -4.8086    1.8689   -4.0089 O   0  0  0  0  0  0  0  0  0  0  0  0
   -5.0191    1.8397   -1.0206 C   0  0  1  0  0  0  0  0  0  0  0  0
   -6.3187    2.2179   -0.5666 O   0  0  0  0  0  0  0  0  0  0  0  0
   -6.4878    3.6296   -0.5194 C   0  0  2  0  0  0  0  0  0  0  0  0
   -6.8333    4.0076    0.8111 O   0  0  0  0  0  0  0  0  0  0  0  0
   -8.1218    4.5877    0.7650 C   0  0  1  0  0  0  0  0  0  0  0  0
   -7.9705    6.1237    0.8263 C   0  0  0  0  0  0  0  0  0  0  0  0
   -9.2196    6.7551    0.7355 O   0  0  0  0  0  0  0  0  0  0  0  0
   -8.7941    4.0292   -0.5028 C   0  0  2  0  0  0  0  0  0  0  0  0
   -9.2395    2.6984   -0.3201 O   0  0  0  0  0  0  0  0  0  0  0  0
   -7.6329    4.0376   -1.4600 C   0  0  1  0  0  0  0  0  0  0  0  0
   -7.4096    5.3358   -1.9468 O   0  0  0  0  0  0  0  0  0  0  0  0
   -4.0997    1.4852    0.1900 C   0  0  2  0  0  0  0  0  0  0  0  0
   -2.7738    1.9255   -0.0149 O   0  0  0  0  0  0  0  0  0  0  0  0
   -4.1063   -0.0323    0.4380 C   0  0  1  0  0  0  0  0  0  0  0  0
   -5.4356   -0.4282    0.7620 O   0  0  0  0  0  0  0  0  0  0  0  0
   -5.4741   -1.6024    1.5649 C   0  0  2  0  0  0  0  0  0  0  0  0
   -5.3782   -2.7808    0.7521 O   0  0  0  0  0  0  0  0  0  0  0  0
   -6.6411   -3.3564    0.4841 C   0  0  1  0  0  0  0  0  0  0  0  0
   -6.5034   -4.4421   -0.5808 C   0  0  0  0  0  0  0  0  0  0  0  0
   -7.2766   -3.9244    1.7905 C   0  0  2  0  0  0  0  0  0  0  0  0
   -8.6518   -4.1395    1.5861 O   0  0  0  0  0  0  0  0  0  0  0  0
   -7.0223   -2.9752    3.0067 C   0  0  1  0  0  0  0  0  0  0  0  0
   -5.9412   -3.4215    3.7981 O   0  0  0  0  0  0  0  0  0  0  0  0
   -6.7434   -1.5562    2.4765 C   0  0  1  0  0  0  0  0  0  0  0  0
   -6.6100   -0.6087    3.5066 O   0  0  0  0  0  0  0  0  0  0  0  0
   -1.2085   -2.0765    1.0579 C   0  0  0  0  0  0  0  0  0  0  0  0
    0.0448   -1.1872    1.1778 C   0  0  0  0  0  0  0  0  0  0  0  0
    1.2321   -1.7108    0.3125 C   0  0  1  0  0  0  0  0  0  0  0  0
    1.6867   -3.1131    0.8369 C   0  0  0  0  0  0  0  0  0  0  0  0
    2.4129   -0.6511    0.3582 C   0  0  1  0  0  0  0  0  0  0  0  0
    2.9974   -0.4237    1.8008 C   0  0  0  0  0  0  0  0  0  0  0  0
    4.3383    0.3523    1.8041 C   0  0  0  0  0  0  0  0  0  0  0  0
    5.3444   -0.3364    0.8428 C   0  0  1  0  0  0  0  0  0  0  0  0
    5.5626   -1.8267    1.3400 C   0  0  0  0  0  0  0  0  0  0  0  0
    6.7062    0.3831    0.5858 C   0  0  2  0  0  0  0  0  0  0  0  0
    6.5283    1.7476    0.2537 O   0  0  0  0  0  0  0  0  0  0  0  0
    7.9658    0.1977    1.3994 C   0  0  2  0  0  0  0  0  0  0  0  0
    8.0876    1.0202    2.6896 C   0  0  0  0  0  0  0  0  0  0  0  0
   13.1332    1.3294   -2.2387 H   0  0  0  0  0  0  0  0  0  0  0  0
   13.5438   -0.2306   -1.4358 H   0  0  0  0  0  0  0  0  0  0  0  0
   13.5709    1.3001   -0.4820 H   0  0  0  0  0  0  0  0  0  0  0  0
   11.0888   -0.0374   -1.7498 H   0  0  0  0  0  0  0  0  0  0  0  0
   10.4319    2.1683   -1.7789 H   0  0  0  0  0  0  0  0  0  0  0  0
   11.4931    2.7086   -0.4349 H   0  0  0  0  0  0  0  0  0  0  0  0
    8.9712    2.6181    0.1372 H   0  0  0  0  0  0  0  0  0  0  0  0
   10.1745    1.9296    1.2705 H   0  0  0  0  0  0  0  0  0  0  0  0
   11.9640   -1.2522    0.1907 H   0  0  0  0  0  0  0  0  0  0  0  0
   11.8040    0.1987    1.2303 H   0  0  0  0  0  0  0  0  0  0  0  0
    7.3800   -1.4289   -0.4678 H   0  0  0  0  0  0  0  0  0  0  0  0
    5.9435   -1.2914   -2.1908 H   0  0  0  0  0  0  0  0  0  0  0  0
    5.9595    0.5258   -2.2661 H   0  0  0  0  0  0  0  0  0  0  0  0
    4.4494    0.8629   -0.7120 H   0  0  0  0  0  0  0  0  0  0  0  0
    3.7464   -2.0872   -0.6703 H   0  0  0  0  0  0  0  0  0  0  0  0
    3.4414   -1.2397   -2.8952 H   0  0  0  0  0  0  0  0  0  0  0  0
    2.6589    0.2837   -2.3452 H   0  0  0  0  0  0  0  0  0  0  0  0
    0.9834   -1.5511   -3.1970 H   0  0  0  0  0  0  0  0  0  0  0  0
   -0.3920   -3.7040   -1.0456 H   0  0  0  0  0  0  0  0  0  0  0  0
   -0.9215   -2.6572   -2.3819 H   0  0  0  0  0  0  0  0  0  0  0  0
   -2.5013   -2.9131   -0.4470 H   0  0  0  0  0  0  0  0  0  0  0  0
   -4.0720   -1.7395   -0.9598 H   0  0  0  0  0  0  0  0  0  0  0  0
   -5.9239   -0.0978   -1.5605 H   0  0  0  0  0  0  0  0  0  0  0  0
   -6.7119    1.4545   -3.2692 H   0  0  0  0  0  0  0  0  0  0  0  0
   -5.8133    0.0879   -3.9716 H   0  0  0  0  0  0  0  0  0  0  0  0
   -5.1540    2.7913   -3.8817 H   0  0  0  0  0  0  0  0  0  0  0  0
   -4.5027    2.6429   -1.5920 H   0  0  0  0  0  0  0  0  0  0  0  0
   -5.5808    4.2064   -0.8132 H   0  0  0  0  0  0  0  0  0  0  0  0
   -8.7323    4.2913    1.6462 H   0  0  0  0  0  0  0  0  0  0  0  0
   -7.2683    6.5243    0.0651 H   0  0  0  0  0  0  0  0  0  0  0  0
   -7.5116    6.3979    1.7999 H   0  0  0  0  0  0  0  0  0  0  0  0
   -9.3456    7.0018   -0.2183 H   0  0  0  0  0  0  0  0  0  0  0  0
   -9.6759    4.6165   -0.8360 H   0  0  0  0  0  0  0  0  0  0  0  0
   -8.7510    2.2655    0.4275 H   0  0  0  0  0  0  0  0  0  0  0  0
   -7.7433    3.3600   -2.3390 H   0  0  0  0  0  0  0  0  0  0  0  0
   -8.1233    5.5143   -2.6139 H   0  0  0  0  0  0  0  0  0  0  0  0
   -4.4621    2.0354    1.0858 H   0  0  0  0  0  0  0  0  0  0  0  0
   -2.5046    1.7362   -0.9503 H   0  0  0  0  0  0  0  0  0  0  0  0
   -3.4322   -0.2062    1.2967 H   0  0  0  0  0  0  0  0  0  0  0  0
   -4.6207   -1.6604    2.2777 H   0  0  0  0  0  0  0  0  0  0  0  0
   -7.2952   -2.5675    0.0440 H   0  0  0  0  0  0  0  0  0  0  0  0
   -5.8380   -5.2550   -0.2196 H   0  0  0  0  0  0  0  0  0  0  0  0
   -6.0659   -4.0084   -1.5051 H   0  0  0  0  0  0  0  0  0  0  0  0
   -7.4986   -4.8702   -0.8267 H   0  0  0  0  0  0  0  0  0  0  0  0
   -6.8359   -4.9110    2.0558 H   0  0  0  0  0  0  0  0  0  0  0  0
   -9.0817   -3.2523    1.4680 H   0  0  0  0  0  0  0  0  0  0  0  0
   -7.9170   -2.9940    3.6664 H   0  0  0  0  0  0  0  0  0  0  0  0
   -5.2139   -3.7454    3.2058 H   0  0  0  0  0  0  0  0  0  0  0  0
   -7.6266   -1.2582    1.8699 H   0  0  0  0  0  0  0  0  0  0  0  0
   -5.8553   -0.8925    4.0853 H   0  0  0  0  0  0  0  0  0  0  0  0
   -0.9900   -3.1006    1.4170 H   0  0  0  0  0  0  0  0  0  0  0  0
   -1.9997   -1.7057    1.7314 H   0  0  0  0  0  0  0  0  0  0  0  0
    0.3410   -1.1411    2.2468 H   0  0  0  0  0  0  0  0  0  0  0  0
   -0.2299   -0.1585    0.8548 H   0  0  0  0  0  0  0  0  0  0  0  0
    1.9822   -3.0855    1.9018 H   0  0  0  0  0  0  0  0  0  0  0  0
    2.5237   -3.5349    0.2513 H   0  0  0  0  0  0  0  0  0  0  0  0
    0.8950   -3.8794    0.7705 H   0  0  0  0  0  0  0  0  0  0  0  0
    2.0333    0.3558    0.0624 H   0  0  0  0  0  0  0  0  0  0  0  0
    3.1634   -1.3697    2.3309 H   0  0  0  0  0  0  0  0  0  0  0  0
    2.2598    0.1184    2.4289 H   0  0  0  0  0  0  0  0  0  0  0  0
    4.7446    0.4023    2.8367 H   0  0  0  0  0  0  0  0  0  0  0  0
    4.1360    1.3943    1.4735 H   0  0  0  0  0  0  0  0  0  0  0  0
    5.9852   -1.8147    2.3662 H   0  0  0  0  0  0  0  0  0  0  0  0
    6.1979   -2.4809    0.7286 H   0  0  0  0  0  0  0  0  0  0  0  0
    4.6415   -2.4274    1.3762 H   0  0  0  0  0  0  0  0  0  0  0  0
    6.2389    2.2180    1.0755 H   0  0  0  0  0  0  0  0  0  0  0  0
    7.9930   -0.8733    1.7059 H   0  0  0  0  0  0  0  0  0  0  0  0
    8.0676    2.1106    2.4834 H   0  0  0  0  0  0  0  0  0  0  0  0
    9.0408    0.7744    3.2020 H   0  0  0  0  0  0  0  0  0  0  0  0
    7.2451    0.7773    3.3699 H   0  0  0  0  0  0  0  0  0  0  0  0
  1 62  1  0  0  0  0
  1 63  1  0  0  0  0
  1 64  1  0  0  0  0
  2  1  1  0  0  0  0
  2  3  1  0  0  0  0
  2 65  1  6  0  0  0
  3  4  1  0  0  0  0
  3 66  1  0  0  0  0
  3 67  1  0  0  0  0
  4 68  1  0  0  0  0
  4 69  1  0  0  0  0
  5  4  1  0  0  0  0
  5  6  1  1  0  0  0
  5  8  1  0  0  0  0
  6  7  1  0  0  0  0
  7  2  1  0  0  0  0
  7 70  1  0  0  0  0
  7 71  1  0  0  0  0
  8  9  1  0  0  0  0
  9 10  1  0  0  0  0
  9 72  1  1  0  0  0
 10 73  1  0  0  0  0
 10 74  1  0  0  0  0
 11 10  1  0  0  0  0
 11 12  1  0  0  0  0
 11 75  1  6  0  0  0
 12 13  1  0  0  0  0
 12 76  1  1  0  0  0
 13 14  1  0  0  0  0
 13 77  1  0  0  0  0
 13 78  1  0  0  0  0
 14 15  2  0  0  0  0
 14 79  1  0  0  0  0
 15 16  1  0  0  0  0
 16 17  1  0  0  0  0
 16 80  1  0  0  0  0
 16 81  1  0  0  0  0
 17 18  1  0  0  0  0
 17 49  1  0  0  0  0
 17 82  1  6  0  0  0
 19 18  1  0  0  0  0
 19 20  1  0  0  0  0
 19 83  1  6  0  0  0
 20 21  1  0  0  0  0
 21 22  1  0  0  0  0
 21 24  1  0  0  0  0
 21 84  1  1  0  0  0
 22 23  1  0  0  0  0
 22 85  1  0  0  0  0
 22 86  1  0  0  0  0
 23 87  1  0  0  0  0
 24 25  1  0  0  0  0
 24 35  1  0  0  0  0
 24 88  1  6  0  0  0
 26 25  1  0  0  0  0
 26 27  1  0  0  0  0
 26 89  1  6  0  0  0
 27 28  1  0  0  0  0
 28 29  1  0  0  0  0
 28 31  1  0  0  0  0
 28 90  1  1  0  0  0
 29 30  1  0  0  0  0
 29 91  1  0  0  0  0
 29 92  1  0  0  0  0
 30 93  1  0  0  0  0
 31 32  1  0  0  0  0
 31 33  1  0  0  0  0
 31 94  1  6  0  0  0
 32 95  1  0  0  0  0
 33 34  1  0  0  0  0
 33 26  1  0  0  0  0
 33 96  1  6  0  0  0
 34 97  1  0  0  0  0
 35 36  1  0  0  0  0
 35 37  1  0  0  0  0
 35 98  1  1  0  0  0
 36 99  1  0  0  0  0
 37 38  1  0  0  0  0
 37 19  1  0  0  0  0
 37100  1  1  0  0  0
 39 38  1  0  0  0  0
 39 40  1  0  0  0  0
 39101  1  1  0  0  0
 40 41  1  0  0  0  0
 41 42  1  0  0  0  0
 41 43  1  0  0  0  0
 41102  1  6  0  0  0
 42103  1  0  0  0  0
 42104  1  0  0  0  0
 42105  1  0  0  0  0
 43 44  1  0  0  0  0
 43 45  1  0  0  0  0
 43106  1  1  0  0  0
 44107  1  0  0  0  0
 45 46  1  0  0  0  0
 45 47  1  0  0  0  0
 45108  1  1  0  0  0
 46109  1  0  0  0  0
 47 48  1  0  0  0  0
 47 39  1  0  0  0  0
 47110  1  6  0  0  0
 48111  1  0  0  0  0
 49 50  1  0  0  0  0
 49112  1  0  0  0  0
 49113  1  0  0  0  0
 50 51  1  0  0  0  0
 50114  1  0  0  0  0
 50115  1  0  0  0  0
 51 52  1  1  0  0  0
 51 53  1  0  0  0  0
 51 15  1  0  0  0  0
 52116  1  0  0  0  0
 52117  1  0  0  0  0
 52118  1  0  0  0  0
 53 54  1  0  0  0  0
 53 12  1  0  0  0  0
 53119  1  6  0  0  0
 54 55  1  0  0  0  0
 54120  1  0  0  0  0
 54121  1  0  0  0  0
 55 56  1  0  0  0  0
 55122  1  0  0  0  0
 55123  1  0  0  0  0
 56 57  1  1  0  0  0
 56 58  1  0  0  0  0
 56 11  1  0  0  0  0
 57124  1  0  0  0  0
 57125  1  0  0  0  0
 57126  1  0  0  0  0
 58 59  1  6  0  0  0
 58 60  1  0  0  0  0
 58  9  1  0  0  0  0
 59127  1  0  0  0  0
 60 61  1  0  0  0  0
 60  5  1  0  0  0  0
 60128  1  1  0  0  0
 61129  1  0  0  0  0
 61130  1  0  0  0  0
 61131  1  0  0  0  0
M  END
>  <IDENTIFIER>
CNP0192360.2

>  <Energy>
2002.75

$$$$
