
 OpenBabel09082503473D

 58 60  0  0  0  0  0  0  0  0999 V2000
   -5.3623   -2.0679   -0.6830 C   0  0  0  0  0  0  0  0  0  0  0  0
   -4.8950   -2.1617    0.7758 C   0  0  0  0  0  0  0  0  0  0  0  0
   -3.6052   -2.9894    0.9094 C   0  0  0  0  0  0  0  0  0  0  0  0
   -4.8491   -0.7639    1.4576 C   0  0  0  0  0  0  0  0  0  0  0  0
   -4.1786    0.3271    0.6963 N   0  0  0  0  0  0  0  0  0  0  0  0
   -4.5262    1.6542    1.2455 C   0  0  0  0  0  0  0  0  0  0  0  0
   -4.7812    2.6231    0.0910 C   0  0  0  0  0  0  0  0  0  0  0  0
   -3.5208    3.1653   -0.5791 C   0  0  0  0  0  0  0  0  0  0  0  0
   -2.4952    2.1383   -1.1053 C   0  0  1  0  0  0  0  0  0  0  0  0
   -1.4866    2.8570   -1.7789 O   0  0  0  0  0  0  0  0  0  0  0  0
   -1.8693    1.2980    0.0422 C   0  0  2  0  0  0  0  0  0  0  0  0
   -0.5757    0.7711   -0.3901 N   0  0  0  0  0  0  0  0  0  0  0  0
    0.6129    1.1372    0.1803 C   0  0  0  0  0  0  0  0  0  0  0  0
    0.6140    1.9509    1.0947 O   0  0  0  0  0  0  0  0  0  0  0  0
    1.9329    0.6002   -0.2916 C   0  0  0  0  0  0  0  0  0  0  0  0
    3.1190    1.1388    0.2459 C   0  0  0  0  0  0  0  0  0  0  0  0
    4.3713    0.6821   -0.1674 C   0  0  0  0  0  0  0  0  0  0  0  0
    4.4764   -0.3413   -1.1264 C   0  0  0  0  0  0  0  0  0  0  0  0
    5.6721   -0.8193   -1.5680 O   0  0  0  0  0  0  0  0  0  0  0  0
    6.9295   -0.4545   -1.1196 C   0  0  0  0  0  0  0  0  0  0  0  0
    7.1663   -0.9449    0.3222 C   0  0  0  0  0  0  0  0  0  0  0  0
    8.5876   -0.6106    0.7478 C   0  0  0  0  0  0  0  0  0  0  0  0
    8.1674   -2.0648    0.5670 C   0  0  0  0  0  0  0  0  0  0  0  0
    3.3048   -0.8843   -1.6629 C   0  0  0  0  0  0  0  0  0  0  0  0
    2.0473   -0.4229   -1.2575 C   0  0  0  0  0  0  0  0  0  0  0  0
   -2.7375    0.0913    0.4748 C   0  0  0  0  0  0  0  0  0  0  0  0
   -5.4843   -3.0848   -1.1129 H   0  0  0  0  0  0  0  0  0  0  0  0
   -4.6291   -1.5119   -1.3029 H   0  0  0  0  0  0  0  0  0  0  0  0
   -6.3415   -1.5466   -0.7391 H   0  0  0  0  0  0  0  0  0  0  0  0
   -5.6579   -2.7471    1.3378 H   0  0  0  0  0  0  0  0  0  0  0  0
   -2.7435   -2.5893    0.3539 H   0  0  0  0  0  0  0  0  0  0  0  0
   -3.7848   -4.0142    0.5191 H   0  0  0  0  0  0  0  0  0  0  0  0
   -3.3268   -3.0793    1.9808 H   0  0  0  0  0  0  0  0  0  0  0  0
   -4.4441   -0.8418    2.4911 H   0  0  0  0  0  0  0  0  0  0  0  0
   -5.9244   -0.4911    1.5562 H   0  0  0  0  0  0  0  0  0  0  0  0
   -3.7895    2.0281    1.9895 H   0  0  0  0  0  0  0  0  0  0  0  0
   -5.5013    1.6059    1.7797 H   0  0  0  0  0  0  0  0  0  0  0  0
   -5.3263    3.5096    0.4851 H   0  0  0  0  0  0  0  0  0  0  0  0
   -5.4409    2.1280   -0.6552 H   0  0  0  0  0  0  0  0  0  0  0  0
   -3.0023    3.8247    0.1524 H   0  0  0  0  0  0  0  0  0  0  0  0
   -3.8492    3.8084   -1.4247 H   0  0  0  0  0  0  0  0  0  0  0  0
   -2.9556    1.4611   -1.8580 H   0  0  0  0  0  0  0  0  0  0  0  0
   -1.0188    3.4293   -1.1147 H   0  0  0  0  0  0  0  0  0  0  0  0
   -1.7250    1.9793    0.9080 H   0  0  0  0  0  0  0  0  0  0  0  0
   -0.5883    0.1162   -1.1834 H   0  0  0  0  0  0  0  0  0  0  0  0
    3.0842    1.9287    0.9861 H   0  0  0  0  0  0  0  0  0  0  0  0
    5.2488    1.1400    0.2660 H   0  0  0  0  0  0  0  0  0  0  0  0
    7.0457    0.6491   -1.1845 H   0  0  0  0  0  0  0  0  0  0  0  0
    7.6796   -0.8990   -1.8087 H   0  0  0  0  0  0  0  0  0  0  0  0
    6.5138   -0.5884    1.1463 H   0  0  0  0  0  0  0  0  0  0  0  0
    8.8180   -0.5135    1.8302 H   0  0  0  0  0  0  0  0  0  0  0  0
    9.3910   -0.4587   -0.0050 H   0  0  0  0  0  0  0  0  0  0  0  0
    7.7658   -2.6275    1.4363 H   0  0  0  0  0  0  0  0  0  0  0  0
    8.3453   -2.5740   -0.4039 H   0  0  0  0  0  0  0  0  0  0  0  0
    3.3679   -1.6712   -2.4046 H   0  0  0  0  0  0  0  0  0  0  0  0
    1.1858   -0.8869   -1.7097 H   0  0  0  0  0  0  0  0  0  0  0  0
   -2.2667   -0.3631    1.3756 H   0  0  0  0  0  0  0  0  0  0  0  0
   -2.6752   -0.6197   -0.3697 H   0  0  0  0  0  0  0  0  0  0  0  0
  1  2  1  0  0  0  0
  1 27  1  0  0  0  0
  1 28  1  0  0  0  0
  1 29  1  0  0  0  0
  2  3  1  0  0  0  0
  2  4  1  0  0  0  0
  2 30  1  0  0  0  0
  3 31  1  0  0  0  0
  3 32  1  0  0  0  0
  3 33  1  0  0  0  0
  4  5  1  0  0  0  0
  4 34  1  0  0  0  0
  4 35  1  0  0  0  0
  5  6  1  0  0  0  0
  6  7  1  0  0  0  0
  6 36  1  0  0  0  0
  6 37  1  0  0  0  0
  7  8  1  0  0  0  0
  7 38  1  0  0  0  0
  7 39  1  0  0  0  0
  8  9  1  0  0  0  0
  8 40  1  0  0  0  0
  8 41  1  0  0  0  0
  9 10  1  0  0  0  0
  9 11  1  0  0  0  0
  9 42  1  6  0  0  0
 10 43  1  0  0  0  0
 11 12  1  0  0  0  0
 11 26  1  0  0  0  0
 11 44  1  1  0  0  0
 12 13  1  0  0  0  0
 12 45  1  0  0  0  0
 13 14  2  0  0  0  0
 13 15  1  0  0  0  0
 15 16  2  0  0  0  0
 16 17  1  0  0  0  0
 16 46  1  0  0  0  0
 17 18  2  0  0  0  0
 17 47  1  0  0  0  0
 18 19  1  0  0  0  0
 18 24  1  0  0  0  0
 19 20  1  0  0  0  0
 20 21  1  0  0  0  0
 20 48  1  0  0  0  0
 20 49  1  0  0  0  0
 21 22  1  0  0  0  0
 21 50  1  0  0  0  0
 22 23  1  0  0  0  0
 22 51  1  0  0  0  0
 22 52  1  0  0  0  0
 23 21  1  0  0  0  0
 23 53  1  0  0  0  0
 23 54  1  0  0  0  0
 24 25  2  0  0  0  0
 24 55  1  0  0  0  0
 25 15  1  0  0  0  0
 25 56  1  0  0  0  0
 26  5  1  0  0  0  0
 26 57  1  0  0  0  0
 26 58  1  0  0  0  0
M  END
>  <IDENTIFIER>
CNP0462698.1

>  <Energy>
1682

$$$$
