
 OpenBabel09112521253D

 76 75  0  0  0  0  0  0  0  0999 V2000
    9.0673    3.7794    0.0128 C   0  0  0  0  0  0  0  0  0  0  0  0
    8.1947    2.5284   -0.0608 C   0  0  0  0  0  0  0  0  0  0  0  0
    6.9956    2.7561   -0.9873 C   0  0  0  0  0  0  0  0  0  0  0  0
    6.1286    1.5198   -1.3105 C   0  0  0  0  0  0  0  0  0  0  0  0
    5.3282    0.8762   -0.1587 C   0  0  0  0  0  0  0  0  0  0  0  0
    6.1385   -0.0929    0.7313 C   0  0  0  0  0  0  0  0  0  0  0  0
    5.3325   -0.7408    1.8784 C   0  0  0  0  0  0  0  0  0  0  0  0
    4.4520   -1.9677    1.5472 C   0  0  0  0  0  0  0  0  0  0  0  0
    3.2836   -1.7206    0.5889 C   0  0  0  0  0  0  0  0  0  0  0  0
    2.3638   -2.9473    0.5050 C   0  0  0  0  0  0  0  0  0  0  0  0
    1.2316   -2.7684   -0.5244 C   0  0  0  0  0  0  0  0  0  0  0  0
    0.2732   -1.5911   -0.2481 C   0  0  0  0  0  0  0  0  0  0  0  0
   -0.4540   -1.6433    1.1105 C   0  0  0  0  0  0  0  0  0  0  0  0
   -1.3285   -2.8927    1.3250 C   0  0  0  0  0  0  0  0  0  0  0  0
   -2.5310   -3.0739    0.3696 C   0  0  0  0  0  0  0  0  0  0  0  0
   -3.6965   -2.0938    0.6081 C   0  0  0  0  0  0  0  0  0  0  0  0
   -3.4523   -0.6803    0.1421 C   0  0  0  0  0  0  0  0  0  0  0  0
   -3.4172    0.2198    0.9691 O   0  0  0  0  0  0  0  0  0  0  0  0
   -3.3017   -0.3338   -1.3192 C   0  0  0  0  0  0  0  0  0  0  0  0
   -4.5235   -0.6780   -2.1971 C   0  0  0  0  0  0  0  0  0  0  0  0
   -5.7992    0.1424   -1.9144 C   0  0  0  0  0  0  0  0  0  0  0  0
   -6.5169   -0.2269   -0.6035 C   0  0  0  0  0  0  0  0  0  0  0  0
   -7.8353    0.5419   -0.4006 C   0  0  0  0  0  0  0  0  0  0  0  0
   -7.6904    2.0735   -0.3073 C   0  0  0  0  0  0  0  0  0  0  0  0
   -6.7877    2.5249    0.8519 C   0  0  0  0  0  0  0  0  0  0  0  0
   -6.7317    4.0467    0.9429 C   0  0  0  0  0  0  0  0  0  0  0  0
    9.9246    3.5959    0.6946 H   0  0  0  0  0  0  0  0  0  0  0  0
    8.4798    4.6381    0.4025 H   0  0  0  0  0  0  0  0  0  0  0  0
    9.4635    4.0350   -0.9932 H   0  0  0  0  0  0  0  0  0  0  0  0
    7.8517    2.3213    0.9677 H   0  0  0  0  0  0  0  0  0  0  0  0
    8.8110    1.6852   -0.4412 H   0  0  0  0  0  0  0  0  0  0  0  0
    7.3895    3.1135   -1.9650 H   0  0  0  0  0  0  0  0  0  0  0  0
    6.3536    3.5602   -0.5656 H   0  0  0  0  0  0  0  0  0  0  0  0
    6.7194    0.7425   -1.8424 H   0  0  0  0  0  0  0  0  0  0  0  0
    5.3725    1.9013   -2.0332 H   0  0  0  0  0  0  0  0  0  0  0  0
    4.5366    0.3046   -0.6559 H   0  0  0  0  0  0  0  0  0  0  0  0
    4.8319    1.6669    0.4445 H   0  0  0  0  0  0  0  0  0  0  0  0
    6.9277    0.4853    1.2291 H   0  0  0  0  0  0  0  0  0  0  0  0
    6.6357   -0.8829    0.1281 H   0  0  0  0  0  0  0  0  0  0  0  0
    4.7433    0.0394    2.4080 H   0  0  0  0  0  0  0  0  0  0  0  0
    6.0813   -1.1295    2.6043 H   0  0  0  0  0  0  0  0  0  0  0  0
    4.0299   -2.3105    2.5181 H   0  0  0  0  0  0  0  0  0  0  0  0
    5.0869   -2.7870    1.1441 H   0  0  0  0  0  0  0  0  0  0  0  0
    3.6726   -1.5463   -0.4295 H   0  0  0  0  0  0  0  0  0  0  0  0
    2.7062   -0.8445    0.9509 H   0  0  0  0  0  0  0  0  0  0  0  0
    1.9395   -3.1749    1.5057 H   0  0  0  0  0  0  0  0  0  0  0  0
    2.9681   -3.8260    0.1889 H   0  0  0  0  0  0  0  0  0  0  0  0
    0.6503   -3.7123   -0.5785 H   0  0  0  0  0  0  0  0  0  0  0  0
    1.6859   -2.6133   -1.5274 H   0  0  0  0  0  0  0  0  0  0  0  0
   -0.4667   -1.5648   -1.0660 H   0  0  0  0  0  0  0  0  0  0  0  0
    0.8375   -0.6370   -0.3041 H   0  0  0  0  0  0  0  0  0  0  0  0
   -1.0651   -0.7301    1.2299 H   0  0  0  0  0  0  0  0  0  0  0  0
    0.3064   -1.6090    1.9187 H   0  0  0  0  0  0  0  0  0  0  0  0
   -1.7140   -2.8809    2.3678 H   0  0  0  0  0  0  0  0  0  0  0  0
   -0.6782   -3.7877    1.2436 H   0  0  0  0  0  0  0  0  0  0  0  0
   -2.9400   -4.0819    0.6033 H   0  0  0  0  0  0  0  0  0  0  0  0
   -2.2201   -3.0945   -0.6953 H   0  0  0  0  0  0  0  0  0  0  0  0
   -3.9379   -2.1020    1.6941 H   0  0  0  0  0  0  0  0  0  0  0  0
   -4.5949   -2.4698    0.0768 H   0  0  0  0  0  0  0  0  0  0  0  0
   -2.4344   -0.8840   -1.7253 H   0  0  0  0  0  0  0  0  0  0  0  0
   -3.0886    0.7526   -1.4273 H   0  0  0  0  0  0  0  0  0  0  0  0
   -4.7462   -1.7659   -2.1666 H   0  0  0  0  0  0  0  0  0  0  0  0
   -4.2229   -0.4376   -3.2405 H   0  0  0  0  0  0  0  0  0  0  0  0
   -6.5121   -0.0614   -2.7433 H   0  0  0  0  0  0  0  0  0  0  0  0
   -5.5386    1.2209   -1.9403 H   0  0  0  0  0  0  0  0  0  0  0  0
   -5.8783   -0.0470    0.2749 H   0  0  0  0  0  0  0  0  0  0  0  0
   -6.7566   -1.3121   -0.6279 H   0  0  0  0  0  0  0  0  0  0  0  0
   -8.3074    0.1745    0.5367 H   0  0  0  0  0  0  0  0  0  0  0  0
   -8.5243    0.3034   -1.2403 H   0  0  0  0  0  0  0  0  0  0  0  0
   -8.7073    2.4968   -0.1539 H   0  0  0  0  0  0  0  0  0  0  0  0
   -7.3017    2.4793   -1.2645 H   0  0  0  0  0  0  0  0  0  0  0  0
   -5.7525    2.1542    0.7003 H   0  0  0  0  0  0  0  0  0  0  0  0
   -7.1795    2.1211    1.8106 H   0  0  0  0  0  0  0  0  0  0  0  0
   -6.3234    4.4739    0.0022 H   0  0  0  0  0  0  0  0  0  0  0  0
   -6.0710    4.3444    1.7845 H   0  0  0  0  0  0  0  0  0  0  0  0
   -7.7465    4.4604    1.1231 H   0  0  0  0  0  0  0  0  0  0  0  0
  1  2  1  0  0  0  0
  1 27  1  0  0  0  0
  1 28  1  0  0  0  0
  1 29  1  0  0  0  0
  2  3  1  0  0  0  0
  2 30  1  0  0  0  0
  2 31  1  0  0  0  0
  3  4  1  0  0  0  0
  3 32  1  0  0  0  0
  3 33  1  0  0  0  0
  4  5  1  0  0  0  0
  4 34  1  0  0  0  0
  4 35  1  0  0  0  0
  5  6  1  0  0  0  0
  5 36  1  0  0  0  0
  5 37  1  0  0  0  0
  6  7  1  0  0  0  0
  6 38  1  0  0  0  0
  6 39  1  0  0  0  0
  7  8  1  0  0  0  0
  7 40  1  0  0  0  0
  7 41  1  0  0  0  0
  8  9  1  0  0  0  0
  8 42  1  0  0  0  0
  8 43  1  0  0  0  0
  9 10  1  0  0  0  0
  9 44  1  0  0  0  0
  9 45  1  0  0  0  0
 10 11  1  0  0  0  0
 10 46  1  0  0  0  0
 10 47  1  0  0  0  0
 11 12  1  0  0  0  0
 11 48  1  0  0  0  0
 11 49  1  0  0  0  0
 12 13  1  0  0  0  0
 12 50  1  0  0  0  0
 12 51  1  0  0  0  0
 13 14  1  0  0  0  0
 13 52  1  0  0  0  0
 13 53  1  0  0  0  0
 14 15  1  0  0  0  0
 14 54  1  0  0  0  0
 14 55  1  0  0  0  0
 15 16  1  0  0  0  0
 15 56  1  0  0  0  0
 15 57  1  0  0  0  0
 16 17  1  0  0  0  0
 16 58  1  0  0  0  0
 16 59  1  0  0  0  0
 17 18  2  0  0  0  0
 17 19  1  0  0  0  0
 19 20  1  0  0  0  0
 19 60  1  0  0  0  0
 19 61  1  0  0  0  0
 20 21  1  0  0  0  0
 20 62  1  0  0  0  0
 20 63  1  0  0  0  0
 21 22  1  0  0  0  0
 21 64  1  0  0  0  0
 21 65  1  0  0  0  0
 22 23  1  0  0  0  0
 22 66  1  0  0  0  0
 22 67  1  0  0  0  0
 23 24  1  0  0  0  0
 23 68  1  0  0  0  0
 23 69  1  0  0  0  0
 24 25  1  0  0  0  0
 24 70  1  0  0  0  0
 24 71  1  0  0  0  0
 25 26  1  0  0  0  0
 25 72  1  0  0  0  0
 25 73  1  0  0  0  0
 26 74  1  0  0  0  0
 26 75  1  0  0  0  0
 26 76  1  0  0  0  0
M  END
>  <IDENTIFIER>
CNP0274258.0

>  <Energy>
248.305

$$$$
