
 OpenBabel09092510513D

 70 74  0  0  0  0  0  0  0  0999 V2000
    5.3894   -0.3166    1.1397 C   0  0  0  0  0  0  0  0  0  0  0  0
    5.1588   -0.4159   -0.3494 C   0  0  0  0  0  0  0  0  0  0  0  0
    6.2997   -0.1301   -1.2917 C   0  0  0  0  0  0  0  0  0  0  0  0
    3.9550   -0.7396   -0.8755 C   0  0  0  0  0  0  0  0  0  0  0  0
    2.6925   -0.9986   -0.0747 C   0  0  0  0  0  0  0  0  0  0  0  0
    1.6446    0.0660   -0.4797 C   0  0  0  0  0  0  0  0  0  0  0  0
    0.2289    0.2723    0.2526 C   0  0  2  0  0  0  0  0  0  0  0  0
   -0.8573   -0.8915   -0.1472 C   0  0  2  0  0  0  0  0  0  0  0  0
   -0.2461   -2.1667   -0.8163 C   0  0  0  0  0  0  0  0  0  0  0  0
   -1.2822   -3.1298   -1.3238 C   0  0  0  0  0  0  0  0  0  0  0  0
   -1.2250   -4.3129   -1.0240 O   0  0  0  0  0  0  0  0  0  0  0  0
   -2.3929   -2.6231   -2.2159 C   0  0  2  0  0  0  0  0  0  0  0  0
   -2.3496   -1.0989   -2.2704 C   0  0  0  0  0  0  0  0  0  0  0  0
   -2.2862   -0.5344   -0.8006 C   0  0  2  0  0  0  0  0  0  0  0  0
   -2.5950    0.9785   -0.9445 C   0  0  0  0  0  0  0  0  0  0  0  0
   -1.8554    1.8746    0.0303 C   0  0  0  0  0  0  0  0  0  0  0  0
   -0.3045    1.7833   -0.1070 C   0  0  2  0  0  0  0  0  0  0  0  0
    0.0669    2.1600   -1.5865 C   0  0  0  0  0  0  0  0  0  0  0  0
    0.2333    2.9180    0.9180 C   0  0  2  0  0  0  0  0  0  0  0  0
    0.3135    4.3396    0.3199 C   0  0  0  0  0  0  0  0  0  0  0  0
    1.5660    2.5802    1.5868 C   0  0  0  0  0  0  0  0  0  0  0  0
    1.4717    1.2581    2.3681 C   0  0  0  0  0  0  0  0  0  0  0  0
    0.4106    0.2671    1.8305 C   0  0  2  0  0  0  0  0  0  0  0  0
    0.6104   -0.9896    2.4371 O   0  0  0  0  0  0  0  0  0  0  0  0
   -3.4159   -1.2263    0.0512 C   0  0  0  0  0  0  0  0  0  0  0  0
   -3.8000   -0.7378    1.3209 C   0  0  0  0  0  0  0  0  0  0  0  0
   -4.8257   -1.3446    2.0510 C   0  0  0  0  0  0  0  0  0  0  0  0
   -5.4934   -2.4516    1.5382 C   0  0  0  0  0  0  0  0  0  0  0  0
   -5.1198   -2.9774    0.3056 C   0  0  0  0  0  0  0  0  0  0  0  0
   -4.0823   -2.3889   -0.4294 C   0  0  0  0  0  0  0  0  0  0  0  0
   -3.6676   -2.9876   -1.6428 N   0  0  0  0  0  0  0  0  0  0  0  0
    6.4379   -0.0401    1.3748 H   0  0  0  0  0  0  0  0  0  0  0  0
    5.1816   -1.2974    1.6178 H   0  0  0  0  0  0  0  0  0  0  0  0
    4.7296    0.4607    1.5766 H   0  0  0  0  0  0  0  0  0  0  0  0
    7.2305    0.1294   -0.7456 H   0  0  0  0  0  0  0  0  0  0  0  0
    6.0343    0.7308   -1.9425 H   0  0  0  0  0  0  0  0  0  0  0  0
    6.5009   -1.0178   -1.9268 H   0  0  0  0  0  0  0  0  0  0  0  0
    3.8603   -0.7932   -1.9580 H   0  0  0  0  0  0  0  0  0  0  0  0
    2.9073   -0.9235    1.0034 H   0  0  0  0  0  0  0  0  0  0  0  0
    2.3812   -2.0288   -0.2943 H   0  0  0  0  0  0  0  0  0  0  0  0
    1.4808   -0.0237   -1.5729 H   0  0  0  0  0  0  0  0  0  0  0  0
    2.2175    0.9829   -0.3706 H   0  0  0  0  0  0  0  0  0  0  0  0
   -1.1741   -1.2890    0.8373 H   0  0  0  0  0  0  0  0  0  0  0  0
    0.4277   -2.7051   -0.1278 H   0  0  0  0  0  0  0  0  0  0  0  0
    0.3040   -1.8641   -1.7276 H   0  0  0  0  0  0  0  0  0  0  0  0
   -2.3042   -3.0841   -3.2239 H   0  0  0  0  0  0  0  0  0  0  0  0
   -3.2646   -0.7545   -2.8048 H   0  0  0  0  0  0  0  0  0  0  0  0
   -1.4709   -0.7407   -2.8513 H   0  0  0  0  0  0  0  0  0  0  0  0
   -3.6934    1.1515   -0.8960 H   0  0  0  0  0  0  0  0  0  0  0  0
   -2.3319    1.3458   -1.9562 H   0  0  0  0  0  0  0  0  0  0  0  0
   -2.1625    1.6707    1.0651 H   0  0  0  0  0  0  0  0  0  0  0  0
   -2.1888    2.9137   -0.1822 H   0  0  0  0  0  0  0  0  0  0  0  0
   -0.4390    3.0939   -1.9093 H   0  0  0  0  0  0  0  0  0  0  0  0
   -0.2221    1.3648   -2.3026 H   0  0  0  0  0  0  0  0  0  0  0  0
    1.1524    2.3323   -1.7217 H   0  0  0  0  0  0  0  0  0  0  0  0
   -0.4658    2.9812    1.7835 H   0  0  0  0  0  0  0  0  0  0  0  0
    1.0807    4.3855   -0.4839 H   0  0  0  0  0  0  0  0  0  0  0  0
    0.6143    5.0704    1.1002 H   0  0  0  0  0  0  0  0  0  0  0  0
   -0.6630    4.6626   -0.0910 H   0  0  0  0  0  0  0  0  0  0  0  0
    1.8960    3.3709    2.2963 H   0  0  0  0  0  0  0  0  0  0  0  0
    2.3637    2.5707    0.8279 H   0  0  0  0  0  0  0  0  0  0  0  0
    1.1751    1.4640    3.4217 H   0  0  0  0  0  0  0  0  0  0  0  0
    2.4887    0.8217    2.4096 H   0  0  0  0  0  0  0  0  0  0  0  0
   -0.5723    0.6089    2.2180 H   0  0  0  0  0  0  0  0  0  0  0  0
    0.9983   -1.6182    1.7867 H   0  0  0  0  0  0  0  0  0  0  0  0
   -3.3245    0.1102    1.7671 H   0  0  0  0  0  0  0  0  0  0  0  0
   -5.1066   -0.9485    3.0180 H   0  0  0  0  0  0  0  0  0  0  0  0
   -6.2884   -2.9181    2.1062 H   0  0  0  0  0  0  0  0  0  0  0  0
   -5.6259   -3.8551   -0.0735 H   0  0  0  0  0  0  0  0  0  0  0  0
   -4.2455   -3.7087   -2.0976 H   0  0  0  0  0  0  0  0  0  0  0  0
  1  2  1  0  0  0  0
  1 32  1  0  0  0  0
  1 33  1  0  0  0  0
  1 34  1  0  0  0  0
  2  3  1  0  0  0  0
  2  4  2  0  0  0  0
  3 35  1  0  0  0  0
  3 36  1  0  0  0  0
  3 37  1  0  0  0  0
  4  5  1  0  0  0  0
  4 38  1  0  0  0  0
  5  6  1  0  0  0  0
  5 39  1  0  0  0  0
  5 40  1  0  0  0  0
  6 41  1  0  0  0  0
  6 42  1  0  0  0  0
  7  6  1  6  0  0  0
  7  8  1  0  0  0  0
  8  9  1  0  0  0  0
  8 43  1  1  0  0  0
  9 10  1  0  0  0  0
  9 44  1  0  0  0  0
  9 45  1  0  0  0  0
 10 11  2  0  0  0  0
 10 12  1  0  0  0  0
 12 13  1  0  0  0  0
 12 31  1  0  0  0  0
 12 46  1  6  0  0  0
 13 14  1  0  0  0  0
 13 47  1  0  0  0  0
 13 48  1  0  0  0  0
 14 15  1  0  0  0  0
 14 25  1  1  0  0  0
 14  8  1  0  0  0  0
 15 16  1  0  0  0  0
 15 49  1  0  0  0  0
 15 50  1  0  0  0  0
 16 17  1  0  0  0  0
 16 51  1  0  0  0  0
 16 52  1  0  0  0  0
 17 18  1  6  0  0  0
 17 19  1  0  0  0  0
 17  7  1  0  0  0  0
 18 53  1  0  0  0  0
 18 54  1  0  0  0  0
 18 55  1  0  0  0  0
 19 20  1  0  0  0  0
 19 21  1  0  0  0  0
 19 56  1  1  0  0  0
 20 57  1  0  0  0  0
 20 58  1  0  0  0  0
 20 59  1  0  0  0  0
 21 22  1  0  0  0  0
 21 60  1  0  0  0  0
 21 61  1  0  0  0  0
 22 23  1  0  0  0  0
 22 62  1  0  0  0  0
 22 63  1  0  0  0  0
 23 24  1  0  0  0  0
 23  7  1  0  0  0  0
 23 64  1  1  0  0  0
 24 65  1  0  0  0  0
 25 26  2  0  0  0  0
 26 27  1  0  0  0  0
 26 66  1  0  0  0  0
 27 28  2  0  0  0  0
 27 67  1  0  0  0  0
 28 29  1  0  0  0  0
 28 68  1  0  0  0  0
 29 30  2  0  0  0  0
 29 69  1  0  0  0  0
 30 31  1  0  0  0  0
 30 25  1  0  0  0  0
 31 70  1  0  0  0  0
M  END
>  <IDENTIFIER>
CNP0271057.2

>  <Energy>
1026.78

$$$$
