
 OpenBabel09092520543D

 35 37  0  0  0  0  0  0  0  0999 V2000
    6.1286   -0.7642    0.4369 C   0  0  0  0  0  0  0  0  0  0  0  0
    4.9987   -0.1580    1.2548 C   0  0  0  0  0  0  0  0  0  0  0  0
    3.9038    0.0628    0.4433 O   0  0  0  0  0  0  0  0  0  0  0  0
    2.7506    0.6355    0.8739 C   0  0  0  0  0  0  0  0  0  0  0  0
    2.6328    1.0059    2.0347 O   0  0  0  0  0  0  0  0  0  0  0  0
    1.6410    0.8960   -0.1092 C   0  0  0  0  0  0  0  0  0  0  0  0
    0.2801    0.2374    0.1512 C   0  0  0  0  0  0  0  0  0  0  0  0
   -0.8069    0.5606   -0.7076 C   0  0  0  0  0  0  0  0  0  0  0  0
   -0.6201    1.5343   -1.8691 C   0  0  0  0  0  0  0  0  0  0  0  0
   -1.7601    1.7647   -2.6242 O   0  0  0  0  0  0  0  0  0  0  0  0
   -2.9761    1.2143   -2.4064 C   0  0  0  0  0  0  0  0  0  0  0  0
   -3.9049    1.5048   -3.1443 O   0  0  0  0  0  0  0  0  0  0  0  0
   -3.1658    0.2766   -1.2880 C   0  0  0  0  0  0  0  0  0  0  0  0
   -2.0660   -0.0230   -0.4726 C   0  0  0  0  0  0  0  0  0  0  0  0
   -2.2171   -0.9180    0.6037 C   0  0  0  0  0  0  0  0  0  0  0  0
   -3.4701   -1.5082    0.8627 C   0  0  0  0  0  0  0  0  0  0  0  0
   -3.6305   -2.3682    1.8925 O   0  0  0  0  0  0  0  0  0  0  0  0
   -4.5696   -1.1989    0.0411 C   0  0  0  0  0  0  0  0  0  0  0  0
   -5.7852   -1.7431    0.2624 O   0  0  0  0  0  0  0  0  0  0  0  0
   -4.4127   -0.3121   -1.0275 C   0  0  0  0  0  0  0  0  0  0  0  0
   -1.1789   -1.2064    1.3753 O   0  0  0  0  0  0  0  0  0  0  0  0
    0.0298   -0.6856    1.2025 C   0  0  0  0  0  0  0  0  0  0  0  0
    0.9127   -1.0327    1.9641 O   0  0  0  0  0  0  0  0  0  0  0  0
    7.0117   -0.9355    1.0881 H   0  0  0  0  0  0  0  0  0  0  0  0
    6.4167   -0.0719   -0.3829 H   0  0  0  0  0  0  0  0  0  0  0  0
    5.8076   -1.7333    0.0003 H   0  0  0  0  0  0  0  0  0  0  0  0
    5.3467    0.8057    1.6877 H   0  0  0  0  0  0  0  0  0  0  0  0
    4.7246   -0.8523    2.0791 H   0  0  0  0  0  0  0  0  0  0  0  0
    1.9864    0.5804   -1.1170 H   0  0  0  0  0  0  0  0  0  0  0  0
    1.5037    1.9975   -0.1154 H   0  0  0  0  0  0  0  0  0  0  0  0
    0.1611    1.1356   -2.5492 H   0  0  0  0  0  0  0  0  0  0  0  0
   -0.2803    2.5126   -1.4714 H   0  0  0  0  0  0  0  0  0  0  0  0
   -2.9090   -2.6150    2.4880 H   0  0  0  0  0  0  0  0  0  0  0  0
   -5.9596   -2.3602    0.9867 H   0  0  0  0  0  0  0  0  0  0  0  0
   -5.2678   -0.0829   -1.6523 H   0  0  0  0  0  0  0  0  0  0  0  0
  1  2  1  0  0  0  0
  1 24  1  0  0  0  0
  1 25  1  0  0  0  0
  1 26  1  0  0  0  0
  2  3  1  0  0  0  0
  2 27  1  0  0  0  0
  2 28  1  0  0  0  0
  3  4  1  0  0  0  0
  4  5  2  0  0  0  0
  4  6  1  0  0  0  0
  6  7  1  0  0  0  0
  6 29  1  0  0  0  0
  6 30  1  0  0  0  0
  7  8  2  0  0  0  0
  8  9  1  0  0  0  0
  9 10  1  0  0  0  0
  9 31  1  0  0  0  0
  9 32  1  0  0  0  0
 10 11  1  0  0  0  0
 11 12  2  0  0  0  0
 11 13  1  0  0  0  0
 13 14  2  0  0  0  0
 14 15  1  0  0  0  0
 14  8  1  0  0  0  0
 15 16  2  0  0  0  0
 15 21  1  0  0  0  0
 16 17  1  0  0  0  0
 16 18  1  0  0  0  0
 17 33  1  0  0  0  0
 18 19  1  0  0  0  0
 18 20  2  0  0  0  0
 19 34  1  0  0  0  0
 20 13  1  0  0  0  0
 20 35  1  0  0  0  0
 21 22  1  0  0  0  0
 22 23  2  0  0  0  0
 22  7  1  0  0  0  0
M  END
>  <IDENTIFIER>
CNP0509923.0

>  <Energy>
204.374

$$$$
