
 OpenBabel09112501343D

 97 96  0  0  0  0  0  0  0  0999 V2000
   12.7725    1.7802    0.1446 C   0  0  0  0  0  0  0  0  0  0  0  0
   12.0411    0.4632    0.3804 C   0  0  0  0  0  0  0  0  0  0  0  0
   11.0002    0.1983   -0.7191 C   0  0  0  0  0  0  0  0  0  0  0  0
   10.2519   -1.1365   -0.5235 C   0  0  0  0  0  0  0  0  0  0  0  0
    9.4434   -1.2404    0.7861 C   0  0  0  0  0  0  0  0  0  0  0  0
    8.3066   -0.2115    0.8648 C   0  0  0  0  0  0  0  0  0  0  0  0
    7.5599   -0.3073    2.2056 C   0  0  0  0  0  0  0  0  0  0  0  0
    6.4023    0.7102    2.3145 C   0  0  0  0  0  0  0  0  0  0  0  0
    5.2606    0.5012    1.2994 C   0  0  0  0  0  0  0  0  0  0  0  0
    4.4800   -0.8003    1.5402 C   0  0  0  0  0  0  0  0  0  0  0  0
    3.5675   -1.2568    0.3880 C   0  0  0  0  0  0  0  0  0  0  0  0
    2.3607   -0.3908   -0.0129 C   0  0  0  0  0  0  0  0  0  0  0  0
    2.7090    0.8843   -0.8110 C   0  0  0  0  0  0  0  0  0  0  0  0
    1.4948    1.6676   -1.3564 C   0  0  0  0  0  0  0  0  0  0  0  0
    0.7457    1.0099   -2.5298 C   0  0  0  0  0  0  0  0  0  0  0  0
    0.0254   -0.2365   -2.1326 C   0  0  0  0  0  0  0  0  0  0  0  0
    0.2839   -1.2916   -2.6979 O   0  0  0  0  0  0  0  0  0  0  0  0
   -0.8967   -0.1845   -1.1383 O   0  0  0  0  0  0  0  0  0  0  0  0
   -1.4847   -1.3090   -0.6010 C   0  0  0  0  0  0  0  0  0  0  0  0
   -2.6484   -0.9317    0.3241 C   0  0  0  0  0  0  0  0  0  0  0  0
   -3.6458    0.0693   -0.2624 C   0  0  0  0  0  0  0  0  0  0  0  0
   -4.1462   -0.0558   -1.5191 C   0  0  0  0  0  0  0  0  0  0  0  0
   -3.7612   -1.0545   -2.3472 O   0  0  0  0  0  0  0  0  0  0  0  0
   -4.0510   -1.1037   -3.6724 C   0  0  0  0  0  0  0  0  0  0  0  0
   -3.4586   -2.1866   -4.5135 C   0  0  0  0  0  0  0  0  0  0  0  0
   -4.7568   -0.2543   -4.1984 O   0  0  0  0  0  0  0  0  0  0  0  0
   -4.0747    1.2485    0.6243 C   0  0  2  0  0  0  0  0  0  0  0  0
   -4.7842    0.7715    1.9093 C   0  0  0  0  0  0  0  0  0  0  0  0
   -6.0450    0.0158    1.5417 C   0  0  0  0  0  0  0  0  0  0  0  0
   -7.3223    0.4142    1.7436 C   0  0  0  0  0  0  0  0  0  0  0  0
   -7.7489    1.7038    2.4022 C   0  0  0  0  0  0  0  0  0  0  0  0
   -8.3691   -0.4267    1.2112 C   0  0  0  0  0  0  0  0  0  0  0  0
   -9.2609   -1.0632    0.7084 C   0  0  0  0  0  0  0  0  0  0  0  0
  -10.2502   -1.8368   -0.0031 C   0  0  0  0  0  0  0  0  0  0  0  0
  -11.4991   -2.0830    0.4445 C   0  0  0  0  0  0  0  0  0  0  0  0
  -12.0157   -1.5855    1.7726 C   0  0  0  0  0  0  0  0  0  0  0  0
  -12.4465   -2.8803   -0.4141 C   0  0  0  0  0  0  0  0  0  0  0  0
   -4.9631    2.0720   -0.0534 O   0  0  0  0  0  0  0  0  0  0  0  0
   -4.8171    3.3884   -0.3359 C   0  0  0  0  0  0  0  0  0  0  0  0
   -5.8561    4.0603   -1.1754 C   0  0  0  0  0  0  0  0  0  0  0  0
   -3.8605    4.0255    0.0792 O   0  0  0  0  0  0  0  0  0  0  0  0
   13.5193    1.9375    0.9515 H   0  0  0  0  0  0  0  0  0  0  0  0
   12.0516    2.6255    0.1598 H   0  0  0  0  0  0  0  0  0  0  0  0
   13.2992    1.7634   -0.8325 H   0  0  0  0  0  0  0  0  0  0  0  0
   11.5507    0.5275    1.3732 H   0  0  0  0  0  0  0  0  0  0  0  0
   12.7814   -0.3662    0.3964 H   0  0  0  0  0  0  0  0  0  0  0  0
   11.5233    0.1559   -1.6995 H   0  0  0  0  0  0  0  0  0  0  0  0
   10.2787    1.0397   -0.7688 H   0  0  0  0  0  0  0  0  0  0  0  0
   10.9960   -1.9621   -0.5428 H   0  0  0  0  0  0  0  0  0  0  0  0
    9.5623   -1.2855   -1.3834 H   0  0  0  0  0  0  0  0  0  0  0  0
   10.1189   -1.1372    1.6589 H   0  0  0  0  0  0  0  0  0  0  0  0
    8.9958   -2.2575    0.8356 H   0  0  0  0  0  0  0  0  0  0  0  0
    7.6228   -0.4055    0.0135 H   0  0  0  0  0  0  0  0  0  0  0  0
    8.7076    0.8190    0.7799 H   0  0  0  0  0  0  0  0  0  0  0  0
    8.2848   -0.0844    3.0185 H   0  0  0  0  0  0  0  0  0  0  0  0
    7.1974   -1.3406    2.3716 H   0  0  0  0  0  0  0  0  0  0  0  0
    6.8251    1.7279    2.1641 H   0  0  0  0  0  0  0  0  0  0  0  0
    5.9770    0.6711    3.3408 H   0  0  0  0  0  0  0  0  0  0  0  0
    5.6658    0.5285    0.2686 H   0  0  0  0  0  0  0  0  0  0  0  0
    4.5677    1.3522    1.4282 H   0  0  0  0  0  0  0  0  0  0  0  0
    3.9088   -0.7199    2.4910 H   0  0  0  0  0  0  0  0  0  0  0  0
    5.1961   -1.6365    1.6498 H   0  0  0  0  0  0  0  0  0  0  0  0
    3.1500   -2.2335    0.7229 H   0  0  0  0  0  0  0  0  0  0  0  0
    4.1821   -1.4600   -0.5165 H   0  0  0  0  0  0  0  0  0  0  0  0
    1.7297   -0.1563    0.8713 H   0  0  0  0  0  0  0  0  0  0  0  0
    1.7900   -1.0599   -0.6725 H   0  0  0  0  0  0  0  0  0  0  0  0
    3.3842    0.6360   -1.6582 H   0  0  0  0  0  0  0  0  0  0  0  0
    3.2320    1.5867   -0.1478 H   0  0  0  0  0  0  0  0  0  0  0  0
    1.8899    2.6284   -1.7531 H   0  0  0  0  0  0  0  0  0  0  0  0
    0.7913    1.9126   -0.5307 H   0  0  0  0  0  0  0  0  0  0  0  0
    1.4603    0.8005   -3.3570 H   0  0  0  0  0  0  0  0  0  0  0  0
   -0.0154    1.7258   -2.9065 H   0  0  0  0  0  0  0  0  0  0  0  0
   -0.7335   -1.9086   -0.0413 H   0  0  0  0  0  0  0  0  0  0  0  0
   -1.8553   -1.9607   -1.4158 H   0  0  0  0  0  0  0  0  0  0  0  0
   -2.2284   -0.5060    1.2614 H   0  0  0  0  0  0  0  0  0  0  0  0
   -3.1788   -1.8701    0.5910 H   0  0  0  0  0  0  0  0  0  0  0  0
   -4.8474    0.6792   -1.9003 H   0  0  0  0  0  0  0  0  0  0  0  0
   -2.8323   -2.8596   -3.8907 H   0  0  0  0  0  0  0  0  0  0  0  0
   -2.8203   -1.7350   -5.3027 H   0  0  0  0  0  0  0  0  0  0  0  0
   -4.2684   -2.7770   -4.9891 H   0  0  0  0  0  0  0  0  0  0  0  0
   -3.1581    1.8101    0.9130 H   0  0  0  0  0  0  0  0  0  0  0  0
   -4.9794    1.6673    2.5228 H   0  0  0  0  0  0  0  0  0  0  0  0
   -4.1298    0.1160    2.5214 H   0  0  0  0  0  0  0  0  0  0  0  0
   -5.8831   -0.9227    1.0146 H   0  0  0  0  0  0  0  0  0  0  0  0
   -6.9251    2.3450    2.7559 H   0  0  0  0  0  0  0  0  0  0  0  0
   -8.3929    1.4750    3.2766 H   0  0  0  0  0  0  0  0  0  0  0  0
   -8.3363    2.3020    1.6739 H   0  0  0  0  0  0  0  0  0  0  0  0
   -9.9439   -2.2157   -0.9730 H   0  0  0  0  0  0  0  0  0  0  0  0
  -11.2604   -1.0114    2.3465 H   0  0  0  0  0  0  0  0  0  0  0  0
  -12.3347   -2.4515    2.3900 H   0  0  0  0  0  0  0  0  0  0  0  0
  -12.8938   -0.9278    1.6007 H   0  0  0  0  0  0  0  0  0  0  0  0
  -11.9795   -3.1993   -1.3713 H   0  0  0  0  0  0  0  0  0  0  0  0
  -13.3354   -2.2607   -0.6557 H   0  0  0  0  0  0  0  0  0  0  0  0
  -12.7734   -3.7889    0.1323 H   0  0  0  0  0  0  0  0  0  0  0  0
   -6.6405    3.3289   -1.4686 H   0  0  0  0  0  0  0  0  0  0  0  0
   -5.3883    4.4663   -2.0963 H   0  0  0  0  0  0  0  0  0  0  0  0
   -6.3320    4.8844   -0.6050 H   0  0  0  0  0  0  0  0  0  0  0  0
  1  2  1  0  0  0  0
  1 42  1  0  0  0  0
  1 43  1  0  0  0  0
  1 44  1  0  0  0  0
  2  3  1  0  0  0  0
  2 45  1  0  0  0  0
  2 46  1  0  0  0  0
  3  4  1  0  0  0  0
  3 47  1  0  0  0  0
  3 48  1  0  0  0  0
  4  5  1  0  0  0  0
  4 49  1  0  0  0  0
  4 50  1  0  0  0  0
  5  6  1  0  0  0  0
  5 51  1  0  0  0  0
  5 52  1  0  0  0  0
  6  7  1  0  0  0  0
  6 53  1  0  0  0  0
  6 54  1  0  0  0  0
  7  8  1  0  0  0  0
  7 55  1  0  0  0  0
  7 56  1  0  0  0  0
  8  9  1  0  0  0  0
  8 57  1  0  0  0  0
  8 58  1  0  0  0  0
  9 10  1  0  0  0  0
  9 59  1  0  0  0  0
  9 60  1  0  0  0  0
 10 11  1  0  0  0  0
 10 61  1  0  0  0  0
 10 62  1  0  0  0  0
 11 12  1  0  0  0  0
 11 63  1  0  0  0  0
 11 64  1  0  0  0  0
 12 13  1  0  0  0  0
 12 65  1  0  0  0  0
 12 66  1  0  0  0  0
 13 14  1  0  0  0  0
 13 67  1  0  0  0  0
 13 68  1  0  0  0  0
 14 15  1  0  0  0  0
 14 69  1  0  0  0  0
 14 70  1  0  0  0  0
 15 16  1  0  0  0  0
 15 71  1  0  0  0  0
 15 72  1  0  0  0  0
 16 17  2  0  0  0  0
 16 18  1  0  0  0  0
 18 19  1  0  0  0  0
 19 20  1  0  0  0  0
 19 73  1  0  0  0  0
 19 74  1  0  0  0  0
 20 21  1  0  0  0  0
 20 75  1  0  0  0  0
 20 76  1  0  0  0  0
 21 22  2  0  0  0  0
 21 27  1  0  0  0  0
 22 23  1  0  0  0  0
 22 77  1  0  0  0  0
 23 24  1  0  0  0  0
 24 25  1  0  0  0  0
 24 26  2  0  0  0  0
 25 78  1  0  0  0  0
 25 79  1  0  0  0  0
 25 80  1  0  0  0  0
 27 28  1  0  0  0  0
 27 38  1  0  0  0  0
 27 81  1  1  0  0  0
 28 29  1  0  0  0  0
 28 82  1  0  0  0  0
 28 83  1  0  0  0  0
 29 30  2  0  0  0  0
 29 84  1  0  0  0  0
 30 31  1  0  0  0  0
 30 32  1  0  0  0  0
 31 85  1  0  0  0  0
 31 86  1  0  0  0  0
 31 87  1  0  0  0  0
 32 33  3  0  0  0  0
 33 34  1  0  0  0  0
 34 35  2  0  0  0  0
 34 88  1  0  0  0  0
 35 36  1  0  0  0  0
 35 37  1  0  0  0  0
 36 89  1  0  0  0  0
 36 90  1  0  0  0  0
 36 91  1  0  0  0  0
 37 92  1  0  0  0  0
 37 93  1  0  0  0  0
 37 94  1  0  0  0  0
 38 39  1  0  0  0  0
 39 40  1  0  0  0  0
 39 41  2  0  0  0  0
 40 95  1  0  0  0  0
 40 96  1  0  0  0  0
 40 97  1  0  0  0  0
M  END
>  <IDENTIFIER>
CNP0331146.1

>  <Energy>
330.974

$$$$
