
 OpenBabel09112512212D

153152  0  0  0  0  0  0  0  0999 V2000
   23.3827   13.5000    0.0000 C   0  0  0  0  0  0  0  0  0  0  0  0
   22.0836   12.7500    0.0000 C   0  0  0  0  0  0  0  0  0  0  0  0
   20.7846   12.0000    0.0000 C   0  0  0  0  0  2  0  0  0  0  0  0
   19.4856   11.2500    0.0000 C   0  0  0  0  0  0  0  0  0  0  0  0
   18.1865   10.5000    0.0000 C   0  0  0  0  0  0  0  0  0  0  0  0
   16.8875    9.7500    0.0000 C   0  0  0  0  0  2  0  0  0  0  0  0
   15.5885    9.0000    0.0000 C   0  0  0  0  0  0  0  0  0  0  0  0
   13.9466    8.6493   -0.0814 C   0  0  0  0  0  0  0  0  0  0  0  0
   13.3376    7.0704    0.0953 C   0  0  0  0  0  0  0  0  0  0  0  0
   11.6913    6.7500    0.0000 C   0  0  0  0  0  0  0  0  0  0  0  0
   10.3923    6.0000    0.0000 C   0  0  0  0  0  0  0  0  0  0  0  0
    9.0933    5.2500    0.0000 C   0  0  0  0  0  0  0  0  0  0  0  0
    7.7942    4.5000    0.0000 C   0  0  0  0  0  0  0  0  0  0  0  0
    6.4952    3.7500    0.0000 C   0  0  0  0  0  0  0  0  0  0  0  0
    5.1962    3.0000    0.0000 C   0  0  0  0  0  0  0  0  0  0  0  0
    3.5361    2.9714   -0.2102 C   0  0  0  0  0  0  0  0  0  0  0  0
    2.7072    1.5137    0.0059 C   0  0  0  0  0  0  0  0  0  0  0  0
    1.0533    1.2670   -0.1978 C   0  0  0  0  0  0  0  0  0  0  0  0
    0.3354   -0.1958    0.0631 C   0  0  0  0  0  0  0  0  0  0  0  0
    1.0865   -1.0831    0.4368 O   0  0  0  0  0  0  0  0  0  0  0  0
   -1.0662   -0.5426   -0.1048 O   0  0  0  0  0  0  0  0  0  0  0  0
   -1.6944   -1.8492    0.1762 C   0  0  0  0  0  0  0  0  0  0  0  0
   -3.3119   -2.2410   -0.1258 C   0  0  2  0  0  0  0  0  0  0  0  0
   -3.6829   -3.8731    0.1625 C   0  0  0  0  0  0  0  0  0  0  0  0
   -4.9769   -4.5611   -0.0630 O   0  0  0  0  0  0  0  0  0  0  0  0
   -5.1962   -6.0000    0.0000 C   0  0  0  0  0  0  0  0  0  0  0  0
   -4.1740   -6.6834    0.0612 O   0  0  0  0  0  0  0  0  0  0  0  0
   -6.4952   -6.7500    0.0000 C   0  0  0  0  0  0  0  0  0  0  0  0
   -7.7942   -7.5000    0.0000 C   0  0  0  0  0  0  0  0  0  0  0  0
   -9.0933   -8.2500    0.0000 C   0  0  0  0  0  0  0  0  0  0  0  0
  -10.3923   -9.0000    0.0000 C   0  0  0  0  0  0  0  0  0  0  0  0
  -11.6913   -9.7500    0.0000 C   0  0  0  0  0  0  0  0  0  0  0  0
  -13.3415  -10.0633   -0.0271 C   0  0  0  0  0  0  0  0  0  0  0  0
  -13.9437  -11.6540    0.0201 C   0  0  0  0  0  0  0  0  0  0  0  0
  -15.5885  -12.0000    0.0000 C   0  0  0  0  0  0  0  0  0  0  0  0
  -16.8875  -12.7500    0.0000 C   0  0  0  0  0  2  0  0  0  0  0  0
  -18.1865  -13.5000    0.0000 C   0  0  0  0  0  0  0  0  0  0  0  0
  -19.4856  -14.2500    0.0000 C   0  0  0  0  0  0  0  0  0  0  0  0
  -20.7846  -15.0000    0.0000 C   0  0  0  0  0  2  0  0  0  0  0  0
  -22.0836  -15.7500    0.0000 C   0  0  0  0  0  0  0  0  0  0  0  0
  -23.7284  -16.0968    0.0020 C   0  0  0  0  0  0  0  0  0  0  0  0
  -24.3298  -17.6887   -0.0141 C   0  0  0  0  0  0  0  0  0  0  0  0
  -25.9808  -18.0000    0.0000 C   0  0  0  0  0  0  0  0  0  0  0  0
  -27.2798  -18.7500    0.0000 C   0  0  0  0  0  0  0  0  0  0  0  0
   -4.1674   -1.3693    0.5959 O   0  0  0  0  0  0  0  0  0  0  0  0
   -4.9452   -0.3429    0.0744 C   0  0  0  0  0  0  0  0  0  0  0  0
   -4.8940   -0.0966   -1.1230 O   0  0  0  0  0  0  0  0  0  0  0  0
   -5.8611    0.5325    0.9769 C   0  0  0  0  0  0  0  0  0  0  0  0
   -6.6017    1.7213    0.2439 C   0  0  0  0  0  0  0  0  0  0  0  0
   -7.5591    2.6279    1.1254 C   0  0  0  0  0  0  0  0  0  0  0  0
   -8.1259    3.8539    0.3153 C   0  0  0  0  0  0  0  0  0  0  0  0
   -9.1402    4.8869    0.9919 C   0  0  0  0  0  0  0  0  0  0  0  0
   -9.3481    6.0933    0.0000 C   0  0  0  0  0  0  0  0  0  0  0  0
  -10.0981    7.3923    0.0000 C   0  0  0  0  0  0  0  0  0  0  0  0
  -10.8481    8.6913    0.0000 C   0  0  0  0  0  0  0  0  0  0  0  0
  -11.9697    8.6312    0.9235 C   0  0  3  0  0  0  0  0  0  0  0  0
  -11.7564    9.3892    2.2473 C   0  0  0  0  0  0  0  0  0  0  0  0
  -12.8971    9.2404    0.0000 C   0  0  0  0  0  0  0  0  0  0  0  0
  -14.1962    8.4904    0.0000 C   0  0  0  0  0  0  0  0  0  0  0  0
   23.8054   13.0305    0.9191 H   0  0  0  0  0  0  0  0  0  0  0  0
   23.0147   14.5485    0.1683 H   0  0  0  0  0  0  0  0  0  0  0  0
   24.3094   14.0350    0.0000 H   0  0  0  0  0  0  0  0  0  0  0  0
   21.7164   13.3017   -0.8960 H   0  0  0  0  0  0  0  0  0  0  0  0
   21.7141   13.1927    0.9616 H   0  0  0  0  0  0  0  0  0  0  0  0
   19.8547   10.6944   -0.8960 H   0  0  0  0  0  0  0  0  0  0  0  0
   19.8547   10.6944    0.8960 H   0  0  0  0  0  0  0  0  0  0  0  0
   17.8174   11.0557   -0.8960 H   0  0  0  0  0  0  0  0  0  0  0  0
   17.8174   11.0556    0.8960 H   0  0  0  0  0  0  0  0  0  0  0  0
   15.7618    8.5050    0.9783 H   0  0  0  0  0  0  0  0  0  0  0  0
   15.9002    8.2640   -0.7702 H   0  0  0  0  0  0  0  0  0  0  0  0
   13.5923    9.0183   -1.0668 H   0  0  0  0  0  0  0  0  0  0  0  0
   13.4515    9.2676    0.6967 H   0  0  0  0  0  0  0  0  0  0  0  0
   13.8317    6.4460   -0.6785 H   0  0  0  0  0  0  0  0  0  0  0  0
   13.6817    6.7022    1.0845 H   0  0  0  0  0  0  0  0  0  0  0  0
   11.4086    7.5412    0.7389 H   0  0  0  0  0  0  0  0  0  0  0  0
   11.5540    7.2711   -0.9818 H   0  0  0  0  0  0  0  0  0  0  0  0
   10.9568    5.3155   -0.7144 H   0  0  0  0  0  0  0  0  0  0  0  0
   10.5725    5.6968    1.0672 H   0  0  0  0  0  0  0  0  0  0  0  0
    8.9865    5.4769   -1.1052 H   0  0  0  0  0  0  0  0  0  0  0  0
    9.5761    4.2176    0.0789 H   0  0  0  0  0  0  0  0  0  0  0  0
    7.3068    5.5289   -0.0948 H   0  0  0  0  0  0  0  0  0  0  0  0
    7.8964    4.2844    1.1068 H   0  0  0  0  0  0  0  0  0  0  0  0
    5.9199    4.4462    0.6923 H   0  0  0  0  0  0  0  0  0  0  0  0
    6.3344    4.0100   -1.0796 H   0  0  0  0  0  0  0  0  0  0  0  0
    5.2441    2.5068    1.0033 H   0  0  0  0  0  0  0  0  0  0  0  0
    5.4515    2.1593   -0.6903 H   0  0  0  0  0  0  0  0  0  0  0  0
    3.0953    3.7109    0.4904 H   0  0  0  0  0  0  0  0  0  0  0  0
    3.3292    3.3211   -1.2432 H   0  0  0  0  0  0  0  0  0  0  0  0
    3.1991    0.7855   -0.6723 H   0  0  0  0  0  0  0  0  0  0  0  0
    2.9340    1.1933    1.0443 H   0  0  0  0  0  0  0  0  0  0  0  0
    0.5399    1.9924    0.4668 H   0  0  0  0  0  0  0  0  0  0  0  0
    0.8232    1.5519   -1.2455 H   0  0  0  0  0  0  0  0  0  0  0  0
   -1.1107   -2.6022   -0.3954 H   0  0  0  0  0  0  0  0  0  0  0  0
   -1.5209   -2.0698    1.2510 H   0  0  0  0  0  0  0  0  0  0  0  0
   -3.4586   -2.0830   -1.2161 H   0  0  0  0  0  0  0  0  0  0  0  0
   -2.9339   -4.4204   -0.4490 H   0  0  0  0  0  0  0  0  0  0  0  0
   -3.4084   -4.0621    1.2220 H   0  0  0  0  0  0  0  0  0  0  0  0
   -6.1426   -7.1052    1.0231 H   0  0  0  0  0  0  0  0  0  0  0  0
   -6.1691   -7.3099   -0.9140 H   0  0  0  0  0  0  0  0  0  0  0  0
   -8.1101   -6.9432    0.9385 H   0  0  0  0  0  0  0  0  0  0  0  0
   -7.3180   -8.4854    0.3251 H   0  0  0  0  0  0  0  0  0  0  0  0
   -9.5560   -7.2577   -0.3321 H   0  0  0  0  0  0  0  0  0  0  0  0
   -8.7959   -8.8049   -0.9405 H   0  0  0  0  0  0  0  0  0  0  0  0
  -10.8075   -8.5652   -0.9691 H   0  0  0  0  0  0  0  0  0  0  0  0
  -10.7462   -8.4078    0.8856 H   0  0  0  0  0  0  0  0  0  0  0  0
  -11.4546  -10.4770   -0.8214 H   0  0  0  0  0  0  0  0  0  0  0  0
  -11.5004  -10.3531    0.9213 H   0  0  0  0  0  0  0  0  0  0  0  0
  -13.7867   -9.5224    0.8344 H   0  0  0  0  0  0  0  0  0  0  0  0
  -13.7426   -9.5971   -0.9514 H   0  0  0  0  0  0  0  0  0  0  0  0
  -13.5322  -12.1228    0.9386 H   0  0  0  0  0  0  0  0  0  0  0  0
  -13.4978  -12.1860   -0.8465 H   0  0  0  0  0  0  0  0  0  0  0  0
  -15.8187  -11.4055   -0.9087 H   0  0  0  0  0  0  0  0  0  0  0  0
  -15.8512  -11.3500    0.8606 H   0  0  0  0  0  0  0  0  0  0  0  0
  -17.8174  -14.0556    0.8960 H   0  0  0  0  0  0  0  0  0  0  0  0
  -17.8174  -14.0556   -0.8960 H   0  0  0  0  0  0  0  0  0  0  0  0
  -19.8547  -13.6944   -0.8960 H   0  0  0  0  0  0  0  0  0  0  0  0
  -19.8547  -13.6944    0.8960 H   0  0  0  0  0  0  0  0  0  0  0  0
  -21.8329  -16.3810    0.8781 H   0  0  0  0  0  0  0  0  0  0  0  0
  -21.8406  -16.3639   -0.8923 H   0  0  0  0  0  0  0  0  0  0  0  0
  -24.1534  -15.6064    0.9029 H   0  0  0  0  0  0  0  0  0  0  0  0
  -24.1618  -15.5861   -0.8834 H   0  0  0  0  0  0  0  0  0  0  0  0
  -23.9125  -18.1833   -0.9164 H   0  0  0  0  0  0  0  0  0  0  0  0
  -23.8977  -18.2021    0.8708 H   0  0  0  0  0  0  0  0  0  0  0  0
  -26.1470  -17.3574    0.9024 H   0  0  0  0  0  0  0  0  0  0  0  0
  -26.1885  -17.3809   -0.9033 H   0  0  0  0  0  0  0  0  0  0  0  0
  -27.9865  -17.8886    0.1141 H   0  0  0  0  0  0  0  0  0  0  0  0
  -27.1033  -19.2868    0.9593 H   0  0  0  0  0  0  0  0  0  0  0  0
  -28.2064  -19.2850    0.0000 H   0  0  0  0  0  0  0  0  0  0  0  0
   -5.2300    0.9725    1.7785 H   0  0  0  0  0  0  0  0  0  0  0  0
   -6.6175   -0.1291    1.4481 H   0  0  0  0  0  0  0  0  0  0  0  0
   -5.8167    2.3743   -0.1957 H   0  0  0  0  0  0  0  0  0  0  0  0
   -7.2053    1.3013   -0.5900 H   0  0  0  0  0  0  0  0  0  0  0  0
   -8.3981    2.0075    1.5046 H   0  0  0  0  0  0  0  0  0  0  0  0
   -6.9879    3.0221    1.9928 H   0  0  0  0  0  0  0  0  0  0  0  0
   -8.6220    3.4548   -0.5962 H   0  0  0  0  0  0  0  0  0  0  0  0
   -7.2313    4.4265   -0.0139 H   0  0  0  0  0  0  0  0  0  0  0  0
   -8.7083    5.2745    1.9391 H   0  0  0  0  0  0  0  0  0  0  0  0
  -10.1039    4.3809    1.2096 H   0  0  0  0  0  0  0  0  0  0  0  0
   -9.5416    5.6227   -0.9996 H   0  0  0  0  0  0  0  0  0  0  0  0
   -8.3044    6.4669   -0.1243 H   0  0  0  0  0  0  0  0  0  0  0  0
   -9.8101    7.5118    1.0740 H   0  0  0  0  0  0  0  0  0  0  0  0
  -11.0117    6.7770   -0.2037 H   0  0  0  0  0  0  0  0  0  0  0  0
  -10.1868    9.5608    0.2298 H   0  0  0  0  0  0  0  0  0  0  0  0
  -10.9242    8.7438   -1.1216 H   0  0  0  0  0  0  0  0  0  0  0  0
  -12.2749    7.5869    1.1796 H   0  0  0  0  0  0  0  0  0  0  0  0
  -10.9576    8.8989    2.8423 H   0  0  0  0  0  0  0  0  0  0  0  0
  -12.6940    9.3883    2.8417 H   0  0  0  0  0  0  0  0  0  0  0  0
  -11.4584   10.4451    2.0622 H   0  0  0  0  0  0  0  0  0  0  0  0
  -13.0723   10.3013    0.2946 H   0  0  0  0  0  0  0  0  0  0  0  0
  -12.7973    9.3176   -1.1168 H   0  0  0  0  0  0  0  0  0  0  0  0
  -14.4139    8.5418    1.0923 H   0  0  0  0  0  0  0  0  0  0  0  0
  -13.8184    7.5055   -0.3655 H   0  0  0  0  0  0  0  0  0  0  0  0
  -15.1229    7.9554    0.0000 H   0  0  0  0  0  0  0  0  0  0  0  0
  1  2  1  0  0  0  0
  1 60  1  0  0  0  0
  1 61  1  0  0  0  0
  1 62  1  0  0  0  0
  2  3  1  0  0  0  0
  2 63  1  0  0  0  0
  2 64  1  0  0  0  0
  3  4  1  0  0  0  0
  4  5  1  0  0  0  0
  4 65  1  0  0  0  0
  4 66  1  0  0  0  0
  5  6  1  0  0  0  0
  5 67  1  0  0  0  0
  5 68  1  0  0  0  0
  6  7  1  0  0  0  0
  7  8  1  0  0  0  0
  7 69  1  0  0  0  0
  7 70  1  0  0  0  0
  8  9  1  0  0  0  0
  8 71  1  0  0  0  0
  8 72  1  0  0  0  0
  9 10  1  0  0  0  0
  9 73  1  0  0  0  0
  9 74  1  0  0  0  0
 10 11  1  0  0  0  0
 10 75  1  0  0  0  0
 10 76  1  0  0  0  0
 11 12  1  0  0  0  0
 11 77  1  0  0  0  0
 11 78  1  0  0  0  0
 12 13  1  0  0  0  0
 12 79  1  0  0  0  0
 12 80  1  0  0  0  0
 13 14  1  0  0  0  0
 13 81  1  0  0  0  0
 13 82  1  0  0  0  0
 14 15  1  0  0  0  0
 14 83  1  0  0  0  0
 14 84  1  0  0  0  0
 15 16  1  0  0  0  0
 15 85  1  0  0  0  0
 15 86  1  0  0  0  0
 16 17  1  0  0  0  0
 16 87  1  0  0  0  0
 16 88  1  0  0  0  0
 17 18  1  0  0  0  0
 17 89  1  0  0  0  0
 17 90  1  0  0  0  0
 18 19  1  0  0  0  0
 18 91  1  0  0  0  0
 18 92  1  0  0  0  0
 19 20  2  0  0  0  0
 19 21  1  0  0  0  0
 21 22  1  0  0  0  0
 22 93  1  0  0  0  0
 22 94  1  0  0  0  0
 23 22  1  0  0  0  0
 23 24  1  0  0  0  0
 23 45  1  0  0  0  0
 23 95  1  1  0  0  0
 24 25  1  0  0  0  0
 24 96  1  0  0  0  0
 24 97  1  0  0  0  0
 25 26  1  0  0  0  0
 26 27  2  0  0  0  0
 26 28  1  0  0  0  0
 28 29  1  0  0  0  0
 28 98  1  0  0  0  0
 28 99  1  0  0  0  0
 29 30  1  0  0  0  0
 29100  1  0  0  0  0
 29101  1  0  0  0  0
 30 31  1  0  0  0  0
 30102  1  0  0  0  0
 30103  1  0  0  0  0
 31 32  1  0  0  0  0
 31104  1  0  0  0  0
 31105  1  0  0  0  0
 32 33  1  0  0  0  0
 32106  1  0  0  0  0
 32107  1  0  0  0  0
 33 34  1  0  0  0  0
 33108  1  0  0  0  0
 33109  1  0  0  0  0
 34 35  1  0  0  0  0
 34110  1  0  0  0  0
 34111  1  0  0  0  0
 35 36  1  0  0  0  0
 35112  1  0  0  0  0
 35113  1  0  0  0  0
 36 37  1  0  0  0  0
 37 38  1  0  0  0  0
 37114  1  0  0  0  0
 37115  1  0  0  0  0
 38 39  1  0  0  0  0
 38116  1  0  0  0  0
 38117  1  0  0  0  0
 39 40  1  0  0  0  0
 40 41  1  0  0  0  0
 40118  1  0  0  0  0
 40119  1  0  0  0  0
 41 42  1  0  0  0  0
 41120  1  0  0  0  0
 41121  1  0  0  0  0
 42 43  1  0  0  0  0
 42122  1  0  0  0  0
 42123  1  0  0  0  0
 43 44  1  0  0  0  0
 43124  1  0  0  0  0
 43125  1  0  0  0  0
 44126  1  0  0  0  0
 44127  1  0  0  0  0
 44128  1  0  0  0  0
 45 46  1  0  0  0  0
 46 47  2  0  0  0  0
 46 48  1  0  0  0  0
 48 49  1  0  0  0  0
 48129  1  0  0  0  0
 48130  1  0  0  0  0
 49 50  1  0  0  0  0
 49131  1  0  0  0  0
 49132  1  0  0  0  0
 50 51  1  0  0  0  0
 50133  1  0  0  0  0
 50134  1  0  0  0  0
 51 52  1  0  0  0  0
 51135  1  0  0  0  0
 51136  1  0  0  0  0
 52 53  1  0  0  0  0
 52137  1  0  0  0  0
 52138  1  0  0  0  0
 53 54  1  0  0  0  0
 53139  1  0  0  0  0
 53140  1  0  0  0  0
 54 55  1  0  0  0  0
 54141  1  0  0  0  0
 54142  1  0  0  0  0
 55 56  1  0  0  0  0
 55143  1  0  0  0  0
 55144  1  0  0  0  0
 56 57  1  0  0  0  0
 56 58  1  0  0  0  0
 56145  1  0  0  0  0
 57146  1  0  0  0  0
 57147  1  0  0  0  0
 57148  1  0  0  0  0
 58 59  1  0  0  0  0
 58149  1  0  0  0  0
 58150  1  0  0  0  0
 59151  1  0  0  0  0
 59152  1  0  0  0  0
 59153  1  0  0  0  0
M  END
>  <IDENTIFIER>
CNP0543472.1

>  <Energy>
11034.2

$$$$
