
 OpenBabel09042522073D

 51 52  0  0  0  0  0  0  0  0999 V2000
   -6.9141   -0.3502    0.3551 C   0  0  0  0  0  0  0  0  0  0  0  0
   -5.4953    0.2063    0.2851 C   0  0  0  0  0  0  0  0  0  0  0  0
   -4.7300   -0.3628   -0.9189 C   0  0  0  0  0  0  0  0  0  0  0  0
   -3.3074    0.2028   -1.0252 C   0  0  0  0  0  0  0  0  0  0  0  0
   -2.5268   -0.1329    0.1721 N   0  0  0  0  0  0  0  0  0  0  0  0
   -2.1335    0.8769    1.1589 C   0  0  0  0  0  0  0  0  0  0  0  0
   -1.1434    0.1495    2.0832 C   0  0  0  0  0  0  0  0  0  0  0  0
   -1.3658   -1.3230    1.7545 C   0  0  0  0  0  0  0  0  0  0  0  0
   -1.6242   -1.2727    0.2526 C   0  0  2  0  0  0  0  0  0  0  0  0
   -0.3294   -1.0930   -0.5435 C   0  0  0  0  0  0  0  0  0  0  0  0
    0.5089   -1.9789   -0.4608 O   0  0  0  0  0  0  0  0  0  0  0  0
   -0.1065   -0.0150   -1.3682 N   0  0  0  0  0  0  0  0  0  0  0  0
    1.0899    0.0846   -2.1857 C   0  0  0  0  0  0  0  0  0  0  0  0
    2.3062    0.3729   -1.3482 C   0  0  0  0  0  0  0  0  0  0  0  0
    2.5404    1.6712   -0.8753 C   0  0  0  0  0  0  0  0  0  0  0  0
    3.6897    1.9532   -0.1315 C   0  0  0  0  0  0  0  0  0  0  0  0
    4.6084    0.9322    0.1775 C   0  0  0  0  0  0  0  0  0  0  0  0
    5.7361    1.1677    0.9006 O   0  0  0  0  0  0  0  0  0  0  0  0
    6.1706    2.4000    1.3446 C   0  0  0  0  0  0  0  0  0  0  0  0
    4.3643   -0.3771   -0.2700 C   0  0  0  0  0  0  0  0  0  0  0  0
    5.2462   -1.3524    0.0739 O   0  0  0  0  0  0  0  0  0  0  0  0
    5.0930   -2.7003   -0.1763 C   0  0  0  0  0  0  0  0  0  0  0  0
    3.2204   -0.6449   -1.0489 C   0  0  0  0  0  0  0  0  0  0  0  0
   -7.4366    0.0767    1.2375 H   0  0  0  0  0  0  0  0  0  0  0  0
   -6.8895   -1.4560    0.4588 H   0  0  0  0  0  0  0  0  0  0  0  0
   -7.4823   -0.0801   -0.5601 H   0  0  0  0  0  0  0  0  0  0  0  0
   -4.9732   -0.0645    1.2269 H   0  0  0  0  0  0  0  0  0  0  0  0
   -5.5460    1.3140    0.2056 H   0  0  0  0  0  0  0  0  0  0  0  0
   -5.2773   -0.1057   -1.8525 H   0  0  0  0  0  0  0  0  0  0  0  0
   -4.6778   -1.4705   -0.8365 H   0  0  0  0  0  0  0  0  0  0  0  0
   -3.3537    1.3061   -1.1556 H   0  0  0  0  0  0  0  0  0  0  0  0
   -2.8298   -0.2358   -1.9276 H   0  0  0  0  0  0  0  0  0  0  0  0
   -3.0369    1.1989    1.7145 H   0  0  0  0  0  0  0  0  0  0  0  0
   -1.6409    1.7549    0.6861 H   0  0  0  0  0  0  0  0  0  0  0  0
   -1.2472    0.4040    3.1605 H   0  0  0  0  0  0  0  0  0  0  0  0
   -0.1112    0.3984    1.7543 H   0  0  0  0  0  0  0  0  0  0  0  0
   -2.3151   -1.6446    2.2419 H   0  0  0  0  0  0  0  0  0  0  0  0
   -0.5538   -2.0071    2.0822 H   0  0  0  0  0  0  0  0  0  0  0  0
   -2.1163   -2.2104   -0.0891 H   0  0  0  0  0  0  0  0  0  0  0  0
   -0.8090    0.7201   -1.4761 H   0  0  0  0  0  0  0  0  0  0  0  0
    0.9817    0.9046   -2.9311 H   0  0  0  0  0  0  0  0  0  0  0  0
    1.2015   -0.8544   -2.7664 H   0  0  0  0  0  0  0  0  0  0  0  0
    1.8474    2.4706   -1.1034 H   0  0  0  0  0  0  0  0  0  0  0  0
    3.8480    2.9705    0.2005 H   0  0  0  0  0  0  0  0  0  0  0  0
    7.1222    2.2701    1.8995 H   0  0  0  0  0  0  0  0  0  0  0  0
    5.4213    2.8531    2.0278 H   0  0  0  0  0  0  0  0  0  0  0  0
    6.3557    3.0733    0.4805 H   0  0  0  0  0  0  0  0  0  0  0  0
    5.9578   -3.2489    0.2481 H   0  0  0  0  0  0  0  0  0  0  0  0
    5.0512   -2.8902   -1.2699 H   0  0  0  0  0  0  0  0  0  0  0  0
    4.1659   -3.0741    0.3113 H   0  0  0  0  0  0  0  0  0  0  0  0
    3.0258   -1.6440   -1.4143 H   0  0  0  0  0  0  0  0  0  0  0  0
  1  2  1  0  0  0  0
  1 24  1  0  0  0  0
  1 25  1  0  0  0  0
  1 26  1  0  0  0  0
  2  3  1  0  0  0  0
  2 27  1  0  0  0  0
  2 28  1  0  0  0  0
  3  4  1  0  0  0  0
  3 29  1  0  0  0  0
  3 30  1  0  0  0  0
  4  5  1  0  0  0  0
  4 31  1  0  0  0  0
  4 32  1  0  0  0  0
  5  6  1  0  0  0  0
  6  7  1  0  0  0  0
  6 33  1  0  0  0  0
  6 34  1  0  0  0  0
  7  8  1  0  0  0  0
  7 35  1  0  0  0  0
  7 36  1  0  0  0  0
  8  9  1  0  0  0  0
  8 37  1  0  0  0  0
  8 38  1  0  0  0  0
  9 10  1  0  0  0  0
  9  5  1  0  0  0  0
  9 39  1  6  0  0  0
 10 11  2  0  0  0  0
 10 12  1  0  0  0  0
 12 13  1  0  0  0  0
 12 40  1  0  0  0  0
 13 14  1  0  0  0  0
 13 41  1  0  0  0  0
 13 42  1  0  0  0  0
 14 15  2  0  0  0  0
 15 16  1  0  0  0  0
 15 43  1  0  0  0  0
 16 17  2  0  0  0  0
 16 44  1  0  0  0  0
 17 18  1  0  0  0  0
 17 20  1  0  0  0  0
 18 19  1  0  0  0  0
 19 45  1  0  0  0  0
 19 46  1  0  0  0  0
 19 47  1  0  0  0  0
 20 21  1  0  0  0  0
 20 23  2  0  0  0  0
 21 22  1  0  0  0  0
 22 48  1  0  0  0  0
 22 49  1  0  0  0  0
 22 50  1  0  0  0  0
 23 14  1  0  0  0  0
 23 51  1  0  0  0  0
M  END
>  <IDENTIFIER>
CNP0361393.1

>  <Energy>
403.85

$$$$
