
 OpenBabel09072512362D

131130  0  0  0  0  0  0  0  0999 V2000
  -10.3923    6.0000    0.0000 C   0  0  0  0  0  0  0  0  0  0  0  0
   -9.0933    5.2500    0.0000 C   0  0  0  0  0  0  0  0  0  0  0  0
   -7.7942    4.5000    0.0000 C   0  0  0  0  0  0  0  0  0  0  0  0
   -6.4952    3.7500    0.0000 C   0  0  0  0  0  0  0  0  0  0  0  0
   -5.1962    3.0000    0.0000 C   0  0  0  0  0  0  0  0  0  0  0  0
   -3.5978    3.1715    0.3354 C   0  0  0  0  0  0  0  0  0  0  0  0
   -2.6312    1.8429    0.0714 C   0  0  0  0  0  0  0  0  0  0  0  0
   -0.9996    1.9035    0.2732 C   0  0  0  0  0  0  0  0  0  0  0  0
    0.0143    0.6362    0.0737 C   0  0  0  0  0  0  0  0  0  0  0  0
    1.4191    0.7673    0.2039 C   0  0  0  0  0  0  0  0  0  0  0  0
    2.8359   -0.0602    0.1342 C   0  0  0  0  0  0  0  0  0  0  0  0
    3.5394   -1.5492   -0.0565 C   0  0  0  0  0  0  0  0  0  0  0  0
    5.1962   -1.5000    0.0000 C   0  0  0  0  0  0  0  0  0  0  0  0
    6.4952   -2.2500    0.0000 C   0  0  0  0  0  0  0  0  0  0  0  0
    7.7942   -3.0000    0.0000 C   0  0  0  0  0  0  0  0  0  0  0  0
    9.0933   -3.7500    0.0000 C   0  0  0  0  0  0  0  0  0  0  0  0
   10.3923   -4.5000    0.0000 C   0  0  0  0  0  0  0  0  0  0  0  0
   11.6913   -5.2500    0.0000 C   0  0  0  0  0  0  0  0  0  0  0  0
   13.2405   -4.9056    0.0322 C   0  0  0  0  0  0  0  0  0  0  0  0
   14.2146   -6.1725    0.0006 C   0  0  0  0  0  0  0  0  0  0  0  0
   13.7535   -7.3027   -0.0266 O   0  0  0  0  0  0  0  0  0  0  0  0
   15.5885   -6.0000    0.0000 O   0  0  0  0  0  0  0  0  0  0  0  0
   16.8875   -6.7500    0.0000 C   0  0  0  0  0  2  0  0  0  0  0  0
   18.1865   -7.5000    0.0000 C   0  0  3  0  0  0  0  0  0  0  0  0
   19.5220   -6.8319    0.4754 C   0  0  0  0  0  0  0  0  0  0  0  0
   20.5197   -7.8070    0.8787 O   0  0  0  0  0  0  0  0  0  0  0  0
   21.9338   -8.1458   -0.1837 P   0  0  3  0  0  0  0  0  0  0  0  0
   22.2563   -6.6648    0.1568 O   0  0  0  0  0  0  0  0  0  0  0  0
   22.0019   -9.0060    1.3249 O   0  5  0  0  0  0  0  0  0  0  0  0
   23.6425   -8.2571    0.3659 O   0  0  0  0  0  0  0  0  0  0  0  0
   24.4176   -9.4182   -0.0256 C   0  0  0  0  0  0  0  0  0  0  0  0
   25.9808   -9.0000    0.0000 C   0  0  0  0  0  0  0  0  0  0  0  0
   27.2798   -9.7500    0.0000 N   0  3  0  0  0  0  0  0  0  0  0  0
   28.5788  -10.5000    0.0000 C   0  0  0  0  0  0  0  0  0  0  0  0
   28.0298   -8.4510    0.0000 C   0  0  0  0  0  0  0  0  0  0  0  0
   26.5298  -11.0490    0.0000 C   0  0  0  0  0  0  0  0  0  0  0  0
   18.0941   -8.7845    0.6550 O   0  0  0  0  0  0  0  0  0  0  0  0
   18.1953  -10.0567    0.0538 C   0  0  0  0  0  0  0  0  0  0  0  0
   18.3010  -11.2872    0.7332 C   0  0  0  0  0  0  0  0  0  0  0  0
   18.1865  -12.6962    0.0000 C   0  0  0  0  0  0  0  0  0  0  0  0
   18.9365  -13.9952    0.0000 C   0  0  0  0  0  0  0  0  0  0  0  0
   19.6865  -15.2942    0.0000 C   0  0  0  0  0  0  0  0  0  0  0  0
   20.4365  -16.5933    0.0000 C   0  0  0  0  0  0  0  0  0  0  0  0
   21.1865  -17.8923    0.0000 C   0  0  0  0  0  2  0  0  0  0  0  0
   21.9365  -19.1913    0.0000 C   0  0  0  0  0  0  0  0  0  0  0  0
   22.2670  -20.8386   -0.0041 C   0  0  0  0  0  0  0  0  0  0  0  0
   23.8560  -21.4411    0.0041 C   0  0  0  0  0  0  0  0  0  0  0  0
   24.1865  -23.0885    0.0000 C   0  0  0  0  0  0  0  0  0  0  0  0
   24.9365  -24.3875    0.0000 C   0  0  0  0  0  2  0  0  0  0  0  0
   25.6865  -25.6865    0.0000 C   0  0  0  0  0  0  0  0  0  0  0  0
   26.4365  -26.9856    0.0000 C   0  0  0  0  0  0  0  0  0  0  0  0
   27.1865  -28.2846    0.0000 C   0  0  0  0  0  2  0  0  0  0  0  0
   27.9365  -29.5836    0.0000 C   0  0  0  0  0  0  0  0  0  0  0  0
  -10.0983    6.7599    0.7640 H   0  0  0  0  0  0  0  0  0  0  0  0
  -10.2519    6.4724   -1.0016 H   0  0  0  0  0  0  0  0  0  0  0  0
  -11.3189    6.5350    0.0000 H   0  0  0  0  0  0  0  0  0  0  0  0
   -9.5887    4.4969   -0.6782 H   0  0  0  0  0  0  0  0  0  0  0  0
   -9.3259    4.8457    1.0245 H   0  0  0  0  0  0  0  0  0  0  0  0
   -7.4012    5.4029    0.5702 H   0  0  0  0  0  0  0  0  0  0  0  0
   -7.6747    4.6985   -1.1065 H   0  0  0  0  0  0  0  0  0  0  0  0
   -5.8401    4.6051   -0.3566 H   0  0  0  0  0  0  0  0  0  0  0  0
   -6.5140    3.6863    1.1213 H   0  0  0  0  0  0  0  0  0  0  0  0
   -5.1435    2.6711   -1.0646 H   0  0  0  0  0  0  0  0  0  0  0  0
   -5.4303    2.0436    0.5311 H   0  0  0  0  0  0  0  0  0  0  0  0
   -3.2133    4.0051   -0.2891 H   0  0  0  0  0  0  0  0  0  0  0  0
   -3.4921    3.4646    1.4007 H   0  0  0  0  0  0  0  0  0  0  0  0
   -3.0111    1.0348    0.7310 H   0  0  0  0  0  0  0  0  0  0  0  0
   -2.8011    1.5220   -0.9779 H   0  0  0  0  0  0  0  0  0  0  0  0
   -0.6476    2.6949   -0.4216 H   0  0  0  0  0  0  0  0  0  0  0  0
   -0.8298    2.2720    1.3065 H   0  0  0  0  0  0  0  0  0  0  0  0
   -0.4029   -0.3347   -0.1695 H   0  0  0  0  0  0  0  0  0  0  0  0
    1.6652    1.8020    0.4300 H   0  0  0  0  0  0  0  0  0  0  0  0
    3.3647    0.5233   -0.6493 H   0  0  0  0  0  0  0  0  0  0  0  0
    3.2769    0.2395    1.1084 H   0  0  0  0  0  0  0  0  0  0  0  0
    3.2268   -1.9838   -1.0290 H   0  0  0  0  0  0  0  0  0  0  0  0
    3.1745   -2.2108    0.7570 H   0  0  0  0  0  0  0  0  0  0  0  0
    5.3236   -0.8845    0.9265 H   0  0  0  0  0  0  0  0  0  0  0  0
    5.3846   -0.7572   -0.8124 H   0  0  0  0  0  0  0  0  0  0  0  0
    5.9915   -2.8302    0.8404 H   0  0  0  0  0  0  0  0  0  0  0  0
    6.2358   -2.6722   -1.0062 H   0  0  0  0  0  0  0  0  0  0  0  0
    7.9921   -2.6201    1.0481 H   0  0  0  0  0  0  0  0  0  0  0  0
    7.3074   -4.0287    0.1040 H   0  0  0  0  0  0  0  0  0  0  0  0
    8.8896   -4.1369   -1.0461 H   0  0  0  0  0  0  0  0  0  0  0  0
    9.5801   -2.7231   -0.1125 H   0  0  0  0  0  0  0  0  0  0  0  0
   10.8783   -3.9463   -0.8666 H   0  0  0  0  0  0  0  0  0  0  0  0
   10.6657   -4.0590    0.9940 H   0  0  0  0  0  0  0  0  0  0  0  0
   11.6097   -5.9094   -0.9002 H   0  0  0  0  0  0  0  0  0  0  0  0
   11.5796   -5.9652    0.8506 H   0  0  0  0  0  0  0  0  0  0  0  0
   13.4718   -4.2692   -0.8477 H   0  0  0  0  0  0  0  0  0  0  0  0
   13.4535   -4.3215    0.9518 H   0  0  0  0  0  0  0  0  0  0  0  0
   18.3725   -7.7250   -1.0728 H   0  0  0  0  0  0  0  0  0  0  0  0
   19.2859   -6.2664    1.4010 H   0  0  0  0  0  0  0  0  0  0  0  0
   19.8889   -6.0828   -0.2588 H   0  0  0  0  0  0  0  0  0  0  0  0
   24.2246  -10.2086    0.7314 H   0  0  0  0  0  0  0  0  0  0  0  0
   24.1350   -9.7878   -1.0357 H   0  0  0  0  0  0  0  0  0  0  0  0
   25.9376   -8.2523   -0.8467 H   0  0  0  0  0  0  0  0  0  0  0  0
   25.9443   -8.4586    0.9894 H   0  0  0  0  0  0  0  0  0  0  0  0
   28.9813  -10.3926    1.0424 H   0  0  0  0  0  0  0  0  0  0  0  0
   28.9815  -10.3922   -1.0422 H   0  0  0  0  0  0  0  0  0  0  0  0
   29.5054  -11.0350    0.0000 H   0  0  0  0  0  0  0  0  0  0  0  0
   28.4590   -8.3579    1.0335 H   0  0  0  0  0  0  0  0  0  0  0  0
   28.4577   -8.3578   -1.0340 H   0  0  0  0  0  0  0  0  0  0  0  0
   28.5648   -7.5244    0.0000 H   0  0  0  0  0  0  0  0  0  0  0  0
   26.7477  -11.4896    1.0134 H   0  0  0  0  0  0  0  0  0  0  0  0
   26.7469  -11.4888   -1.0138 H   0  0  0  0  0  0  0  0  0  0  0  0
   25.9948  -11.9756    0.0000 H   0  0  0  0  0  0  0  0  0  0  0  0
   18.1456  -10.0930   -1.0300 H   0  0  0  0  0  0  0  0  0  0  0  0
   18.3088  -11.2762    1.8180 H   0  0  0  0  0  0  0  0  0  0  0  0
   17.1007  -12.9339    0.1610 H   0  0  0  0  0  0  0  0  0  0  0  0
   18.2332  -12.3843   -1.0709 H   0  0  0  0  0  0  0  0  0  0  0  0
   18.2329  -14.4453   -0.7558 H   0  0  0  0  0  0  0  0  0  0  0  0
   18.5239  -14.2080    1.0234 H   0  0  0  0  0  0  0  0  0  0  0  0
   20.2012  -14.9928   -0.9560 H   0  0  0  0  0  0  0  0  0  0  0  0
   20.3908  -14.9128    0.7940 H   0  0  0  0  0  0  0  0  0  0  0  0
   19.9453  -16.9238    0.9482 H   0  0  0  0  0  0  0  0  0  0  0  0
   19.8143  -17.0052   -0.8327 H   0  0  0  0  0  0  0  0  0  0  0  0
   22.5664  -18.9437   -0.8798 H   0  0  0  0  0  0  0  0  0  0  0  0
   22.5548  -18.9505    0.8898 H   0  0  0  0  0  0  0  0  0  0  0  0
   21.7588  -21.2684    0.8846 H   0  0  0  0  0  0  0  0  0  0  0  0
   21.7706  -21.2616   -0.9026 H   0  0  0  0  0  0  0  0  0  0  0  0
   24.3524  -21.0181    0.9026 H   0  0  0  0  0  0  0  0  0  0  0  0
   24.3642  -21.0114   -0.8846 H   0  0  0  0  0  0  0  0  0  0  0  0
   23.5682  -23.3293   -0.8898 H   0  0  0  0  0  0  0  0  0  0  0  0
   23.5566  -23.3360    0.8798 H   0  0  0  0  0  0  0  0  0  0  0  0
   26.2424  -25.3172    0.8957 H   0  0  0  0  0  0  0  0  0  0  0  0
   26.2418  -25.3176   -0.8962 H   0  0  0  0  0  0  0  0  0  0  0  0
   25.8812  -27.3544    0.8963 H   0  0  0  0  0  0  0  0  0  0  0  0
   25.8803  -27.3549   -0.8956 H   0  0  0  0  0  0  0  0  0  0  0  0
   27.1868  -30.1086    0.6269 H   0  0  0  0  0  0  0  0  0  0  0  0
   28.7556  -29.2029    0.6440 H   0  0  0  0  0  0  0  0  0  0  0  0
   28.4715  -30.5102    0.0000 H   0  0  0  0  0  0  0  0  0  0  0  0
  1  2  1  0  0  0  0
  1 54  1  0  0  0  0
  1 55  1  0  0  0  0
  1 56  1  0  0  0  0
  2  3  1  0  0  0  0
  2 57  1  0  0  0  0
  2 58  1  0  0  0  0
  3  4  1  0  0  0  0
  3 59  1  0  0  0  0
  3 60  1  0  0  0  0
  4  5  1  0  0  0  0
  4 61  1  0  0  0  0
  4 62  1  0  0  0  0
  5  6  1  0  0  0  0
  5 63  1  0  0  0  0
  5 64  1  0  0  0  0
  6  7  1  0  0  0  0
  6 65  1  0  0  0  0
  6 66  1  0  0  0  0
  7  8  1  0  0  0  0
  7 67  1  0  0  0  0
  7 68  1  0  0  0  0
  8  9  1  0  0  0  0
  8 69  1  0  0  0  0
  8 70  1  0  0  0  0
  9 10  2  3  0  0  0
  9 71  1  0  0  0  0
 10 11  1  0  0  0  0
 10 72  1  0  0  0  0
 11 12  1  0  0  0  0
 11 73  1  0  0  0  0
 11 74  1  0  0  0  0
 12 13  1  0  0  0  0
 12 75  1  0  0  0  0
 12 76  1  0  0  0  0
 13 14  1  0  0  0  0
 13 77  1  0  0  0  0
 13 78  1  0  0  0  0
 14 15  1  0  0  0  0
 14 79  1  0  0  0  0
 14 80  1  0  0  0  0
 15 16  1  0  0  0  0
 15 81  1  0  0  0  0
 15 82  1  0  0  0  0
 16 17  1  0  0  0  0
 16 83  1  0  0  0  0
 16 84  1  0  0  0  0
 17 18  1  0  0  0  0
 17 85  1  0  0  0  0
 17 86  1  0  0  0  0
 18 19  1  0  0  0  0
 18 87  1  0  0  0  0
 18 88  1  0  0  0  0
 19 20  1  0  0  0  0
 19 89  1  0  0  0  0
 19 90  1  0  0  0  0
 20 21  2  0  0  0  0
 20 22  1  0  0  0  0
 22 23  1  0  0  0  0
 23 24  1  0  0  0  0
 24 25  1  0  0  0  0
 24 37  1  0  0  0  0
 24 91  1  0  0  0  0
 25 26  1  0  0  0  0
 25 92  1  0  0  0  0
 25 93  1  0  0  0  0
 26 27  1  0  0  0  0
 27 28  2  0  0  0  0
 27 29  1  0  0  0  0
 27 30  1  0  0  0  0
 30 31  1  0  0  0  0
 31 32  1  0  0  0  0
 31 94  1  0  0  0  0
 31 95  1  0  0  0  0
 32 33  1  0  0  0  0
 32 96  1  0  0  0  0
 32 97  1  0  0  0  0
 33 34  1  0  0  0  0
 33 35  1  0  0  0  0
 33 36  1  0  0  0  0
 34 98  1  0  0  0  0
 34 99  1  0  0  0  0
 34100  1  0  0  0  0
 35101  1  0  0  0  0
 35102  1  0  0  0  0
 35103  1  0  0  0  0
 36104  1  0  0  0  0
 36105  1  0  0  0  0
 36106  1  0  0  0  0
 37 38  1  0  0  0  0
 38 39  2  3  0  0  0
 38107  1  0  0  0  0
 39 40  1  0  0  0  0
 39108  1  0  0  0  0
 40 41  1  0  0  0  0
 40109  1  0  0  0  0
 40110  1  0  0  0  0
 41 42  1  0  0  0  0
 41111  1  0  0  0  0
 41112  1  0  0  0  0
 42 43  1  0  0  0  0
 42113  1  0  0  0  0
 42114  1  0  0  0  0
 43 44  1  0  0  0  0
 43115  1  0  0  0  0
 43116  1  0  0  0  0
 44 45  1  0  0  0  0
 45 46  1  0  0  0  0
 45117  1  0  0  0  0
 45118  1  0  0  0  0
 46 47  1  0  0  0  0
 46119  1  0  0  0  0
 46120  1  0  0  0  0
 47 48  1  0  0  0  0
 47121  1  0  0  0  0
 47122  1  0  0  0  0
 48 49  1  0  0  0  0
 48123  1  0  0  0  0
 48124  1  0  0  0  0
 49 50  1  0  0  0  0
 50 51  1  0  0  0  0
 50125  1  0  0  0  0
 50126  1  0  0  0  0
 51 52  1  0  0  0  0
 51127  1  0  0  0  0
 51128  1  0  0  0  0
 52 53  1  0  0  0  0
 53129  1  0  0  0  0
 53130  1  0  0  0  0
 53131  1  0  0  0  0
M  CHG  2  29  -1  33   1
M  END
>  <IDENTIFIER>
CNP0566235.0

>  <Energy>
11475.8

$$$$
