
 OpenBabel09082520373D

 44 44  0  0  0  0  0  0  0  0999 V2000
   -3.3583   -0.5061   -3.1481 C   0  0  0  0  0  0  0  0  0  0  0  0
   -3.1609   -1.5573   -2.0439 C   0  0  0  0  0  0  0  0  0  0  0  0
   -2.2817   -2.7163   -2.5508 C   0  0  0  0  0  0  0  0  0  0  0  0
   -2.6138   -0.9256   -0.7389 C   0  0  0  0  0  0  0  0  0  0  0  0
   -1.2390   -0.2584   -0.9220 C   0  0  0  0  0  0  0  0  0  0  0  0
   -0.5687    0.3404    0.3496 C   0  0  1  0  0  0  0  0  0  0  0  0
   -1.4638    1.5075    0.9001 C   0  0  0  0  0  0  0  0  0  0  0  0
   -0.9817    2.1637    2.1280 C   0  0  0  0  0  0  0  0  0  0  0  0
   -0.6060    2.6831    3.0943 N   0  0  0  0  0  0  0  0  0  0  0  0
   -0.3734   -0.7662    1.4332 C   0  0  0  0  0  0  0  0  0  0  0  0
    0.9955   -0.6826    2.1429 C   0  0  0  0  0  0  0  0  0  0  0  0
    1.4716    0.6390    2.3052 O   0  0  0  0  0  0  0  0  0  0  0  0
    1.7230    1.2955    1.0545 C   0  0  1  0  0  0  0  0  0  0  0  0
    3.2337    1.3020    0.6602 C   0  0  0  0  0  0  0  0  0  0  0  0
    4.0592    2.0200    1.7304 C   0  0  0  0  0  0  0  0  0  0  0  0
    3.8409   -0.0986    0.4135 C   0  0  0  0  0  0  0  0  0  0  0  0
    0.8308    0.8101   -0.1154 C   0  0  0  0  0  0  0  0  0  0  0  0
   -3.8548   -0.9622   -4.0288 H   0  0  0  0  0  0  0  0  0  0  0  0
   -2.3894   -0.0860   -3.4910 H   0  0  0  0  0  0  0  0  0  0  0  0
   -3.9956    0.3234   -2.7740 H   0  0  0  0  0  0  0  0  0  0  0  0
   -4.1578   -1.9817   -1.7959 H   0  0  0  0  0  0  0  0  0  0  0  0
   -1.2795   -2.3698   -2.8782 H   0  0  0  0  0  0  0  0  0  0  0  0
   -2.7614   -3.2063   -3.4234 H   0  0  0  0  0  0  0  0  0  0  0  0
   -2.1523   -3.4777   -1.7520 H   0  0  0  0  0  0  0  0  0  0  0  0
   -2.5445   -1.7243    0.0301 H   0  0  0  0  0  0  0  0  0  0  0  0
   -3.3500   -0.1765   -0.3853 H   0  0  0  0  0  0  0  0  0  0  0  0
   -1.3189    0.5521   -1.6761 H   0  0  0  0  0  0  0  0  0  0  0  0
   -0.5516   -1.0314   -1.3220 H   0  0  0  0  0  0  0  0  0  0  0  0
   -2.4655    1.1292    1.1515 H   0  0  0  0  0  0  0  0  0  0  0  0
   -1.5819    2.2940    0.1199 H   0  0  0  0  0  0  0  0  0  0  0  0
   -0.3791   -1.7874    0.9893 H   0  0  0  0  0  0  0  0  0  0  0  0
   -1.2258   -0.7377    2.1455 H   0  0  0  0  0  0  0  0  0  0  0  0
    1.7371   -1.2559    1.5583 H   0  0  0  0  0  0  0  0  0  0  0  0
    0.9332   -1.1939    3.1269 H   0  0  0  0  0  0  0  0  0  0  0  0
    1.4287    2.3562    1.2098 H   0  0  0  0  0  0  0  0  0  0  0  0
    3.3322    1.8799   -0.2860 H   0  0  0  0  0  0  0  0  0  0  0  0
    3.9922    1.4809    2.6995 H   0  0  0  0  0  0  0  0  0  0  0  0
    3.6898    3.0579    1.8652 H   0  0  0  0  0  0  0  0  0  0  0  0
    5.1246    2.0687    1.4189 H   0  0  0  0  0  0  0  0  0  0  0  0
    3.8450   -0.7055    1.3414 H   0  0  0  0  0  0  0  0  0  0  0  0
    4.8927   -0.0027    0.0748 H   0  0  0  0  0  0  0  0  0  0  0  0
    3.3186   -0.6616   -0.3846 H   0  0  0  0  0  0  0  0  0  0  0  0
    1.3026   -0.0782   -0.5695 H   0  0  0  0  0  0  0  0  0  0  0  0
    0.7842    1.5877   -0.9119 H   0  0  0  0  0  0  0  0  0  0  0  0
  1  2  1  0  0  0  0
  1 18  1  0  0  0  0
  1 19  1  0  0  0  0
  1 20  1  0  0  0  0
  2  3  1  0  0  0  0
  2  4  1  0  0  0  0
  2 21  1  0  0  0  0
  3 22  1  0  0  0  0
  3 23  1  0  0  0  0
  3 24  1  0  0  0  0
  4  5  1  0  0  0  0
  4 25  1  0  0  0  0
  4 26  1  0  0  0  0
  5 27  1  0  0  0  0
  5 28  1  0  0  0  0
  6  5  1  6  0  0  0
  6  7  1  0  0  0  0
  6 10  1  0  0  0  0
  7  8  1  0  0  0  0
  7 29  1  0  0  0  0
  7 30  1  0  0  0  0
  8  9  3  0  0  0  0
 10 11  1  0  0  0  0
 10 31  1  0  0  0  0
 10 32  1  0  0  0  0
 11 12  1  0  0  0  0
 11 33  1  0  0  0  0
 11 34  1  0  0  0  0
 12 13  1  0  0  0  0
 13 14  1  0  0  0  0
 13 17  1  0  0  0  0
 13 35  1  1  0  0  0
 14 15  1  0  0  0  0
 14 16  1  0  0  0  0
 14 36  1  0  0  0  0
 15 37  1  0  0  0  0
 15 38  1  0  0  0  0
 15 39  1  0  0  0  0
 16 40  1  0  0  0  0
 16 41  1  0  0  0  0
 16 42  1  0  0  0  0
 17  6  1  0  0  0  0
 17 43  1  0  0  0  0
 17 44  1  0  0  0  0
M  END
>  <IDENTIFIER>
CNP0380692.3

>  <Energy>
346.9

$$$$
