
 OpenBabel09132510553D

 40 41  0  0  0  0  0  0  0  0999 V2000
   -4.1245   -0.2123   -1.3671 C   0  0  0  0  0  0  0  0  0  0  0  0
   -3.1177   -1.1953   -0.7676 C   0  0  0  0  0  0  0  0  0  0  0  0
   -2.3804   -0.6717    0.4863 C   0  0  2  0  0  0  0  0  0  0  0  0
   -3.3678   -0.4736    1.6604 C   0  0  0  0  0  0  0  0  0  0  0  0
   -2.6860   -0.1139    2.8322 O   0  0  0  0  0  0  0  0  0  0  0  0
   -1.6081    0.5521    0.2623 N   0  0  0  0  0  0  0  0  0  0  0  0
   -0.4068    0.5812   -0.5172 C   0  0  0  0  0  0  0  0  0  0  0  0
   -0.4485    0.3486   -2.0091 C   0  0  0  0  0  0  0  0  0  0  0  0
    0.7881    0.8401    0.0723 C   0  0  0  0  0  0  0  0  0  0  0  0
    1.0334    1.0499    1.5017 C   0  0  0  0  0  0  0  0  0  0  0  0
    0.1814    1.0320    2.3757 O   0  0  0  0  0  0  0  0  0  0  0  0
    2.4730    1.2499    1.7881 C   0  0  0  0  0  0  0  0  0  0  0  0
    3.1674    1.2024    0.4177 C   0  0  2  0  0  0  0  0  0  0  0  0
    2.0870    0.9094   -0.6868 C   0  0  1  0  0  0  0  0  0  0  0  0
    3.1574   -0.1104   -0.3649 C   0  0  0  0  0  0  0  0  0  0  0  0
    2.7648   -1.4386    0.3119 C   0  0  0  0  0  0  0  0  0  0  0  0
    4.1813   -0.2394   -1.5014 C   0  0  0  0  0  0  0  0  0  0  0  0
   -4.5801   -0.6661   -2.2724 H   0  0  0  0  0  0  0  0  0  0  0  0
   -3.6312    0.7381   -1.6549 H   0  0  0  0  0  0  0  0  0  0  0  0
   -4.9425    0.0064   -0.6507 H   0  0  0  0  0  0  0  0  0  0  0  0
   -2.3775   -1.4885   -1.5369 H   0  0  0  0  0  0  0  0  0  0  0  0
   -3.6550   -2.1319   -0.5032 H   0  0  0  0  0  0  0  0  0  0  0  0
   -1.6730   -1.4731    0.7979 H   0  0  0  0  0  0  0  0  0  0  0  0
   -3.9572   -1.4015    1.8422 H   0  0  0  0  0  0  0  0  0  0  0  0
   -4.0928    0.3328    1.4273 H   0  0  0  0  0  0  0  0  0  0  0  0
   -2.2639   -0.9408    3.1828 H   0  0  0  0  0  0  0  0  0  0  0  0
   -1.7387    1.3140    0.9442 H   0  0  0  0  0  0  0  0  0  0  0  0
   -1.4765    0.2544   -2.3964 H   0  0  0  0  0  0  0  0  0  0  0  0
    0.1348   -0.5580   -2.2725 H   0  0  0  0  0  0  0  0  0  0  0  0
   -0.0139    1.2265   -2.5321 H   0  0  0  0  0  0  0  0  0  0  0  0
    2.8741    0.4715    2.4711 H   0  0  0  0  0  0  0  0  0  0  0  0
    2.6140    2.2523    2.2433 H   0  0  0  0  0  0  0  0  0  0  0  0
    4.2238    1.5404    0.3540 H   0  0  0  0  0  0  0  0  0  0  0  0
    2.2150    1.7318   -1.4216 H   0  0  0  0  0  0  0  0  0  0  0  0
    2.3762   -2.1378   -0.4573 H   0  0  0  0  0  0  0  0  0  0  0  0
    1.9893   -1.3410    1.0946 H   0  0  0  0  0  0  0  0  0  0  0  0
    3.6652   -1.8902    0.7778 H   0  0  0  0  0  0  0  0  0  0  0  0
    3.7820   -0.9104   -2.2907 H   0  0  0  0  0  0  0  0  0  0  0  0
    5.1222   -0.6738   -1.1034 H   0  0  0  0  0  0  0  0  0  0  0  0
    4.4203    0.7433   -1.9641 H   0  0  0  0  0  0  0  0  0  0  0  0
  1  2  1  0  0  0  0
  1 18  1  0  0  0  0
  1 19  1  0  0  0  0
  1 20  1  0  0  0  0
  2 21  1  0  0  0  0
  2 22  1  0  0  0  0
  3  2  1  0  0  0  0
  3  4  1  0  0  0  0
  3  6  1  0  0  0  0
  3 23  1  1  0  0  0
  4  5  1  0  0  0  0
  4 24  1  0  0  0  0
  4 25  1  0  0  0  0
  5 26  1  0  0  0  0
  6  7  1  0  0  0  0
  6 27  1  0  0  0  0
  7  8  1  0  0  0  0
  7  9  2  0  0  0  0
  8 28  1  0  0  0  0
  8 29  1  0  0  0  0
  8 30  1  0  0  0  0
  9 10  1  0  0  0  0
 10 11  2  0  0  0  0
 10 12  1  0  0  0  0
 12 31  1  0  0  0  0
 12 32  1  0  0  0  0
 13 12  1  0  0  0  0
 13 14  1  0  0  0  0
 13 33  1  6  0  0  0
 14 15  1  0  0  0  0
 14  9  1  0  0  0  0
 14 34  1  6  0  0  0
 15 16  1  0  0  0  0
 15 17  1  0  0  0  0
 15 13  1  0  0  0  0
 16 35  1  0  0  0  0
 16 36  1  0  0  0  0
 16 37  1  0  0  0  0
 17 38  1  0  0  0  0
 17 39  1  0  0  0  0
 17 40  1  0  0  0  0
M  END
>  <IDENTIFIER>
CNP0290463.2

>  <Energy>
1650.67

$$$$
