
 OpenBabel09072502293D

125132  0  0  0  0  0  0  0  0999 V2000
   -0.3838   -2.0621    2.6840 N   0  0  0  0  0  0  0  0  0  0  0  0
   -0.4863   -0.7303    3.2633 C   0  0  0  0  0  0  0  0  0  0  0  0
    0.2087    0.3315    2.3778 C   0  0  2  0  0  0  0  0  0  0  0  0
    0.1039    1.6496    3.0977 C   0  0  0  0  0  0  0  0  0  0  0  0
   -0.8100    2.5759    2.7790 C   0  0  0  0  0  0  0  0  0  0  0  0
   -1.8261    2.4092    1.6640 C   0  0  2  0  0  0  0  0  0  0  0  0
   -3.1983    2.7058    2.2295 C   0  0  0  0  0  0  0  0  0  0  0  0
   -3.8434    3.6450    1.7855 O   0  0  0  0  0  0  0  0  0  0  0  0
   -3.7159    1.9635    3.2305 O   0  0  0  0  0  0  0  0  0  0  0  0
   -1.7916    0.9946    0.9591 C   0  0  2  0  0  0  0  0  0  0  0  0
   -0.3331    0.4315    0.9020 C   0  0  1  0  0  0  0  0  0  0  0  0
    0.4901    1.3955   -0.0205 C   0  0  1  0  0  0  0  0  0  0  0  0
    2.0368    1.3116   -0.0532 C   0  0  0  0  0  0  0  0  0  0  0  0
    2.7986    0.3684   -1.0257 C   0  0  1  0  0  0  0  0  0  0  0  0
    4.3281    0.6564   -0.9352 C   0  0  0  0  0  0  0  0  0  0  0  0
    4.9165    0.5156    0.4593 C   0  0  0  0  0  0  0  0  0  0  0  0
    5.9260   -0.2875    0.8413 C   0  0  0  0  0  0  0  0  0  0  0  0
    6.6943   -1.2341   -0.0366 C   0  0  0  0  0  0  0  0  0  0  0  0
    8.2008   -0.9137   -0.0376 C   0  0  0  0  0  0  0  0  0  0  0  0
    8.6449    0.4615   -0.6080 C   0  0  0  0  0  0  0  0  0  0  0  0
    8.2353    1.6896    0.2167 C   0  0  0  0  0  0  0  0  0  0  0  0
    9.0252    2.9364   -0.2663 C   0  0  0  0  0  0  0  0  0  0  0  0
    9.3566    2.9074   -1.7827 C   0  0  0  0  0  0  0  0  0  0  0  0
    8.2605    2.1653   -2.5379 C   0  0  0  0  0  0  0  0  0  0  0  0
    8.2296    0.6747   -2.0992 C   0  0  0  0  0  0  0  0  0  0  0  0
    2.4805   -1.1468   -1.0070 C   0  0  0  0  0  0  0  0  0  0  0  0
    2.6817   -1.9136    0.3053 C   0  0  0  0  0  0  0  0  0  0  0  0
    2.6313   -3.4001    0.0401 C   0  0  0  0  0  0  0  0  0  0  0  0
    3.7040   -4.0232   -0.6252 C   0  0  0  0  0  0  0  0  0  0  0  0
    3.6788   -5.3976   -0.8782 C   0  0  0  0  0  0  0  0  0  0  0  0
    2.5803   -6.1614   -0.4793 C   0  0  0  0  0  0  0  0  0  0  0  0
    1.5104   -5.5528    0.1800 C   0  0  0  0  0  0  0  0  0  0  0  0
    1.5363   -4.1794    0.4435 C   0  0  0  0  0  0  0  0  0  0  0  0
   -0.1348    1.4732   -1.3903 C   0  0  0  0  0  0  0  0  0  0  0  0
   -1.4602    1.3512   -1.5784 C   0  0  0  0  0  0  0  0  0  0  0  0
   -2.4696    1.0708   -0.4664 C   0  0  1  0  0  0  0  0  0  0  0  0
   -3.4902   -0.1284   -0.7467 C   0  0  2  0  0  0  0  0  0  0  0  0
   -4.0762   -0.0766   -2.1921 C   0  0  0  0  0  0  0  0  0  0  0  0
   -4.8386    1.2060   -2.5418 C   0  0  0  0  0  0  0  0  0  0  0  0
   -5.7096    1.7169   -1.3931 C   0  0  0  0  0  0  0  0  0  0  0  0
   -6.0644    0.6109   -0.3775 C   0  0  2  0  0  0  0  0  0  0  0  0
   -7.0031    1.2346    0.6977 C   0  0  0  0  0  0  0  0  0  0  0  0
   -8.3353    1.6367    0.1194 C   0  0  0  0  0  0  0  0  0  0  0  0
   -8.6462    2.9886   -0.1033 C   0  0  0  0  0  0  0  0  0  0  0  0
   -9.8844    3.3448   -0.6444 C   0  0  0  0  0  0  0  0  0  0  0  0
  -10.8286    2.3588   -0.9439 C   0  0  0  0  0  0  0  0  0  0  0  0
  -10.5331    1.0073   -0.7117 C   0  0  0  0  0  0  0  0  0  0  0  0
  -11.4400    0.0461   -0.9779 O   0  0  0  0  0  0  0  0  0  0  0  0
   -9.2847    0.6500   -0.1927 C   0  0  0  0  0  0  0  0  0  0  0  0
   -4.7369    0.0494    0.2739 C   0  0  1  0  0  0  0  0  0  0  0  0
   -5.0567   -1.1469    1.1432 C   0  0  0  0  0  0  0  0  0  0  0  0
   -4.4047   -2.3004    1.0973 C   0  0  0  0  0  0  0  0  0  0  0  0
   -3.2814   -2.5290    0.1930 C   0  0  0  0  0  0  0  0  0  0  0  0
   -2.6940   -3.8042    0.1865 C   0  0  0  0  0  0  0  0  0  0  0  0
   -1.6439   -4.0937   -0.6767 C   0  0  0  0  0  0  0  0  0  0  0  0
   -1.1575   -3.1110   -1.5303 C   0  0  0  0  0  0  0  0  0  0  0  0
   -1.7299   -1.8387   -1.5311 C   0  0  0  0  0  0  0  0  0  0  0  0
   -2.8084   -1.5157   -0.6702 C   0  0  0  0  0  0  0  0  0  0  0  0
   -0.9510   -2.7198    3.2661 H   0  0  0  0  0  0  0  0  0  0  0  0
    0.6115   -2.3695    2.7614 H   0  0  0  0  0  0  0  0  0  0  0  0
   -0.0127   -0.7392    4.2724 H   0  0  0  0  0  0  0  0  0  0  0  0
   -1.5548   -0.4851    3.4209 H   0  0  0  0  0  0  0  0  0  0  0  0
    1.2733    0.0382    2.3530 H   0  0  0  0  0  0  0  0  0  0  0  0
    0.7834    1.8452    3.9217 H   0  0  0  0  0  0  0  0  0  0  0  0
   -0.8094    3.5088    3.3352 H   0  0  0  0  0  0  0  0  0  0  0  0
   -1.5802    3.1957    0.9176 H   0  0  0  0  0  0  0  0  0  0  0  0
   -3.2343    1.2254    3.6271 H   0  0  0  0  0  0  0  0  0  0  0  0
   -2.3714    0.3040    1.5963 H   0  0  0  0  0  0  0  0  0  0  0  0
   -0.3050   -0.5827    0.4549 H   0  0  0  0  0  0  0  0  0  0  0  0
    0.3580    2.3968    0.4238 H   0  0  0  0  0  0  0  0  0  0  0  0
    2.3890    1.2002    0.9811 H   0  0  0  0  0  0  0  0  0  0  0  0
    2.3743    2.3272   -0.3690 H   0  0  0  0  0  0  0  0  0  0  0  0
    2.5199    0.6760   -2.0574 H   0  0  0  0  0  0  0  0  0  0  0  0
    4.5011    1.7137   -1.2325 H   0  0  0  0  0  0  0  0  0  0  0  0
    4.8406    0.0461   -1.6979 H   0  0  0  0  0  0  0  0  0  0  0  0
    4.5088    1.1486    1.2384 H   0  0  0  0  0  0  0  0  0  0  0  0
    6.2257   -0.2446    1.8852 H   0  0  0  0  0  0  0  0  0  0  0  0
    6.3243   -1.2816   -1.0720 H   0  0  0  0  0  0  0  0  0  0  0  0
    6.5573   -2.2531    0.3842 H   0  0  0  0  0  0  0  0  0  0  0  0
    8.7000   -1.7053   -0.6375 H   0  0  0  0  0  0  0  0  0  0  0  0
    8.5837   -0.9997    1.0036 H   0  0  0  0  0  0  0  0  0  0  0  0
    9.7574    0.4510   -0.5498 H   0  0  0  0  0  0  0  0  0  0  0  0
    8.3936    1.5636    1.3094 H   0  0  0  0  0  0  0  0  0  0  0  0
    7.1566    1.8695    0.0406 H   0  0  0  0  0  0  0  0  0  0  0  0
    9.9950    3.0327    0.2684 H   0  0  0  0  0  0  0  0  0  0  0  0
    8.4083    3.8239   -0.0050 H   0  0  0  0  0  0  0  0  0  0  0  0
   10.3005    2.3451   -1.9593 H   0  0  0  0  0  0  0  0  0  0  0  0
    9.5098    3.9453   -2.1473 H   0  0  0  0  0  0  0  0  0  0  0  0
    8.3807    2.2228   -3.6406 H   0  0  0  0  0  0  0  0  0  0  0  0
    7.2998    2.6642   -2.2773 H   0  0  0  0  0  0  0  0  0  0  0  0
    8.9266    0.0634   -2.7118 H   0  0  0  0  0  0  0  0  0  0  0  0
    7.2008    0.3290   -2.3190 H   0  0  0  0  0  0  0  0  0  0  0  0
    3.1241   -1.5993   -1.7935 H   0  0  0  0  0  0  0  0  0  0  0  0
    1.4270   -1.3028   -1.3278 H   0  0  0  0  0  0  0  0  0  0  0  0
    1.8830   -1.6033    0.9959 H   0  0  0  0  0  0  0  0  0  0  0  0
    3.6507   -1.7065    0.7900 H   0  0  0  0  0  0  0  0  0  0  0  0
    4.5641   -3.4449   -0.9387 H   0  0  0  0  0  0  0  0  0  0  0  0
    4.5107   -5.8698   -1.3845 H   0  0  0  0  0  0  0  0  0  0  0  0
    2.5579   -7.2246   -0.6805 H   0  0  0  0  0  0  0  0  0  0  0  0
    0.6582   -6.1460    0.4844 H   0  0  0  0  0  0  0  0  0  0  0  0
    0.6951   -3.7289    0.9434 H   0  0  0  0  0  0  0  0  0  0  0  0
    0.4883    1.6521   -2.2600 H   0  0  0  0  0  0  0  0  0  0  0  0
   -1.8245    1.4600   -2.5935 H   0  0  0  0  0  0  0  0  0  0  0  0
   -3.1056    1.9722   -0.4785 H   0  0  0  0  0  0  0  0  0  0  0  0
   -4.7978   -0.9230   -2.2660 H   0  0  0  0  0  0  0  0  0  0  0  0
   -3.3271   -0.2536   -2.9918 H   0  0  0  0  0  0  0  0  0  0  0  0
   -5.4689    0.9544   -3.4228 H   0  0  0  0  0  0  0  0  0  0  0  0
   -4.1621    2.0323   -2.8486 H   0  0  0  0  0  0  0  0  0  0  0  0
   -6.5926    2.2245   -1.8350 H   0  0  0  0  0  0  0  0  0  0  0  0
   -5.1597    2.5020   -0.8335 H   0  0  0  0  0  0  0  0  0  0  0  0
   -6.5881   -0.2142   -0.9095 H   0  0  0  0  0  0  0  0  0  0  0  0
   -6.4867    2.1212    1.1305 H   0  0  0  0  0  0  0  0  0  0  0  0
   -7.2156    0.5561    1.5450 H   0  0  0  0  0  0  0  0  0  0  0  0
   -7.9240    3.7633    0.1243 H   0  0  0  0  0  0  0  0  0  0  0  0
  -10.1132    4.3861   -0.8290 H   0  0  0  0  0  0  0  0  0  0  0  0
  -11.7887    2.6458   -1.3535 H   0  0  0  0  0  0  0  0  0  0  0  0
  -12.3232    0.2521   -1.3154 H   0  0  0  0  0  0  0  0  0  0  0  0
   -9.0594   -0.3945   -0.0128 H   0  0  0  0  0  0  0  0  0  0  0  0
   -4.4507    0.8171    1.0067 H   0  0  0  0  0  0  0  0  0  0  0  0
   -5.8526   -1.0754    1.8738 H   0  0  0  0  0  0  0  0  0  0  0  0
   -4.7189   -3.0960    1.7686 H   0  0  0  0  0  0  0  0  0  0  0  0
   -3.0629   -4.5850    0.8411 H   0  0  0  0  0  0  0  0  0  0  0  0
   -1.2113   -5.0842   -0.6859 H   0  0  0  0  0  0  0  0  0  0  0  0
   -0.3418   -3.3395   -2.2047 H   0  0  0  0  0  0  0  0  0  0  0  0
   -1.3313   -1.1202   -2.2289 H   0  0  0  0  0  0  0  0  0  0  0  0
  1  2  1  0  0  0  0
  1 59  1  0  0  0  0
  1 60  1  0  0  0  0
  2 61  1  0  0  0  0
  2 62  1  0  0  0  0
  3  2  1  0  0  0  0
  3  4  1  0  0  0  0
  3 63  1  6  0  0  0
  4  5  2  0  0  0  0
  4 64  1  0  0  0  0
  5  6  1  0  0  0  0
  5 65  1  0  0  0  0
  6  7  1  0  0  0  0
  6 66  1  6  0  0  0
  7  8  2  0  0  0  0
  7  9  1  0  0  0  0
  9 67  1  0  0  0  0
 10  6  1  0  0  0  0
 10 11  1  0  0  0  0
 10 68  1  1  0  0  0
 11 12  1  0  0  0  0
 11  3  1  0  0  0  0
 11 69  1  6  0  0  0
 12 13  1  0  0  0  0
 12 34  1  0  0  0  0
 12 70  1  1  0  0  0
 13 71  1  0  0  0  0
 13 72  1  0  0  0  0
 14 13  1  0  0  0  0
 14 15  1  0  0  0  0
 14 26  1  0  0  0  0
 14 73  1  6  0  0  0
 15 16  1  0  0  0  0
 15 74  1  0  0  0  0
 15 75  1  0  0  0  0
 16 17  2  0  0  0  0
 16 76  1  0  0  0  0
 17 18  1  0  0  0  0
 17 77  1  0  0  0  0
 18 19  1  0  0  0  0
 18 78  1  0  0  0  0
 18 79  1  0  0  0  0
 19 20  1  0  0  0  0
 19 80  1  0  0  0  0
 19 81  1  0  0  0  0
 20 21  1  0  0  0  0
 20 82  1  0  0  0  0
 21 22  1  0  0  0  0
 21 83  1  0  0  0  0
 21 84  1  0  0  0  0
 22 23  1  0  0  0  0
 22 85  1  0  0  0  0
 22 86  1  0  0  0  0
 23 24  1  0  0  0  0
 23 87  1  0  0  0  0
 23 88  1  0  0  0  0
 24 25  1  0  0  0  0
 24 89  1  0  0  0  0
 24 90  1  0  0  0  0
 25 20  1  0  0  0  0
 25 91  1  0  0  0  0
 25 92  1  0  0  0  0
 26 27  1  0  0  0  0
 26 93  1  0  0  0  0
 26 94  1  0  0  0  0
 27 28  1  0  0  0  0
 27 95  1  0  0  0  0
 27 96  1  0  0  0  0
 28 29  2  0  0  0  0
 29 30  1  0  0  0  0
 29 97  1  0  0  0  0
 30 31  2  0  0  0  0
 30 98  1  0  0  0  0
 31 32  1  0  0  0  0
 31 99  1  0  0  0  0
 32 33  2  0  0  0  0
 32100  1  0  0  0  0
 33 28  1  0  0  0  0
 33101  1  0  0  0  0
 34 35  2  0  0  0  0
 34102  1  0  0  0  0
 35103  1  0  0  0  0
 36 35  1  0  0  0  0
 36 37  1  0  0  0  0
 36 10  1  0  0  0  0
 36104  1  1  0  0  0
 37 38  1  0  0  0  0
 37 58  1  1  0  0  0
 38 39  1  0  0  0  0
 38105  1  0  0  0  0
 38106  1  0  0  0  0
 39 40  1  0  0  0  0
 39107  1  0  0  0  0
 39108  1  0  0  0  0
 40 41  1  0  0  0  0
 40109  1  0  0  0  0
 40110  1  0  0  0  0
 41 42  1  0  0  0  0
 41 50  1  0  0  0  0
 41111  1  6  0  0  0
 42 43  1  0  0  0  0
 42112  1  0  0  0  0
 42113  1  0  0  0  0
 43 44  2  0  0  0  0
 44 45  1  0  0  0  0
 44114  1  0  0  0  0
 45 46  2  0  0  0  0
 45115  1  0  0  0  0
 46 47  1  0  0  0  0
 46116  1  0  0  0  0
 47 48  1  0  0  0  0
 47 49  2  0  0  0  0
 48117  1  0  0  0  0
 49 43  1  0  0  0  0
 49118  1  0  0  0  0
 50 51  1  0  0  0  0
 50 37  1  0  0  0  0
 50119  1  1  0  0  0
 51 52  2  0  0  0  0
 51120  1  0  0  0  0
 52 53  1  0  0  0  0
 52121  1  0  0  0  0
 53 54  2  0  0  0  0
 54 55  1  0  0  0  0
 54122  1  0  0  0  0
 55 56  2  0  0  0  0
 55123  1  0  0  0  0
 56 57  1  0  0  0  0
 56124  1  0  0  0  0
 57 58  2  0  0  0  0
 57125  1  0  0  0  0
 58 53  1  0  0  0  0
M  END
>  <IDENTIFIER>
CNP0460708.1

>  <Energy>
1167.29

$$$$
