
 OpenBabel09102509443D

 48 49  0  0  0  0  0  0  0  0999 V2000
    5.1021    1.0786   -2.2496 C   0  0  0  0  0  0  0  0  0  0  0  0
    4.9880    0.0151   -1.1631 C   0  0  0  0  0  0  0  0  0  0  0  0
    4.9725    0.6501    0.2352 C   0  0  0  0  0  0  0  0  0  0  0  0
    4.9063   -0.3948    1.3616 C   0  0  0  0  0  0  0  0  0  0  0  0
    3.7568   -1.4279    1.3281 C   0  0  0  0  0  0  0  0  0  0  0  0
    2.3240   -0.9334    1.6092 C   0  0  0  0  0  0  0  0  0  0  0  0
    1.6490   -0.1485    0.4666 C   0  0  0  0  0  0  0  0  0  0  0  0
    0.1892    0.2311    0.7695 C   0  0  0  0  0  0  0  0  0  0  0  0
   -0.7315   -0.9808    0.9662 C   0  0  0  0  0  0  0  0  0  0  0  0
   -2.1050   -0.5333    1.1991 N   0  0  0  0  0  0  0  0  0  0  0  0
   -2.7122   -0.3749    2.4044 C   0  0  0  0  0  0  0  0  0  0  0  0
   -1.9399   -0.6624    3.9551 Cl  0  0  0  0  0  0  0  0  0  0  0  0
   -3.9897    0.0607    2.2939 N   0  0  0  0  0  0  0  0  0  0  0  0
   -4.1740    0.1641    0.9634 C   0  0  0  0  0  0  0  0  0  0  0  0
   -3.0471   -0.1895    0.2976 C   0  0  0  0  0  0  0  0  0  0  0  0
   -3.0151   -0.1691   -1.0938 C   0  0  0  0  0  0  0  0  0  0  0  0
   -2.0037   -0.4912   -1.6960 O   0  0  0  0  0  0  0  0  0  0  0  0
   -4.1637    0.2178   -1.7709 N   0  0  0  0  0  0  0  0  0  0  0  0
   -4.2032    0.2454   -3.2440 C   0  0  0  0  0  0  0  0  0  0  0  0
   -5.3073    0.5836   -1.0571 C   0  0  0  0  0  0  0  0  0  0  0  0
   -6.3120    0.9254   -1.6605 O   0  0  0  0  0  0  0  0  0  0  0  0
   -5.3110    0.5574    0.3325 N   0  0  0  0  0  0  0  0  0  0  0  0
   -6.4859    0.9303    1.1296 C   0  0  0  0  0  0  0  0  0  0  0  0
    5.1113    0.5898   -3.2467 H   0  0  0  0  0  0  0  0  0  0  0  0
    6.0412    1.6582   -2.1265 H   0  0  0  0  0  0  0  0  0  0  0  0
    4.2340    1.7704   -2.2010 H   0  0  0  0  0  0  0  0  0  0  0  0
    5.8494   -0.6828   -1.2460 H   0  0  0  0  0  0  0  0  0  0  0  0
    4.0501   -0.5511   -1.3381 H   0  0  0  0  0  0  0  0  0  0  0  0
    4.1520    1.3797    0.3235 H   0  0  0  0  0  0  0  0  0  0  0  0
    5.9094    1.2325    0.3761 H   0  0  0  0  0  0  0  0  0  0  0  0
    4.8969    0.1301    2.3416 H   0  0  0  0  0  0  0  0  0  0  0  0
    5.8518   -0.9786    1.3082 H   0  0  0  0  0  0  0  0  0  0  0  0
    3.9899   -2.1385    2.1523 H   0  0  0  0  0  0  0  0  0  0  0  0
    3.7785   -2.0220    0.3904 H   0  0  0  0  0  0  0  0  0  0  0  0
    2.3014   -0.3509    2.5554 H   0  0  0  0  0  0  0  0  0  0  0  0
    1.7383   -1.8618    1.7618 H   0  0  0  0  0  0  0  0  0  0  0  0
    1.6805   -0.7447   -0.4703 H   0  0  0  0  0  0  0  0  0  0  0  0
    2.1713    0.8023    0.2946 H   0  0  0  0  0  0  0  0  0  0  0  0
   -0.1917    0.8358   -0.0816 H   0  0  0  0  0  0  0  0  0  0  0  0
    0.1548    0.8658    1.6831 H   0  0  0  0  0  0  0  0  0  0  0  0
   -0.3952   -1.5587    1.8476 H   0  0  0  0  0  0  0  0  0  0  0  0
   -0.6970   -1.6726    0.0981 H   0  0  0  0  0  0  0  0  0  0  0  0
   -3.2421   -0.0695   -3.7016 H   0  0  0  0  0  0  0  0  0  0  0  0
   -4.4293    1.2729   -3.5949 H   0  0  0  0  0  0  0  0  0  0  0  0
   -4.9926   -0.4469   -3.6086 H   0  0  0  0  0  0  0  0  0  0  0  0
   -7.3477    1.2288    0.4958 H   0  0  0  0  0  0  0  0  0  0  0  0
   -6.2323    1.7890    1.7891 H   0  0  0  0  0  0  0  0  0  0  0  0
   -6.8018    0.0719    1.7587 H   0  0  0  0  0  0  0  0  0  0  0  0
  1  2  1  0  0  0  0
  1 24  1  0  0  0  0
  1 25  1  0  0  0  0
  1 26  1  0  0  0  0
  2  3  1  0  0  0  0
  2 27  1  0  0  0  0
  2 28  1  0  0  0  0
  3  4  1  0  0  0  0
  3 29  1  0  0  0  0
  3 30  1  0  0  0  0
  4  5  1  0  0  0  0
  4 31  1  0  0  0  0
  4 32  1  0  0  0  0
  5  6  1  0  0  0  0
  5 33  1  0  0  0  0
  5 34  1  0  0  0  0
  6  7  1  0  0  0  0
  6 35  1  0  0  0  0
  6 36  1  0  0  0  0
  7  8  1  0  0  0  0
  7 37  1  0  0  0  0
  7 38  1  0  0  0  0
  8  9  1  0  0  0  0
  8 39  1  0  0  0  0
  8 40  1  0  0  0  0
  9 10  1  0  0  0  0
  9 41  1  0  0  0  0
  9 42  1  0  0  0  0
 10 11  1  0  0  0  0
 11 12  1  0  0  0  0
 11 13  2  0  0  0  0
 13 14  1  0  0  0  0
 14 15  2  0  0  0  0
 15 16  1  0  0  0  0
 15 10  1  0  0  0  0
 16 17  2  0  0  0  0
 16 18  1  0  0  0  0
 18 19  1  0  0  0  0
 18 20  1  0  0  0  0
 19 43  1  0  0  0  0
 19 44  1  0  0  0  0
 19 45  1  0  0  0  0
 20 21  2  0  0  0  0
 20 22  1  0  0  0  0
 22 23  1  0  0  0  0
 22 14  1  0  0  0  0
 23 46  1  0  0  0  0
 23 47  1  0  0  0  0
 23 48  1  0  0  0  0
M  END
>  <IDENTIFIER>
CNP0528058.0

>  <Energy>
379.464

$$$$
