
 OpenBabel09052522593D

124123  0  0  0  0  0  0  0  0999 V2000
  -15.6444   -1.9899    3.7381 C   0  0  0  0  0  0  0  0  0  0  0  0
  -15.9617   -1.5364    2.3166 C   0  0  0  0  0  0  0  0  0  0  0  0
  -15.1683   -0.2771    1.9527 C   0  0  0  0  0  0  0  0  0  0  0  0
  -15.4679    0.1627    0.5125 C   0  0  0  0  0  0  0  0  0  0  0  0
  -14.7214    1.4482    0.1088 C   0  0  0  0  0  0  0  0  0  0  0  0
  -13.1856    1.3739    0.2030 C   0  0  0  0  0  0  0  0  0  0  0  0
  -12.5773    0.2749   -0.6888 C   0  0  0  0  0  0  0  0  0  0  0  0
  -11.0483    0.1837   -0.5819 C   0  0  0  0  0  0  0  0  0  0  0  0
  -10.3701    1.4630   -1.0153 C   0  0  0  0  0  0  0  0  0  0  0  0
   -9.5218    1.6206   -2.0486 C   0  0  0  0  0  0  0  0  0  0  0  0
   -9.0678    0.5658   -3.0370 C   0  0  0  0  0  0  0  0  0  0  0  0
   -7.5577    0.2959   -2.9420 C   0  0  0  0  0  0  0  0  0  0  0  0
   -6.6978    1.5504   -3.1552 C   0  0  0  0  0  0  0  0  0  0  0  0
   -5.2423    1.2123   -3.0540 C   0  0  0  0  0  0  0  0  0  0  0  0
   -4.6016    1.6581   -2.1206 O   0  0  0  0  0  0  0  0  0  0  0  0
   -4.6787    0.4021   -3.9878 O   0  0  0  0  0  0  0  0  0  0  0  0
   -3.3818   -0.0886   -4.0718 C   0  0  0  0  0  0  0  0  0  0  0  0
   -2.3026    0.9700   -4.4328 C   0  0  2  0  0  0  0  0  0  0  0  0
   -1.1732    0.3259   -4.9696 O   0  0  0  0  0  0  0  0  0  0  0  0
   -1.8294    1.9586   -3.3338 C   0  0  0  0  0  0  0  0  0  0  0  0
   -1.0403    1.3644   -2.3579 O   0  0  0  0  0  0  0  0  0  0  0  0
   -1.4369    0.5511   -1.3445 C   0  0  0  0  0  0  0  0  0  0  0  0
   -2.6205    0.3569   -1.1195 O   0  0  0  0  0  0  0  0  0  0  0  0
   -0.3872   -0.0985   -0.4838 C   0  0  0  0  0  0  0  0  0  0  0  0
   -0.9941   -1.0321    0.5815 C   0  0  0  0  0  0  0  0  0  0  0  0
   -0.0017   -1.6327    1.5959 C   0  0  0  0  0  0  0  0  0  0  0  0
    0.9379   -2.7626    1.1117 C   0  0  0  0  0  0  0  0  0  0  0  0
    2.0543   -2.3987    0.1171 C   0  0  0  0  0  0  0  0  0  0  0  0
    2.9374   -1.2526    0.6271 C   0  0  0  0  0  0  0  0  0  0  0  0
    4.0795   -0.9516   -0.3535 C   0  0  0  0  0  0  0  0  0  0  0  0
    4.9460    0.2625    0.0334 C   0  0  0  0  0  0  0  0  0  0  0  0
    6.0179    0.0565    1.1246 C   0  0  0  0  0  0  0  0  0  0  0  0
    5.5044   -0.2179    2.5514 C   0  0  0  0  0  0  0  0  0  0  0  0
    6.6192   -0.1165    3.6048 C   0  0  0  0  0  0  0  0  0  0  0  0
    7.6910   -1.2092    3.4460 C   0  0  0  0  0  0  0  0  0  0  0  0
    8.8378   -1.0836    4.4657 C   0  0  0  0  0  0  0  0  0  0  0  0
    9.6296    0.2432    4.3829 C   0  0  0  0  0  0  0  0  0  0  0  0
   10.1576    0.5937    2.9774 C   0  0  0  0  0  0  0  0  0  0  0  0
   11.1250   -0.4625    2.4173 C   0  0  0  0  0  0  0  0  0  0  0  0
   11.6457   -0.1183    1.0111 C   0  0  0  0  0  0  0  0  0  0  0  0
   10.5353   -0.1517   -0.0569 C   0  0  0  0  0  0  0  0  0  0  0  0
   11.0189   -0.0246   -1.5162 C   0  0  0  0  0  0  0  0  0  0  0  0
   11.3982    1.3871   -2.0153 C   0  0  0  0  0  0  0  0  0  0  0  0
   12.6289    2.1352   -1.4571 C   0  0  0  0  0  0  0  0  0  0  0  0
   14.0185    1.5588   -1.7972 C   0  0  0  0  0  0  0  0  0  0  0  0
   14.4369    0.3283   -0.9963 C   0  0  0  0  0  0  0  0  0  0  0  0
  -16.2271   -2.9045    3.9760 H   0  0  0  0  0  0  0  0  0  0  0  0
  -15.9128   -1.1949    4.4660 H   0  0  0  0  0  0  0  0  0  0  0  0
  -14.5623   -2.2230    3.8352 H   0  0  0  0  0  0  0  0  0  0  0  0
  -17.0510   -1.3296    2.2354 H   0  0  0  0  0  0  0  0  0  0  0  0
  -15.6998   -2.3573    1.6134 H   0  0  0  0  0  0  0  0  0  0  0  0
  -14.0871   -0.5066    2.0576 H   0  0  0  0  0  0  0  0  0  0  0  0
  -15.4343    0.5449    2.6530 H   0  0  0  0  0  0  0  0  0  0  0  0
  -16.5581    0.3588    0.4136 H   0  0  0  0  0  0  0  0  0  0  0  0
  -15.2148   -0.6585   -0.1903 H   0  0  0  0  0  0  0  0  0  0  0  0
  -15.0664    2.2794    0.7621 H   0  0  0  0  0  0  0  0  0  0  0  0
  -15.0044    1.7011   -0.9364 H   0  0  0  0  0  0  0  0  0  0  0  0
  -12.8767    1.2137    1.2569 H   0  0  0  0  0  0  0  0  0  0  0  0
  -12.7987    2.3656   -0.1101 H   0  0  0  0  0  0  0  0  0  0  0  0
  -12.8637    0.4498   -1.7490 H   0  0  0  0  0  0  0  0  0  0  0  0
  -12.9764   -0.7118   -0.3749 H   0  0  0  0  0  0  0  0  0  0  0  0
  -10.7279   -0.6880   -1.1781 H   0  0  0  0  0  0  0  0  0  0  0  0
  -10.7594   -0.0269    0.4703 H   0  0  0  0  0  0  0  0  0  0  0  0
  -10.5760    2.3489   -0.4235 H   0  0  0  0  0  0  0  0  0  0  0  0
   -9.1284    2.6216   -2.1926 H   0  0  0  0  0  0  0  0  0  0  0  0
   -9.3208    0.9194   -4.0591 H   0  0  0  0  0  0  0  0  0  0  0  0
   -9.5817   -0.4015   -2.8995 H   0  0  0  0  0  0  0  0  0  0  0  0
   -7.2934   -0.4669   -3.7074 H   0  0  0  0  0  0  0  0  0  0  0  0
   -7.3341   -0.1299   -1.9376 H   0  0  0  0  0  0  0  0  0  0  0  0
   -6.9342    2.2924   -2.3639 H   0  0  0  0  0  0  0  0  0  0  0  0
   -6.9022    2.0093   -4.1462 H   0  0  0  0  0  0  0  0  0  0  0  0
   -3.4058   -0.7926   -4.9314 H   0  0  0  0  0  0  0  0  0  0  0  0
   -3.1176   -0.7088   -3.1955 H   0  0  0  0  0  0  0  0  0  0  0  0
   -2.7433    1.5732   -5.2568 H   0  0  0  0  0  0  0  0  0  0  0  0
   -0.8391   -0.3146   -4.2881 H   0  0  0  0  0  0  0  0  0  0  0  0
   -2.6342    2.5670   -2.8894 H   0  0  0  0  0  0  0  0  0  0  0  0
   -1.1755    2.6914   -3.8526 H   0  0  0  0  0  0  0  0  0  0  0  0
    0.2007    0.7042    0.0102 H   0  0  0  0  0  0  0  0  0  0  0  0
    0.2646   -0.6575   -1.1673 H   0  0  0  0  0  0  0  0  0  0  0  0
   -1.5735   -1.8493    0.0987 H   0  0  0  0  0  0  0  0  0  0  0  0
   -1.7020   -0.4152    1.1791 H   0  0  0  0  0  0  0  0  0  0  0  0
   -0.6314   -2.1021    2.3839 H   0  0  0  0  0  0  0  0  0  0  0  0
    0.5692   -0.8226    2.0960 H   0  0  0  0  0  0  0  0  0  0  0  0
    0.3308   -3.5909    0.6862 H   0  0  0  0  0  0  0  0  0  0  0  0
    1.4420   -3.1572    2.0217 H   0  0  0  0  0  0  0  0  0  0  0  0
    1.6441   -2.1653   -0.8781 H   0  0  0  0  0  0  0  0  0  0  0  0
    2.6847   -3.3046   -0.0216 H   0  0  0  0  0  0  0  0  0  0  0  0
    3.3116   -1.5464    1.6148 H   0  0  0  0  0  0  0  0  0  0  0  0
    2.3288   -0.3317    0.7376 H   0  0  0  0  0  0  0  0  0  0  0  0
    3.5931   -0.6953   -1.3214 H   0  0  0  0  0  0  0  0  0  0  0  0
    4.7230   -1.8424   -0.5206 H   0  0  0  0  0  0  0  0  0  0  0  0
    4.2976    1.1326    0.2763 H   0  0  0  0  0  0  0  0  0  0  0  0
    5.5205    0.5316   -0.8809 H   0  0  0  0  0  0  0  0  0  0  0  0
    6.5945    1.0075    1.1583 H   0  0  0  0  0  0  0  0  0  0  0  0
    6.7071   -0.7495    0.7983 H   0  0  0  0  0  0  0  0  0  0  0  0
    5.0675   -1.2274    2.6332 H   0  0  0  0  0  0  0  0  0  0  0  0
    4.7383    0.5477    2.8018 H   0  0  0  0  0  0  0  0  0  0  0  0
    6.1668   -0.2188    4.6152 H   0  0  0  0  0  0  0  0  0  0  0  0
    7.0669    0.8956    3.5282 H   0  0  0  0  0  0  0  0  0  0  0  0
    8.1283   -1.1884    2.4300 H   0  0  0  0  0  0  0  0  0  0  0  0
    7.2099   -2.2032    3.5747 H   0  0  0  0  0  0  0  0  0  0  0  0
    9.5339   -1.9323    4.2985 H   0  0  0  0  0  0  0  0  0  0  0  0
    8.4348   -1.1925    5.4959 H   0  0  0  0  0  0  0  0  0  0  0  0
   10.4786    0.1915    5.0977 H   0  0  0  0  0  0  0  0  0  0  0  0
    8.9766    1.0767    4.7171 H   0  0  0  0  0  0  0  0  0  0  0  0
   10.6881    1.5689    3.0359 H   0  0  0  0  0  0  0  0  0  0  0  0
    9.2929    0.7329    2.3007 H   0  0  0  0  0  0  0  0  0  0  0  0
   10.6379   -1.4587    2.3688 H   0  0  0  0  0  0  0  0  0  0  0  0
   11.9941   -0.5361    3.1067 H   0  0  0  0  0  0  0  0  0  0  0  0
   12.3965   -0.8928    0.7464 H   0  0  0  0  0  0  0  0  0  0  0  0
   12.1476    0.8602    1.0569 H   0  0  0  0  0  0  0  0  0  0  0  0
    9.7549    0.6140    0.1328 H   0  0  0  0  0  0  0  0  0  0  0  0
   10.0557   -1.1525    0.0232 H   0  0  0  0  0  0  0  0  0  0  0  0
   10.1405   -0.3084   -2.1382 H   0  0  0  0  0  0  0  0  0  0  0  0
   11.7894   -0.7796   -1.7474 H   0  0  0  0  0  0  0  0  0  0  0  0
   10.5129    2.0375   -1.8399 H   0  0  0  0  0  0  0  0  0  0  0  0
   11.5360    1.3183   -3.1170 H   0  0  0  0  0  0  0  0  0  0  0  0
   12.5393    2.3532   -0.3791 H   0  0  0  0  0  0  0  0  0  0  0  0
   12.5980    3.1284   -1.9581 H   0  0  0  0  0  0  0  0  0  0  0  0
   14.7635    2.3474   -1.5522 H   0  0  0  0  0  0  0  0  0  0  0  0
   14.0898    1.3532   -2.8870 H   0  0  0  0  0  0  0  0  0  0  0  0
   14.4051    0.5492    0.0910 H   0  0  0  0  0  0  0  0  0  0  0  0
   15.4810    0.0611   -1.2636 H   0  0  0  0  0  0  0  0  0  0  0  0
   13.8164   -0.5520   -1.2181 H   0  0  0  0  0  0  0  0  0  0  0  0
  1  2  1  0  0  0  0
  1 47  1  0  0  0  0
  1 48  1  0  0  0  0
  1 49  1  0  0  0  0
  2  3  1  0  0  0  0
  2 50  1  0  0  0  0
  2 51  1  0  0  0  0
  3  4  1  0  0  0  0
  3 52  1  0  0  0  0
  3 53  1  0  0  0  0
  4  5  1  0  0  0  0
  4 54  1  0  0  0  0
  4 55  1  0  0  0  0
  5  6  1  0  0  0  0
  5 56  1  0  0  0  0
  5 57  1  0  0  0  0
  6  7  1  0  0  0  0
  6 58  1  0  0  0  0
  6 59  1  0  0  0  0
  7  8  1  0  0  0  0
  7 60  1  0  0  0  0
  7 61  1  0  0  0  0
  8  9  1  0  0  0  0
  8 62  1  0  0  0  0
  8 63  1  0  0  0  0
  9 10  2  0  0  0  0
  9 64  1  0  0  0  0
 10 11  1  0  0  0  0
 10 65  1  0  0  0  0
 11 12  1  0  0  0  0
 11 66  1  0  0  0  0
 11 67  1  0  0  0  0
 12 13  1  0  0  0  0
 12 68  1  0  0  0  0
 12 69  1  0  0  0  0
 13 14  1  0  0  0  0
 13 70  1  0  0  0  0
 13 71  1  0  0  0  0
 14 15  2  0  0  0  0
 14 16  1  0  0  0  0
 16 17  1  0  0  0  0
 17 18  1  0  0  0  0
 17 72  1  0  0  0  0
 17 73  1  0  0  0  0
 18 19  1  0  0  0  0
 18 20  1  0  0  0  0
 18 74  1  6  0  0  0
 19 75  1  0  0  0  0
 20 21  1  0  0  0  0
 20 76  1  0  0  0  0
 20 77  1  0  0  0  0
 21 22  1  0  0  0  0
 22 23  2  0  0  0  0
 22 24  1  0  0  0  0
 24 25  1  0  0  0  0
 24 78  1  0  0  0  0
 24 79  1  0  0  0  0
 25 26  1  0  0  0  0
 25 80  1  0  0  0  0
 25 81  1  0  0  0  0
 26 27  1  0  0  0  0
 26 82  1  0  0  0  0
 26 83  1  0  0  0  0
 27 28  1  0  0  0  0
 27 84  1  0  0  0  0
 27 85  1  0  0  0  0
 28 29  1  0  0  0  0
 28 86  1  0  0  0  0
 28 87  1  0  0  0  0
 29 30  1  0  0  0  0
 29 88  1  0  0  0  0
 29 89  1  0  0  0  0
 30 31  1  0  0  0  0
 30 90  1  0  0  0  0
 30 91  1  0  0  0  0
 31 32  1  0  0  0  0
 31 92  1  0  0  0  0
 31 93  1  0  0  0  0
 32 33  1  0  0  0  0
 32 94  1  0  0  0  0
 32 95  1  0  0  0  0
 33 34  1  0  0  0  0
 33 96  1  0  0  0  0
 33 97  1  0  0  0  0
 34 35  1  0  0  0  0
 34 98  1  0  0  0  0
 34 99  1  0  0  0  0
 35 36  1  0  0  0  0
 35100  1  0  0  0  0
 35101  1  0  0  0  0
 36 37  1  0  0  0  0
 36102  1  0  0  0  0
 36103  1  0  0  0  0
 37 38  1  0  0  0  0
 37104  1  0  0  0  0
 37105  1  0  0  0  0
 38 39  1  0  0  0  0
 38106  1  0  0  0  0
 38107  1  0  0  0  0
 39 40  1  0  0  0  0
 39108  1  0  0  0  0
 39109  1  0  0  0  0
 40 41  1  0  0  0  0
 40110  1  0  0  0  0
 40111  1  0  0  0  0
 41 42  1  0  0  0  0
 41112  1  0  0  0  0
 41113  1  0  0  0  0
 42 43  1  0  0  0  0
 42114  1  0  0  0  0
 42115  1  0  0  0  0
 43 44  1  0  0  0  0
 43116  1  0  0  0  0
 43117  1  0  0  0  0
 44 45  1  0  0  0  0
 44118  1  0  0  0  0
 44119  1  0  0  0  0
 45 46  1  0  0  0  0
 45120  1  0  0  0  0
 45121  1  0  0  0  0
 46122  1  0  0  0  0
 46123  1  0  0  0  0
 46124  1  0  0  0  0
M  END
>  <IDENTIFIER>
CNP0594139.1

>  <Energy>
493.145

$$$$
