
 OpenBabel09122504583D

167181  0  0  0  0  0  0  0  0999 V2000
    8.9443   -1.9467   -3.9098 O   0  0  0  0  0  0  0  0  0  0  0  0
    8.1520   -1.0747   -3.2543 C   0  0  0  0  0  0  0  0  0  0  0  0
    6.8048   -1.3717   -3.0265 C   0  0  0  0  0  0  0  0  0  0  0  0
    5.9866   -0.4771   -2.3247 C   0  0  0  0  0  0  0  0  0  0  0  0
    4.7038   -0.8151   -2.0922 O   0  0  0  0  0  0  0  0  0  0  0  0
    6.5262    0.7478   -1.8531 C   0  0  0  0  0  0  0  0  0  0  0  0
    7.8739    1.0572   -2.1255 C   0  0  0  0  0  0  0  0  0  0  0  0
    8.6810    0.1385   -2.8052 C   0  0  0  0  0  0  0  0  0  0  0  0
    8.3976    2.2592   -1.7587 O   0  0  0  0  0  0  0  0  0  0  0  0
    7.6531    3.4319   -1.6249 C   0  0  2  0  0  0  0  0  0  0  0  0
    8.2752    4.4087   -0.6462 C   0  0  0  0  0  0  0  0  0  0  0  0
    8.6356    5.6894   -1.1093 C   0  0  0  0  0  0  0  0  0  0  0  0
    9.1567    6.6423   -0.2395 C   0  0  0  0  0  0  0  0  0  0  0  0
    9.3365    6.3356    1.1120 C   0  0  0  0  0  0  0  0  0  0  0  0
    9.8306    7.2688    1.9551 O   0  0  0  0  0  0  0  0  0  0  0  0
    8.9970    5.0550    1.5905 C   0  0  0  0  0  0  0  0  0  0  0  0
    9.1613    4.7305    2.8882 O   0  0  0  0  0  0  0  0  0  0  0  0
    8.4632    4.0958    0.7090 C   0  0  0  0  0  0  0  0  0  0  0  0
    6.1200    3.1967   -1.4136 C   0  0  2  0  0  0  0  0  0  0  0  0
    5.5322    4.1580   -0.5687 O   0  0  0  0  0  0  0  0  0  0  0  0
    5.7925    1.7470   -0.9809 C   0  0  1  0  0  0  0  0  0  0  0  0
    4.3049    1.4370   -0.7322 C   0  0  0  0  0  0  0  0  0  0  0  0
    3.2532    1.8097   -1.6227 C   0  0  0  0  0  0  0  0  0  0  0  0
    3.4419    2.3997   -2.8206 O   0  0  0  0  0  0  0  0  0  0  0  0
    1.9324    1.5357   -1.2919 C   0  0  0  0  0  0  0  0  0  0  0  0
    1.6003    0.8136   -0.1498 C   0  0  0  0  0  0  0  0  0  0  0  0
    0.3030    0.5501    0.0866 O   0  0  0  0  0  0  0  0  0  0  0  0
    2.6202    0.3383    0.7002 C   0  0  0  0  0  0  0  0  0  0  0  0
    3.9659    0.6838    0.4267 C   0  0  0  0  0  0  0  0  0  0  0  0
    4.9603    0.2476    1.2587 O   0  0  0  0  0  0  0  0  0  0  0  0
    4.8157   -0.3826    2.4943 C   0  0  2  0  0  0  0  0  0  0  0  0
    5.2950   -1.8487    2.3604 C   0  0  0  0  0  0  0  0  0  0  0  0
    4.5160   -2.9812    2.7180 C   0  0  0  0  0  0  0  0  0  0  0  0
    5.0036   -4.2763    2.5582 C   0  0  0  0  0  0  0  0  0  0  0  0
    6.2783   -4.4926    2.0406 C   0  0  0  0  0  0  0  0  0  0  0  0
    6.7420   -5.7505    1.8845 O   0  0  0  0  0  0  0  0  0  0  0  0
    7.0760   -3.3910    1.6821 C   0  0  0  0  0  0  0  0  0  0  0  0
    8.3129   -3.5665    1.1751 O   0  0  0  0  0  0  0  0  0  0  0  0
    6.5838   -2.0855    1.8470 C   0  0  0  0  0  0  0  0  0  0  0  0
    3.3671   -0.1790    3.0378 C   0  0  2  0  0  0  0  0  0  0  0  0
    3.2412   -0.8668    4.2636 O   0  0  0  0  0  0  0  0  0  0  0  0
    2.3930   -0.5888    1.8870 C   0  0  1  0  0  0  0  0  0  0  0  0
    0.9547   -1.0700    2.1496 C   0  0  0  0  0  0  0  0  0  0  0  0
    0.1375   -0.6757    3.2456 C   0  0  0  0  0  0  0  0  0  0  0  0
    0.4817    0.2868    4.1264 O   0  0  0  0  0  0  0  0  0  0  0  0
   -1.0892   -1.3073    3.4570 C   0  0  0  0  0  0  0  0  0  0  0  0
   -1.5723   -2.2797    2.5781 C   0  0  0  0  0  0  0  0  0  0  0  0
   -2.7609   -2.8742    2.8179 O   0  0  0  0  0  0  0  0  0  0  0  0
   -0.8353   -2.6189    1.4290 C   0  0  0  0  0  0  0  0  0  0  0  0
    0.4491   -2.0517    1.2462 C   0  0  0  0  0  0  0  0  0  0  0  0
    1.2298   -2.4735    0.2060 O   0  0  0  0  0  0  0  0  0  0  0  0
    1.0164   -3.6774   -0.4378 C   0  0  2  0  0  0  0  0  0  0  0  0
    1.9137   -3.8365   -1.6589 C   0  0  0  0  0  0  0  0  0  0  0  0
    1.8920   -2.9010   -2.7129 C   0  0  0  0  0  0  0  0  0  0  0  0
    2.6516   -3.1050   -3.8645 C   0  0  0  0  0  0  0  0  0  0  0  0
    3.4664   -4.2360   -3.9835 C   0  0  0  0  0  0  0  0  0  0  0  0
    4.1884   -4.4359   -5.1060 O   0  0  0  0  0  0  0  0  0  0  0  0
    3.5245   -5.1643   -2.9282 C   0  0  0  0  0  0  0  0  0  0  0  0
    4.3030   -6.2640   -3.0098 O   0  0  0  0  0  0  0  0  0  0  0  0
    2.7515   -4.9610   -1.7757 C   0  0  0  0  0  0  0  0  0  0  0  0
   -0.4590   -3.7589   -0.8326 C   0  0  2  0  0  0  0  0  0  0  0  0
   -0.7731   -2.7621   -1.7808 O   0  0  0  0  0  0  0  0  0  0  0  0
   -1.3867   -3.6337    0.4168 C   0  0  2  0  0  0  0  0  0  0  0  0
   -2.7993   -3.3630   -0.1536 C   0  0  0  0  0  0  0  0  0  0  0  0
   -3.4747   -4.4253   -0.8156 C   0  0  0  0  0  0  0  0  0  0  0  0
   -2.9887   -5.6885   -0.8857 O   0  0  0  0  0  0  0  0  0  0  0  0
   -4.7035   -4.2053   -1.4322 C   0  0  0  0  0  0  0  0  0  0  0  0
   -5.3097   -2.9572   -1.3953 C   0  0  0  0  0  0  0  0  0  0  0  0
   -6.5076   -2.7795   -1.9954 O   0  0  0  0  0  0  0  0  0  0  0  0
   -4.6838   -1.8865   -0.7328 C   0  0  0  0  0  0  0  0  0  0  0  0
   -3.4150   -2.0675   -0.1288 C   0  0  0  0  0  0  0  0  0  0  0  0
   -2.7943   -1.0171    0.4818 O   0  0  0  0  0  0  0  0  0  0  0  0
   -3.2253    0.3007    0.5741 C   0  0  2  0  0  0  0  0  0  0  0  0
   -3.3322    0.7609    2.0190 C   0  0  0  0  0  0  0  0  0  0  0  0
   -4.1472    0.1212    2.9622 C   0  0  0  0  0  0  0  0  0  0  0  0
   -4.1858    0.5777    4.2876 C   0  0  0  0  0  0  0  0  0  0  0  0
   -3.4243    1.6905    4.6833 C   0  0  0  0  0  0  0  0  0  0  0  0
   -3.4619    2.1316    5.9582 O   0  0  0  0  0  0  0  0  0  0  0  0
   -2.6166    2.3461    3.7422 C   0  0  0  0  0  0  0  0  0  0  0  0
   -1.8793    3.4281    4.0753 O   0  0  0  0  0  0  0  0  0  0  0  0
   -2.5687    1.8766    2.4291 C   0  0  0  0  0  0  0  0  0  0  0  0
   -4.4262    0.5981   -0.3446 C   0  0  2  0  0  0  0  0  0  0  0  0
   -5.0334    1.8297   -0.0581 O   0  0  0  0  0  0  0  0  0  0  0  0
   -5.4098   -0.5638   -0.6294 C   0  0  2  0  0  0  0  0  0  0  0  0
   -6.7460   -0.6509    0.1352 C   0  0  0  0  0  0  0  0  0  0  0  0
   -7.0967   -1.6812    1.0783 C   0  0  0  0  0  0  0  0  0  0  0  0
   -6.2529   -2.6262    1.5496 O   0  0  0  0  0  0  0  0  0  0  0  0
   -8.3908   -1.7431    1.5965 C   0  0  0  0  0  0  0  0  0  0  0  0
   -9.3731   -0.8356    1.2129 C   0  0  0  0  0  0  0  0  0  0  0  0
  -10.6201   -0.9381    1.7180 O   0  0  0  0  0  0  0  0  0  0  0  0
   -9.0564    0.1833    0.3079 C   0  0  0  0  0  0  0  0  0  0  0  0
   -7.7495    0.3024   -0.2041 C   0  0  0  0  0  0  0  0  0  0  0  0
   -7.4463    1.3846   -0.9867 O   0  0  0  0  0  0  0  0  0  0  0  0
   -8.1267    2.6097   -0.9261 C   0  0  1  0  0  0  0  0  0  0  0  0
   -8.3940    3.2119   -2.3007 C   0  0  0  0  0  0  0  0  0  0  0  0
   -9.0934    2.5429   -3.3200 C   0  0  0  0  0  0  0  0  0  0  0  0
   -9.3651    3.1941   -4.5332 C   0  0  0  0  0  0  0  0  0  0  0  0
   -8.9514    4.5209   -4.7415 C   0  0  0  0  0  0  0  0  0  0  0  0
   -9.2341    5.1574   -5.8978 O   0  0  0  0  0  0  0  0  0  0  0  0
   -8.2440    5.1910   -3.7324 C   0  0  0  0  0  0  0  0  0  0  0  0
   -7.8384    6.4705   -3.8838 O   0  0  0  0  0  0  0  0  0  0  0  0
   -7.9647    4.5355   -2.5333 C   0  0  0  0  0  0  0  0  0  0  0  0
   -9.3972    2.5539   -0.0197 C   0  0  1  0  0  0  0  0  0  0  0  0
  -10.2749    3.6257   -0.2653 O   0  0  0  0  0  0  0  0  0  0  0  0
  -10.0744    1.1948   -0.1412 C   0  0  0  0  0  0  0  0  0  0  0  0
    8.6135   -2.7985   -4.2304 H   0  0  0  0  0  0  0  0  0  0  0  0
    6.3936   -2.3103   -3.3802 H   0  0  0  0  0  0  0  0  0  0  0  0
    4.3282   -1.6510   -2.3922 H   0  0  0  0  0  0  0  0  0  0  0  0
    9.7196    0.3747   -2.9980 H   0  0  0  0  0  0  0  0  0  0  0  0
    7.7217    3.9337   -2.6169 H   0  0  0  0  0  0  0  0  0  0  0  0
    8.4945    5.9651   -2.1474 H   0  0  0  0  0  0  0  0  0  0  0  0
    9.4106    7.6237   -0.6209 H   0  0  0  0  0  0  0  0  0  0  0  0
   10.0534    8.1631    1.6558 H   0  0  0  0  0  0  0  0  0  0  0  0
    9.5211    5.3528    3.5382 H   0  0  0  0  0  0  0  0  0  0  0  0
    8.1921    3.1180    1.0835 H   0  0  0  0  0  0  0  0  0  0  0  0
    5.6955    3.3676   -2.4052 H   0  0  0  0  0  0  0  0  0  0  0  0
    5.7395    3.9046    0.3685 H   0  0  0  0  0  0  0  0  0  0  0  0
    6.3198    1.6568   -0.0069 H   0  0  0  0  0  0  0  0  0  0  0  0
    4.2553    2.3476   -3.3293 H   0  0  0  0  0  0  0  0  0  0  0  0
    1.1453    1.8541   -1.9664 H   0  0  0  0  0  0  0  0  0  0  0  0
   -0.3859    0.8456   -0.5217 H   0  0  0  0  0  0  0  0  0  0  0  0
    5.5000    0.1138    3.2157 H   0  0  0  0  0  0  0  0  0  0  0  0
    3.5220   -2.9097    3.1178 H   0  0  0  0  0  0  0  0  0  0  0  0
    4.3768   -5.1157    2.8389 H   0  0  0  0  0  0  0  0  0  0  0  0
    6.2130   -6.5271    2.1227 H   0  0  0  0  0  0  0  0  0  0  0  0
    8.6991   -4.4427    1.0338 H   0  0  0  0  0  0  0  0  0  0  0  0
    7.2119   -1.2496    1.5614 H   0  0  0  0  0  0  0  0  0  0  0  0
    3.2207    0.9032    3.2414 H   0  0  0  0  0  0  0  0  0  0  0  0
    2.3952   -1.3741    4.2868 H   0  0  0  0  0  0  0  0  0  0  0  0
    2.8522   -1.5286    1.5507 H   0  0  0  0  0  0  0  0  0  0  0  0
    1.2340    0.8754    4.0278 H   0  0  0  0  0  0  0  0  0  0  0  0
   -1.6838   -1.0261    4.3174 H   0  0  0  0  0  0  0  0  0  0  0  0
   -3.2918   -2.6734    3.6017 H   0  0  0  0  0  0  0  0  0  0  0  0
    1.2164   -4.5035    0.2832 H   0  0  0  0  0  0  0  0  0  0  0  0
    1.2825   -2.0114   -2.6641 H   0  0  0  0  0  0  0  0  0  0  0  0
    2.6023   -2.3797   -4.6671 H   0  0  0  0  0  0  0  0  0  0  0  0
    4.1510   -3.8260   -5.8571 H   0  0  0  0  0  0  0  0  0  0  0  0
    4.8485   -6.4608   -3.7846 H   0  0  0  0  0  0  0  0  0  0  0  0
    2.7912   -5.6963   -0.9812 H   0  0  0  0  0  0  0  0  0  0  0  0
   -0.6349   -4.7324   -1.3325 H   0  0  0  0  0  0  0  0  0  0  0  0
   -0.7124   -1.8768   -1.3373 H   0  0  0  0  0  0  0  0  0  0  0  0
   -1.3967   -4.5725    1.0114 H   0  0  0  0  0  0  0  0  0  0  0  0
   -2.1922   -6.0038   -0.4444 H   0  0  0  0  0  0  0  0  0  0  0  0
   -5.1941   -5.0257   -1.9391 H   0  0  0  0  0  0  0  0  0  0  0  0
   -6.9555   -3.4868   -2.4809 H   0  0  0  0  0  0  0  0  0  0  0  0
   -2.4288    0.9344    0.1428 H   0  0  0  0  0  0  0  0  0  0  0  0
   -4.7361   -0.7358    2.6815 H   0  0  0  0  0  0  0  0  0  0  0  0
   -4.8070    0.0649    5.0102 H   0  0  0  0  0  0  0  0  0  0  0  0
   -3.9971    1.7018    6.6397 H   0  0  0  0  0  0  0  0  0  0  0  0
   -1.8827    3.8156    4.9617 H   0  0  0  0  0  0  0  0  0  0  0  0
   -1.9325    2.3990    1.7238 H   0  0  0  0  0  0  0  0  0  0  0  0
   -3.9270    0.7130   -1.3377 H   0  0  0  0  0  0  0  0  0  0  0  0
   -5.4893    1.7259    0.8188 H   0  0  0  0  0  0  0  0  0  0  0  0
   -5.7377   -0.3644   -1.6776 H   0  0  0  0  0  0  0  0  0  0  0  0
   -5.2997   -2.6502    1.4575 H   0  0  0  0  0  0  0  0  0  0  0  0
   -8.6367   -2.5240    2.3041 H   0  0  0  0  0  0  0  0  0  0  0  0
  -10.8661   -1.6311    2.3480 H   0  0  0  0  0  0  0  0  0  0  0  0
   -7.4557    3.3288   -0.4094 H   0  0  0  0  0  0  0  0  0  0  0  0
   -9.4351    1.5276   -3.1849 H   0  0  0  0  0  0  0  0  0  0  0  0
   -9.9101    2.6724   -5.3098 H   0  0  0  0  0  0  0  0  0  0  0  0
   -9.7349    4.7392   -6.6118 H   0  0  0  0  0  0  0  0  0  0  0  0
   -8.0243    6.9919   -4.6768 H   0  0  0  0  0  0  0  0  0  0  0  0
   -7.4331    5.0836   -1.7643 H   0  0  0  0  0  0  0  0  0  0  0  0
   -9.0770    2.6244    1.0450 H   0  0  0  0  0  0  0  0  0  0  0  0
  -10.7863    3.4162   -1.0908 H   0  0  0  0  0  0  0  0  0  0  0  0
  -10.3459    1.0054   -1.1993 H   0  0  0  0  0  0  0  0  0  0  0  0
  -11.0043    1.1438    0.4623 H   0  0  0  0  0  0  0  0  0  0  0  0
  1  2  1  0  0  0  0
  1106  1  0  0  0  0
  2  3  2  0  0  0  0
  3  4  1  0  0  0  0
  3107  1  0  0  0  0
  4  5  1  0  0  0  0
  4  6  2  0  0  0  0
  5108  1  0  0  0  0
  6  7  1  0  0  0  0
  7  8  2  0  0  0  0
  7  9  1  0  0  0  0
  8  2  1  0  0  0  0
  8109  1  0  0  0  0
  9 10  1  0  0  0  0
 10 11  1  0  0  0  0
 10 19  1  0  0  0  0
 10110  1  6  0  0  0
 11 12  2  0  0  0  0
 12 13  1  0  0  0  0
 12111  1  0  0  0  0
 13 14  2  0  0  0  0
 13112  1  0  0  0  0
 14 15  1  0  0  0  0
 14 16  1  0  0  0  0
 15113  1  0  0  0  0
 16 17  1  0  0  0  0
 16 18  2  0  0  0  0
 17114  1  0  0  0  0
 18 11  1  0  0  0  0
 18115  1  0  0  0  0
 19 20  1  0  0  0  0
 19 21  1  0  0  0  0
 19116  1  6  0  0  0
 20117  1  0  0  0  0
 21 22  1  0  0  0  0
 21  6  1  0  0  0  0
 21118  1  1  0  0  0
 22 23  2  0  0  0  0
 23 24  1  0  0  0  0
 23 25  1  0  0  0  0
 24119  1  0  0  0  0
 25 26  2  0  0  0  0
 25120  1  0  0  0  0
 26 27  1  0  0  0  0
 26 28  1  0  0  0  0
 27121  1  0  0  0  0
 28 29  2  0  0  0  0
 29 30  1  0  0  0  0
 29 22  1  0  0  0  0
 30 31  1  0  0  0  0
 31 32  1  0  0  0  0
 31 40  1  0  0  0  0
 31122  1  1  0  0  0
 32 33  2  0  0  0  0
 33 34  1  0  0  0  0
 33123  1  0  0  0  0
 34 35  2  0  0  0  0
 34124  1  0  0  0  0
 35 36  1  0  0  0  0
 35 37  1  0  0  0  0
 36125  1  0  0  0  0
 37 38  1  0  0  0  0
 37 39  2  0  0  0  0
 38126  1  0  0  0  0
 39 32  1  0  0  0  0
 39127  1  0  0  0  0
 40 41  1  0  0  0  0
 40 42  1  0  0  0  0
 40128  1  1  0  0  0
 41129  1  0  0  0  0
 42 43  1  0  0  0  0
 42 28  1  0  0  0  0
 42130  1  6  0  0  0
 43 44  2  0  0  0  0
 44 45  1  0  0  0  0
 44 46  1  0  0  0  0
 45131  1  0  0  0  0
 46 47  2  0  0  0  0
 46132  1  0  0  0  0
 47 48  1  0  0  0  0
 47 49  1  0  0  0  0
 48133  1  0  0  0  0
 49 50  2  0  0  0  0
 50 51  1  0  0  0  0
 50 43  1  0  0  0  0
 51 52  1  0  0  0  0
 52 53  1  0  0  0  0
 52 61  1  0  0  0  0
 52134  1  1  0  0  0
 53 54  2  0  0  0  0
 54 55  1  0  0  0  0
 54135  1  0  0  0  0
 55 56  2  0  0  0  0
 55136  1  0  0  0  0
 56 57  1  0  0  0  0
 56 58  1  0  0  0  0
 57137  1  0  0  0  0
 58 59  1  0  0  0  0
 58 60  2  0  0  0  0
 59138  1  0  0  0  0
 60 53  1  0  0  0  0
 60139  1  0  0  0  0
 61 62  1  0  0  0  0
 61 63  1  0  0  0  0
 61140  1  6  0  0  0
 62141  1  0  0  0  0
 63 64  1  0  0  0  0
 63 49  1  0  0  0  0
 63142  1  1  0  0  0
 64 65  2  0  0  0  0
 65 66  1  0  0  0  0
 65 67  1  0  0  0  0
 66143  1  0  0  0  0
 67 68  2  0  0  0  0
 67144  1  0  0  0  0
 68 69  1  0  0  0  0
 68 70  1  0  0  0  0
 69145  1  0  0  0  0
 70 71  2  0  0  0  0
 71 72  1  0  0  0  0
 71 64  1  0  0  0  0
 72 73  1  0  0  0  0
 73 74  1  0  0  0  0
 73 82  1  0  0  0  0
 73146  1  6  0  0  0
 74 75  2  0  0  0  0
 75 76  1  0  0  0  0
 75147  1  0  0  0  0
 76 77  2  0  0  0  0
 76148  1  0  0  0  0
 77 78  1  0  0  0  0
 77 79  1  0  0  0  0
 78149  1  0  0  0  0
 79 80  1  0  0  0  0
 79 81  2  0  0  0  0
 80150  1  0  0  0  0
 81 74  1  0  0  0  0
 81151  1  0  0  0  0
 82 83  1  0  0  0  0
 82 84  1  0  0  0  0
 82152  1  6  0  0  0
 83153  1  0  0  0  0
 84 85  1  0  0  0  0
 84 70  1  0  0  0  0
 84154  1  6  0  0  0
 85 86  2  0  0  0  0
 86 87  1  0  0  0  0
 86 88  1  0  0  0  0
 87155  1  0  0  0  0
 88 89  2  0  0  0  0
 88156  1  0  0  0  0
 89 90  1  0  0  0  0
 89 91  1  0  0  0  0
 90157  1  0  0  0  0
 91 92  2  0  0  0  0
 92 93  1  0  0  0  0
 92 85  1  0  0  0  0
 93 94  1  0  0  0  0
 94 95  1  0  0  0  0
 94103  1  0  0  0  0
 94158  1  1  0  0  0
 95 96  2  0  0  0  0
 96 97  1  0  0  0  0
 96159  1  0  0  0  0
 97 98  2  0  0  0  0
 97160  1  0  0  0  0
 98 99  1  0  0  0  0
 98100  1  0  0  0  0
 99161  1  0  0  0  0
100101  1  0  0  0  0
100102  2  0  0  0  0
101162  1  0  0  0  0
102 95  1  0  0  0  0
102163  1  0  0  0  0
103104  1  0  0  0  0
103105  1  0  0  0  0
103164  1  1  0  0  0
104165  1  0  0  0  0
105 91  1  0  0  0  0
105166  1  0  0  0  0
105167  1  0  0  0  0
M  END
>  <IDENTIFIER>
CNP0260597.5

>  <Energy>
1788.69

$$$$
