
 OpenBabel09122501503D

 40 42  0  0  0  0  0  0  0  0999 V2000
   -6.6302    0.4151    0.3661 C   0  0  0  0  0  0  0  0  0  0  0  0
   -5.1673    0.2927    0.0770 C   0  0  0  0  0  0  0  0  0  0  0  0
   -4.4995   -0.9293    0.2300 C   0  0  0  0  0  0  0  0  0  0  0  0
   -3.1311   -0.9991   -0.0329 C   0  0  0  0  0  0  0  0  0  0  0  0
   -2.4321    0.1456   -0.4474 C   0  0  0  0  0  0  0  0  0  0  0  0
   -0.9475    0.0923   -0.7141 C   0  0  0  0  0  0  0  0  0  0  0  0
   -0.1820   -0.2506    0.5743 C   0  0  0  0  0  0  0  0  0  0  0  0
    1.2720   -0.2703    0.3481 N   0  0  0  0  0  0  0  0  0  0  0  0
    2.1144   -1.3464    0.3622 C   0  0  0  0  0  0  0  0  0  0  0  0
    1.7275   -2.7855    0.5859 C   0  0  0  0  0  0  0  0  0  0  0  0
    3.4257   -0.9280    0.1245 C   0  0  0  0  0  0  0  0  0  0  0  0
    4.6634   -1.7710    0.0565 C   0  0  0  0  0  0  0  0  0  0  0  0
    3.3669    0.4387   -0.0337 C   0  0  0  0  0  0  0  0  0  0  0  0
    4.3775    1.3681   -0.2814 C   0  0  0  0  0  0  0  0  0  0  0  0
    4.0177    2.7220   -0.3813 C   0  0  0  0  0  0  0  0  0  0  0  0
    2.6717    3.1155   -0.2273 C   0  0  0  0  0  0  0  0  0  0  0  0
    1.6733    2.1575    0.0221 C   0  0  0  0  0  0  0  0  0  0  0  0
    2.0530    0.8116    0.1089 C   0  0  0  0  0  0  0  0  0  0  0  0
   -3.1439    1.3449   -0.6013 C   0  0  0  0  0  0  0  0  0  0  0  0
   -4.4766    1.3898   -0.3353 N   0  0  0  0  0  0  0  0  0  0  0  0
   -7.0641   -0.5533    0.6948 H   0  0  0  0  0  0  0  0  0  0  0  0
   -7.1631    0.7519   -0.5473 H   0  0  0  0  0  0  0  0  0  0  0  0
   -6.7841    1.1622    1.1732 H   0  0  0  0  0  0  0  0  0  0  0  0
   -5.0283   -1.8166    0.5548 H   0  0  0  0  0  0  0  0  0  0  0  0
   -2.6179   -1.9449    0.0888 H   0  0  0  0  0  0  0  0  0  0  0  0
   -0.6017    1.0688   -1.1053 H   0  0  0  0  0  0  0  0  0  0  0  0
   -0.7399   -0.6720   -1.4937 H   0  0  0  0  0  0  0  0  0  0  0  0
   -0.5391   -1.2291    0.9360 H   0  0  0  0  0  0  0  0  0  0  0  0
   -0.4106    0.4840    1.3768 H   0  0  0  0  0  0  0  0  0  0  0  0
    0.6457   -2.9420    0.7340 H   0  0  0  0  0  0  0  0  0  0  0  0
    2.2552   -3.1737    1.4811 H   0  0  0  0  0  0  0  0  0  0  0  0
    2.0271   -3.3839   -0.2994 H   0  0  0  0  0  0  0  0  0  0  0  0
    4.4331   -2.8430    0.2219 H   0  0  0  0  0  0  0  0  0  0  0  0
    5.3792   -1.4389    0.8370 H   0  0  0  0  0  0  0  0  0  0  0  0
    5.1340   -1.6588   -0.9423 H   0  0  0  0  0  0  0  0  0  0  0  0
    5.4096    1.0602   -0.3908 H   0  0  0  0  0  0  0  0  0  0  0  0
    4.7781    3.4684   -0.5712 H   0  0  0  0  0  0  0  0  0  0  0  0
    2.4067    4.1620   -0.3000 H   0  0  0  0  0  0  0  0  0  0  0  0
    0.6466    2.4715    0.1490 H   0  0  0  0  0  0  0  0  0  0  0  0
   -2.6398    2.2483   -0.9196 H   0  0  0  0  0  0  0  0  0  0  0  0
  1  2  1  0  0  0  0
  1 21  1  0  0  0  0
  1 22  1  0  0  0  0
  1 23  1  0  0  0  0
  2  3  2  0  0  0  0
  3  4  1  0  0  0  0
  3 24  1  0  0  0  0
  4  5  2  0  0  0  0
  4 25  1  0  0  0  0
  5  6  1  0  0  0  0
  5 19  1  0  0  0  0
  6  7  1  0  0  0  0
  6 26  1  0  0  0  0
  6 27  1  0  0  0  0
  7  8  1  0  0  0  0
  7 28  1  0  0  0  0
  7 29  1  0  0  0  0
  8  9  1  0  0  0  0
  9 10  1  0  0  0  0
  9 11  2  0  0  0  0
 10 30  1  0  0  0  0
 10 31  1  0  0  0  0
 10 32  1  0  0  0  0
 11 12  1  0  0  0  0
 11 13  1  0  0  0  0
 12 33  1  0  0  0  0
 12 34  1  0  0  0  0
 12 35  1  0  0  0  0
 13 14  2  0  0  0  0
 14 15  1  0  0  0  0
 14 36  1  0  0  0  0
 15 16  2  0  0  0  0
 15 37  1  0  0  0  0
 16 17  1  0  0  0  0
 16 38  1  0  0  0  0
 17 18  2  0  0  0  0
 17 39  1  0  0  0  0
 18  8  1  0  0  0  0
 18 13  1  0  0  0  0
 19 20  2  0  0  0  0
 19 40  1  0  0  0  0
 20  2  1  0  0  0  0
M  END
>  <IDENTIFIER>
CNP0508238.0

>  <Energy>
304.791

$$$$
