
 OpenBabel09062520373D

 78 80  0  0  0  0  0  0  0  0999 V2000
    7.7938    1.4077   -0.5932 C   0  0  0  0  0  0  0  0  0  0  0  0
    6.6045    1.3281   -1.2852 O   0  0  0  0  0  0  0  0  0  0  0  0
    5.4048    1.1039   -0.6877 C   0  0  0  0  0  0  0  0  0  0  0  0
    5.3341    0.9833    0.5230 O   0  0  0  0  0  0  0  0  0  0  0  0
    4.1592    0.9407   -1.5357 C   0  0  2  0  0  0  0  0  0  0  0  0
    4.4841    0.9987   -2.9040 O   0  0  0  0  0  0  0  0  0  0  0  0
    3.0521    1.9694   -1.2271 C   0  0  0  0  0  0  0  0  0  0  0  0
    2.5673    2.1231    0.5430 S   0  0  0  0  0  0  0  0  0  0  0  0
    1.3063    0.8020    0.8534 C   0  0  2  0  0  0  0  0  0  0  0  0
    1.8942   -0.5944    0.8870 C   0  0  0  0  0  0  0  0  0  0  0  0
    2.9513   -0.9544    1.8902 C   0  0  0  0  0  0  0  0  0  0  0  0
    3.4139   -0.1029    2.6346 O   0  0  0  0  0  0  0  0  0  0  0  0
    3.3278   -2.4280    2.0854 C   0  0  2  0  0  0  0  0  0  0  0  0
    4.1363   -2.9277    1.0497 O   0  0  0  0  0  0  0  0  0  0  0  0
    2.0754   -3.3193    2.3139 C   0  0  0  0  0  0  0  0  0  0  0  0
    1.2320   -3.6480    1.0374 C   0  0  0  0  0  0  0  0  0  0  0  0
   -0.2514   -3.6012    1.3640 C   0  0  0  0  0  0  0  0  0  0  0  0
   -0.7666   -4.6000    2.3741 C   0  0  0  0  0  0  0  0  0  0  0  0
   -1.1555   -2.7197    0.8363 C   0  0  0  0  0  0  0  0  0  0  0  0
   -0.9809   -1.6154   -0.2307 C   0  0  1  0  0  0  0  0  0  0  0  0
   -1.8418   -2.0374   -1.4039 C   0  0  0  0  0  0  0  0  0  0  0  0
   -3.0303   -1.4744   -1.6881 C   0  0  0  0  0  0  0  0  0  0  0  0
   -3.8029   -1.8823   -2.9147 C   0  0  0  0  0  0  0  0  0  0  0  0
   -3.5975   -0.4035   -0.7944 C   0  0  1  0  0  0  0  0  0  0  0  0
   -4.3508   -1.0100    0.4111 C   0  0  0  0  0  0  0  0  0  0  0  0
   -2.4589    0.6067   -0.4860 C   0  0  1  0  0  0  0  0  0  0  0  0
   -2.9649    1.6740    0.5248 C   0  0  2  0  0  0  0  0  0  0  0  0
   -2.4291    3.1104    0.3134 C   0  0  0  0  0  0  0  0  0  0  0  0
   -2.8432    3.7378   -1.0496 C   0  0  0  0  0  0  0  0  0  0  0  0
   -2.2441    5.1415   -1.1872 C   0  0  0  0  0  0  0  0  0  0  0  0
   -4.3707    3.8160   -1.2202 C   0  0  0  0  0  0  0  0  0  0  0  0
   -2.5277    1.1418    1.7912 N   0  0  0  0  0  0  0  0  0  0  0  0
   -1.6164    0.1575    1.6465 C   0  0  0  0  0  0  0  0  0  0  0  0
   -1.0667   -0.3573    2.6087 O   0  0  0  0  0  0  0  0  0  0  0  0
   -1.2097   -0.0707    0.2121 C   0  0  1  0  0  0  0  0  0  0  0  0
    0.0562    0.8248   -0.0442 C   0  0  0  0  0  0  0  0  0  0  0  0
    0.0282    1.6305   -0.9613 O   0  0  0  0  0  0  0  0  0  0  0  0
    8.6200    1.5989   -1.3076 H   0  0  0  0  0  0  0  0  0  0  0  0
    7.9912    0.4495   -0.0660 H   0  0  0  0  0  0  0  0  0  0  0  0
    7.7538    2.2386    0.1432 H   0  0  0  0  0  0  0  0  0  0  0  0
    3.7697   -0.0716   -1.3438 H   0  0  0  0  0  0  0  0  0  0  0  0
    4.8183    1.9140   -3.0995 H   0  0  0  0  0  0  0  0  0  0  0  0
    2.1804    1.7893   -1.8802 H   0  0  0  0  0  0  0  0  0  0  0  0
    3.4180    2.9804   -1.5109 H   0  0  0  0  0  0  0  0  0  0  0  0
    0.9501    1.0372    1.8780 H   0  0  0  0  0  0  0  0  0  0  0  0
    2.2067   -0.8974   -0.1272 H   0  0  0  0  0  0  0  0  0  0  0  0
    1.0420   -1.1723    1.2409 H   0  0  0  0  0  0  0  0  0  0  0  0
    3.9371   -2.4629    3.0157 H   0  0  0  0  0  0  0  0  0  0  0  0
    3.7252   -2.6795    0.1832 H   0  0  0  0  0  0  0  0  0  0  0  0
    1.4584   -2.7768    3.0667 H   0  0  0  0  0  0  0  0  0  0  0  0
    2.3561   -4.2854    2.7864 H   0  0  0  0  0  0  0  0  0  0  0  0
    1.5299   -4.6408    0.6376 H   0  0  0  0  0  0  0  0  0  0  0  0
    1.4539   -2.9781    0.2034 H   0  0  0  0  0  0  0  0  0  0  0  0
    0.0416   -5.2683    2.7380 H   0  0  0  0  0  0  0  0  0  0  0  0
   -1.5499   -5.2343    1.9063 H   0  0  0  0  0  0  0  0  0  0  0  0
   -1.2026   -4.0675    3.2457 H   0  0  0  0  0  0  0  0  0  0  0  0
   -2.1563   -2.8461    1.2098 H   0  0  0  0  0  0  0  0  0  0  0  0
    0.0311   -1.6490   -0.6646 H   0  0  0  0  0  0  0  0  0  0  0  0
   -1.4600   -2.8287   -2.0447 H   0  0  0  0  0  0  0  0  0  0  0  0
   -3.2794   -2.6699   -3.4970 H   0  0  0  0  0  0  0  0  0  0  0  0
   -3.9431   -0.9977   -3.5713 H   0  0  0  0  0  0  0  0  0  0  0  0
   -4.7988   -2.2686   -2.6129 H   0  0  0  0  0  0  0  0  0  0  0  0
   -4.3948    0.1312   -1.3596 H   0  0  0  0  0  0  0  0  0  0  0  0
   -3.6998   -1.5120    1.1290 H   0  0  0  0  0  0  0  0  0  0  0  0
   -5.1115   -1.7354    0.0529 H   0  0  0  0  0  0  0  0  0  0  0  0
   -4.8980   -0.2332    0.9805 H   0  0  0  0  0  0  0  0  0  0  0  0
   -2.2213    1.0010   -1.4954 H   0  0  0  0  0  0  0  0  0  0  0  0
   -4.0689    1.7415    0.5070 H   0  0  0  0  0  0  0  0  0  0  0  0
   -1.3253    3.1207    0.4021 H   0  0  0  0  0  0  0  0  0  0  0  0
   -2.8199    3.7509    1.1343 H   0  0  0  0  0  0  0  0  0  0  0  0
   -2.4330    3.1344   -1.8848 H   0  0  0  0  0  0  0  0  0  0  0  0
   -2.6236    5.8127   -0.3878 H   0  0  0  0  0  0  0  0  0  0  0  0
   -2.5135    5.5746   -2.1753 H   0  0  0  0  0  0  0  0  0  0  0  0
   -1.1362    5.0929   -1.1263 H   0  0  0  0  0  0  0  0  0  0  0  0
   -4.8262    4.4105   -0.3997 H   0  0  0  0  0  0  0  0  0  0  0  0
   -4.8285    2.8066   -1.2363 H   0  0  0  0  0  0  0  0  0  0  0  0
   -4.6246    4.2912   -2.1913 H   0  0  0  0  0  0  0  0  0  0  0  0
   -2.8183    1.5169    2.7061 H   0  0  0  0  0  0  0  0  0  0  0  0
  1  2  1  0  0  0  0
  1 38  1  0  0  0  0
  1 39  1  0  0  0  0
  1 40  1  0  0  0  0
  2  3  1  0  0  0  0
  3  4  2  0  0  0  0
  3  5  1  0  0  0  0
  5  6  1  0  0  0  0
  5  7  1  0  0  0  0
  5 41  1  1  0  0  0
  6 42  1  0  0  0  0
  7  8  1  0  0  0  0
  7 43  1  0  0  0  0
  7 44  1  0  0  0  0
  9  8  1  0  0  0  0
  9 10  1  0  0  0  0
  9 45  1  1  0  0  0
 10 11  1  0  0  0  0
 10 46  1  0  0  0  0
 10 47  1  0  0  0  0
 11 12  2  0  0  0  0
 11 13  1  0  0  0  0
 13 14  1  0  0  0  0
 13 15  1  0  0  0  0
 13 48  1  1  0  0  0
 14 49  1  0  0  0  0
 15 16  1  0  0  0  0
 15 50  1  0  0  0  0
 15 51  1  0  0  0  0
 16 17  1  0  0  0  0
 16 52  1  0  0  0  0
 16 53  1  0  0  0  0
 17 18  1  0  0  0  0
 17 19  2  0  0  0  0
 18 54  1  0  0  0  0
 18 55  1  0  0  0  0
 18 56  1  0  0  0  0
 19 20  1  0  0  0  0
 19 57  1  0  0  0  0
 20 21  1  0  0  0  0
 20 58  1  6  0  0  0
 21 22  2  0  0  0  0
 21 59  1  0  0  0  0
 22 23  1  0  0  0  0
 22 24  1  0  0  0  0
 23 60  1  0  0  0  0
 23 61  1  0  0  0  0
 23 62  1  0  0  0  0
 24 25  1  0  0  0  0
 24 63  1  6  0  0  0
 25 64  1  0  0  0  0
 25 65  1  0  0  0  0
 25 66  1  0  0  0  0
 26 24  1  0  0  0  0
 26 27  1  0  0  0  0
 26 67  1  6  0  0  0
 27 28  1  0  0  0  0
 27 32  1  0  0  0  0
 27 68  1  6  0  0  0
 28 29  1  0  0  0  0
 28 69  1  0  0  0  0
 28 70  1  0  0  0  0
 29 30  1  0  0  0  0
 29 31  1  0  0  0  0
 29 71  1  0  0  0  0
 30 72  1  0  0  0  0
 30 73  1  0  0  0  0
 30 74  1  0  0  0  0
 31 75  1  0  0  0  0
 31 76  1  0  0  0  0
 31 77  1  0  0  0  0
 32 33  1  0  0  0  0
 32 78  1  0  0  0  0
 33 34  2  0  0  0  0
 35 33  1  1  0  0  0
 35 36  1  0  0  0  0
 35 20  1  0  0  0  0
 35 26  1  0  0  0  0
 36 37  2  0  0  0  0
 36  9  1  0  0  0  0
M  END
>  <IDENTIFIER>
CNP0356933.1

>  <Energy>
892.118

$$$$
