
 OpenBabel09072511133D

 96101  0  0  0  0  0  0  0  0999 V2000
   11.9038   -0.2673    0.4285 C   0  0  0  0  0  0  0  0  0  0  0  0
   11.2417   -1.4507    0.6830 O   0  0  0  0  0  0  0  0  0  0  0  0
    9.8945   -1.6240    0.6832 C   0  0  0  0  0  0  0  0  0  0  0  0
    9.3943   -2.9043    0.9384 C   0  0  0  0  0  0  0  0  0  0  0  0
    8.0127   -3.1532    0.9450 C   0  0  0  0  0  0  0  0  0  0  0  0
    7.5650   -4.4031    1.1915 O   0  0  0  0  0  0  0  0  0  0  0  0
    7.1062   -2.0952    0.6905 C   0  0  0  0  0  0  0  0  0  0  0  0
    5.7081   -2.2616    0.6733 C   0  0  0  0  0  0  0  0  0  0  0  0
    5.2121   -3.3557    0.8891 O   0  0  0  0  0  0  0  0  0  0  0  0
    4.8671   -1.1694    0.4050 C   0  0  0  0  0  0  0  0  0  0  0  0
    3.5256   -1.3855    0.4136 O   0  0  0  0  0  0  0  0  0  0  0  0
    2.7127   -1.2122    1.5260 C   0  0  1  0  0  0  0  0  0  0  0  0
    1.6770   -0.2761    1.2291 O   0  0  0  0  0  0  0  0  0  0  0  0
    0.3902   -0.8084    0.8687 C   0  0  1  0  0  0  0  0  0  0  0  0
   -0.2866    0.2836    0.0231 C   0  0  0  0  0  0  0  0  0  0  0  0
   -1.6189   -0.0099   -0.3961 O   0  0  0  0  0  0  0  0  0  0  0  0
   -2.2324    1.2008   -0.8524 C   0  0  1  0  0  0  0  0  0  0  0  0
   -2.1637    1.3422   -2.2687 O   0  0  0  0  0  0  0  0  0  0  0  0
   -3.1758    0.6515   -3.0041 C   0  0  2  0  0  0  0  0  0  0  0  0
   -3.0527    1.0979   -4.4677 C   0  0  0  0  0  0  0  0  0  0  0  0
   -4.6007    0.9763   -2.4966 C   0  0  1  0  0  0  0  0  0  0  0  0
   -5.5867    0.3167   -3.2546 O   0  0  0  0  0  0  0  0  0  0  0  0
   -4.7103    0.6043   -1.0159 C   0  0  2  0  0  0  0  0  0  0  0  0
   -5.9992    0.9816   -0.5575 O   0  0  0  0  0  0  0  0  0  0  0  0
   -6.6660   -0.0105    0.2018 C   0  0  1  0  0  0  0  0  0  0  0  0
   -6.7052    0.3840    1.5802 O   0  0  0  0  0  0  0  0  0  0  0  0
   -7.8959    1.0770    1.8995 C   0  0  2  0  0  0  0  0  0  0  0  0
   -7.7834    1.6961    3.2911 C   0  0  0  0  0  0  0  0  0  0  0  0
   -9.1355    0.1324    1.8047 C   0  0  1  0  0  0  0  0  0  0  0  0
  -10.3033    0.9104    1.6952 O   0  0  0  0  0  0  0  0  0  0  0  0
   -9.0039   -0.8679    0.6116 C   0  0  2  0  0  0  0  0  0  0  0  0
   -8.5016   -2.1192    1.0295 O   0  0  0  0  0  0  0  0  0  0  0  0
   -8.0720   -0.2496   -0.4401 C   0  0  2  0  0  0  0  0  0  0  0  0
   -7.9849   -1.0216   -1.6118 O   0  0  0  0  0  0  0  0  0  0  0  0
   -3.6538    1.4107   -0.2548 C   0  0  2  0  0  0  0  0  0  0  0  0
   -4.0079    2.7768   -0.2566 O   0  0  0  0  0  0  0  0  0  0  0  0
    0.4611   -2.1797    0.1359 C   0  0  1  0  0  0  0  0  0  0  0  0
    1.0077   -2.0642   -1.1594 O   0  0  0  0  0  0  0  0  0  0  0  0
    1.2392   -3.2209    0.9910 C   0  0  1  0  0  0  0  0  0  0  0  0
    1.9298   -4.1355    0.1746 O   0  0  0  0  0  0  0  0  0  0  0  0
    2.1502   -2.5567    2.0577 C   0  0  2  0  0  0  0  0  0  0  0  0
    1.3655   -2.3302    3.2130 O   0  0  0  0  0  0  0  0  0  0  0  0
    5.4614    0.1038    0.1472 C   0  0  0  0  0  0  0  0  0  0  0  0
    4.7253    1.3651   -0.1921 C   0  0  0  0  0  0  0  0  0  0  0  0
    3.3880    1.3983   -0.6290 C   0  0  0  0  0  0  0  0  0  0  0  0
    2.7538    2.6071   -0.9350 C   0  0  0  0  0  0  0  0  0  0  0  0
    3.4407    3.8154   -0.8200 C   0  0  0  0  0  0  0  0  0  0  0  0
    2.8237    4.9823   -1.1177 O   0  0  0  0  0  0  0  0  0  0  0  0
    4.7818    3.8102   -0.4039 C   0  0  0  0  0  0  0  0  0  0  0  0
    5.4866    4.9624   -0.2901 O   0  0  0  0  0  0  0  0  0  0  0  0
    5.4164    2.5994   -0.1004 C   0  0  0  0  0  0  0  0  0  0  0  0
    6.7901    0.2048    0.1939 O   0  0  0  0  0  0  0  0  0  0  0  0
    7.6127   -0.8041    0.4406 C   0  0  0  0  0  0  0  0  0  0  0  0
    8.9923   -0.5728    0.4368 C   0  0  0  0  0  0  0  0  0  0  0  0
   12.9972   -0.4421    0.4964 H   0  0  0  0  0  0  0  0  0  0  0  0
   11.6202    0.5011    1.1785 H   0  0  0  0  0  0  0  0  0  0  0  0
   11.6667    0.0921   -0.5961 H   0  0  0  0  0  0  0  0  0  0  0  0
   10.0869   -3.7142    1.1289 H   0  0  0  0  0  0  0  0  0  0  0  0
    8.1632   -5.1435    1.3680 H   0  0  0  0  0  0  0  0  0  0  0  0
    3.3231   -0.7793    2.3518 H   0  0  0  0  0  0  0  0  0  0  0  0
   -0.2060   -0.9416    1.7992 H   0  0  0  0  0  0  0  0  0  0  0  0
    0.3371    0.4910   -0.8719 H   0  0  0  0  0  0  0  0  0  0  0  0
   -0.2636    1.1670    0.7044 H   0  0  0  0  0  0  0  0  0  0  0  0
   -1.7041    2.0948   -0.4513 H   0  0  0  0  0  0  0  0  0  0  0  0
   -2.9944   -0.4450   -2.9572 H   0  0  0  0  0  0  0  0  0  0  0  0
   -3.1683    2.2022   -4.5383 H   0  0  0  0  0  0  0  0  0  0  0  0
   -3.8292    0.6221   -5.1045 H   0  0  0  0  0  0  0  0  0  0  0  0
   -2.0562    0.8239   -4.8701 H   0  0  0  0  0  0  0  0  0  0  0  0
   -4.7828    2.0666   -2.6133 H   0  0  0  0  0  0  0  0  0  0  0  0
   -5.4698   -0.6600   -3.1283 H   0  0  0  0  0  0  0  0  0  0  0  0
   -4.4881   -0.4847   -0.9279 H   0  0  0  0  0  0  0  0  0  0  0  0
   -6.1637   -1.0028    0.2087 H   0  0  0  0  0  0  0  0  0  0  0  0
   -8.0003    1.9263    1.1833 H   0  0  0  0  0  0  0  0  0  0  0  0
   -7.6535    0.9011    4.0563 H   0  0  0  0  0  0  0  0  0  0  0  0
   -8.6973    2.2815    3.5277 H   0  0  0  0  0  0  0  0  0  0  0  0
   -6.9055    2.3753    3.3319 H   0  0  0  0  0  0  0  0  0  0  0  0
   -9.2481   -0.4855    2.7226 H   0  0  0  0  0  0  0  0  0  0  0  0
  -10.2746    1.3791    0.8203 H   0  0  0  0  0  0  0  0  0  0  0  0
  -10.0171   -1.0613    0.1966 H   0  0  0  0  0  0  0  0  0  0  0  0
   -7.7889   -1.9769    1.7046 H   0  0  0  0  0  0  0  0  0  0  0  0
   -8.5189    0.7286   -0.7241 H   0  0  0  0  0  0  0  0  0  0  0  0
   -7.6167   -1.9088   -1.3634 H   0  0  0  0  0  0  0  0  0  0  0  0
   -3.6298    1.0976    0.8123 H   0  0  0  0  0  0  0  0  0  0  0  0
   -3.6254    3.2190   -1.0595 H   0  0  0  0  0  0  0  0  0  0  0  0
   -0.5701   -2.5636   -0.0221 H   0  0  0  0  0  0  0  0  0  0  0  0
    1.7684   -1.4389   -1.1446 H   0  0  0  0  0  0  0  0  0  0  0  0
    0.5141   -3.8307    1.5763 H   0  0  0  0  0  0  0  0  0  0  0  0
    2.7283   -3.6786   -0.1927 H   0  0  0  0  0  0  0  0  0  0  0  0
    2.9611   -3.2589    2.3488 H   0  0  0  0  0  0  0  0  0  0  0  0
    1.7269   -1.5595    3.7229 H   0  0  0  0  0  0  0  0  0  0  0  0
    2.8244    0.5038   -0.7671 H   0  0  0  0  0  0  0  0  0  0  0  0
    1.7255    2.5961   -1.2684 H   0  0  0  0  0  0  0  0  0  0  0  0
    1.9099    5.0185   -1.4065 H   0  0  0  0  0  0  0  0  0  0  0  0
    5.1062    5.8276   -0.4872 H   0  0  0  0  0  0  0  0  0  0  0  0
    6.4468    2.6282    0.2227 H   0  0  0  0  0  0  0  0  0  0  0  0
    9.3501    0.4287    0.2355 H   0  0  0  0  0  0  0  0  0  0  0  0
  1  2  1  0  0  0  0
  1 55  1  0  0  0  0
  1 56  1  0  0  0  0
  1 57  1  0  0  0  0
  2  3  1  0  0  0  0
  3  4  2  0  0  0  0
  4  5  1  0  0  0  0
  4 58  1  0  0  0  0
  5  6  1  0  0  0  0
  5  7  2  0  0  0  0
  6 59  1  0  0  0  0
  7  8  1  0  0  0  0
  8  9  2  0  0  0  0
  8 10  1  0  0  0  0
 10 11  1  0  0  0  0
 10 43  2  0  0  0  0
 12 11  1  0  0  0  0
 12 13  1  0  0  0  0
 12 60  1  1  0  0  0
 13 14  1  0  0  0  0
 14 15  1  0  0  0  0
 14 37  1  0  0  0  0
 14 61  1  1  0  0  0
 15 16  1  0  0  0  0
 15 62  1  0  0  0  0
 15 63  1  0  0  0  0
 17 16  1  0  0  0  0
 17 18  1  0  0  0  0
 17 64  1  1  0  0  0
 18 19  1  0  0  0  0
 19 20  1  0  0  0  0
 19 21  1  0  0  0  0
 19 65  1  1  0  0  0
 20 66  1  0  0  0  0
 20 67  1  0  0  0  0
 20 68  1  0  0  0  0
 21 22  1  0  0  0  0
 21 23  1  0  0  0  0
 21 69  1  6  0  0  0
 22 70  1  0  0  0  0
 23 24  1  0  0  0  0
 23 35  1  0  0  0  0
 23 71  1  1  0  0  0
 25 24  1  0  0  0  0
 25 26  1  0  0  0  0
 25 72  1  6  0  0  0
 26 27  1  0  0  0  0
 27 28  1  0  0  0  0
 27 29  1  0  0  0  0
 27 73  1  6  0  0  0
 28 74  1  0  0  0  0
 28 75  1  0  0  0  0
 28 76  1  0  0  0  0
 29 30  1  0  0  0  0
 29 31  1  0  0  0  0
 29 77  1  1  0  0  0
 30 78  1  0  0  0  0
 31 32  1  0  0  0  0
 31 33  1  0  0  0  0
 31 79  1  6  0  0  0
 32 80  1  0  0  0  0
 33 34  1  0  0  0  0
 33 25  1  0  0  0  0
 33 81  1  6  0  0  0
 34 82  1  0  0  0  0
 35 36  1  0  0  0  0
 35 17  1  0  0  0  0
 35 83  1  1  0  0  0
 36 84  1  0  0  0  0
 37 38  1  0  0  0  0
 37 39  1  0  0  0  0
 37 85  1  6  0  0  0
 38 86  1  0  0  0  0
 39 40  1  0  0  0  0
 39 41  1  0  0  0  0
 39 87  1  1  0  0  0
 40 88  1  0  0  0  0
 41 42  1  0  0  0  0
 41 12  1  0  0  0  0
 41 89  1  1  0  0  0
 42 90  1  0  0  0  0
 43 44  1  0  0  0  0
 43 52  1  0  0  0  0
 44 45  2  0  0  0  0
 45 46  1  0  0  0  0
 45 91  1  0  0  0  0
 46 47  2  0  0  0  0
 46 92  1  0  0  0  0
 47 48  1  0  0  0  0
 47 49  1  0  0  0  0
 48 93  1  0  0  0  0
 49 50  1  0  0  0  0
 49 51  2  0  0  0  0
 50 94  1  0  0  0  0
 51 44  1  0  0  0  0
 51 95  1  0  0  0  0
 52 53  1  0  0  0  0
 53 54  2  0  0  0  0
 53  7  1  0  0  0  0
 54  3  1  0  0  0  0
 54 96  1  0  0  0  0
M  END
>  <IDENTIFIER>
CNP0124825.5

>  <Energy>
1227.62

$$$$
