
 OpenBabel09052512273D

119125  0  0  0  0  0  0  0  0999 V2000
    5.6869   -0.1833   -4.3540 C   0  0  0  0  0  0  0  0  0  0  0  0
    5.2345   -0.8738   -3.2106 O   0  0  0  0  0  0  0  0  0  0  0  0
    5.3914   -0.0793   -2.0393 C   0  0  1  0  0  0  0  0  0  0  0  0
    4.0047    0.1791   -1.4422 C   0  0  2  0  0  0  0  0  0  0  0  0
    4.1607    0.9991   -0.3005 O   0  0  0  0  0  0  0  0  0  0  0  0
    3.3378   -1.2309   -1.1838 C   0  0  2  0  0  0  0  0  0  0  0  0
    2.4144   -1.1710   -0.1129 O   0  0  0  0  0  0  0  0  0  0  0  0
    1.0521   -1.1530   -0.4909 C   0  0  1  0  0  0  0  0  0  0  0  0
    0.3477   -2.2266    0.3472 C   0  0  0  0  0  0  0  0  0  0  0  0
   -1.1769   -2.1788    0.1671 C   0  0  0  0  0  0  0  0  0  0  0  0
   -1.7842   -0.7772    0.5171 C   0  0  1  0  0  0  0  0  0  0  0  0
   -1.5413   -0.5039    2.0424 C   0  0  0  0  0  0  0  0  0  0  0  0
   -1.0621    0.2557   -0.4230 C   0  0  2  0  0  0  0  0  0  0  0  0
    0.4724    0.2498   -0.2158 C   0  0  0  0  0  0  0  0  0  0  0  0
   -1.6588    1.6777   -0.3363 C   0  0  2  0  0  0  0  0  0  0  0  0
   -1.4658    2.2313    0.9184 O   0  0  0  0  0  0  0  0  0  0  0  0
   -0.7590    3.3596    1.1918 C   0  0  0  0  0  0  0  0  0  0  0  0
   -0.6433    3.8261    2.6060 C   0  0  0  0  0  0  0  0  0  0  0  0
   -0.2140    3.9979    0.3045 O   0  0  0  0  0  0  0  0  0  0  0  0
   -3.1597    1.6332   -0.6837 C   0  0  0  0  0  0  0  0  0  0  0  0
   -3.9922    0.6641    0.2210 C   0  0  2  0  0  0  0  0  0  0  0  0
   -3.9570    1.1058    1.5596 O   0  0  0  0  0  0  0  0  0  0  0  0
   -3.3310   -0.7612    0.1605 C   0  0  2  0  0  0  0  0  0  0  0  0
   -4.1568   -1.7423    1.0323 C   0  0  0  0  0  0  0  0  0  0  0  0
   -5.5492   -1.8806    0.4471 C   0  0  0  0  0  0  0  0  0  0  0  0
   -6.3631   -0.5446    0.4003 C   0  0  2  0  0  0  0  0  0  0  0  0
   -6.8241   -0.1972    1.8423 C   0  0  0  0  0  0  0  0  0  0  0  0
   -7.5422   -0.7922   -0.6369 C   0  0  1  0  0  0  0  0  0  0  0  0
   -8.9535   -1.0349   -0.1156 C   0  0  0  0  0  0  0  0  0  0  0  0
   -9.5485   -2.3019   -0.2698 C   0  0  0  0  0  0  0  0  0  0  0  0
  -10.7748   -2.5402    0.1837 O   0  0  0  0  0  0  0  0  0  0  0  0
  -11.5028   -1.6141    0.7962 C   0  0  0  0  0  0  0  0  0  0  0  0
  -12.6208   -1.8904    1.1931 O   0  0  0  0  0  0  0  0  0  0  0  0
  -10.9917   -0.3296    0.9868 C   0  0  0  0  0  0  0  0  0  0  0  0
   -9.7074   -0.0398    0.5267 C   0  0  0  0  0  0  0  0  0  0  0  0
   -7.3588    0.2433   -1.7534 C   0  0  1  0  0  0  0  0  0  0  0  0
   -7.9982    1.4315   -1.4314 O   0  0  0  0  0  0  0  0  0  0  0  0
   -8.9406    2.0638   -2.1783 C   0  0  0  0  0  0  0  0  0  0  0  0
   -9.5558    3.3243   -1.6627 C   0  0  0  0  0  0  0  0  0  0  0  0
   -9.2989    1.6177   -3.2586 O   0  0  0  0  0  0  0  0  0  0  0  0
   -5.8278    0.4359   -1.7423 C   0  0  0  0  0  0  0  0  0  0  0  0
   -5.5197    0.6337   -0.2355 C   0  0  2  0  0  0  0  0  0  0  0  0
   -6.0995    1.8656    0.1585 O   0  0  0  0  0  0  0  0  0  0  0  0
    4.2713   -2.2891   -0.9359 O   0  0  0  0  0  0  0  0  0  0  0  0
    5.3678   -1.8361   -0.1743 C   0  0  1  0  0  0  0  0  0  0  0  0
    6.1729   -3.0238    0.3484 C   0  0  0  0  0  0  0  0  0  0  0  0
    6.2513   -0.8626   -1.0060 C   0  0  2  0  0  0  0  0  0  0  0  0
    6.8484    0.0534   -0.0961 O   0  0  0  0  0  0  0  0  0  0  0  0
    8.2465   -0.1198    0.0671 C   0  0  2  0  0  0  0  0  0  0  0  0
    8.5069   -0.3416    1.4456 O   0  0  0  0  0  0  0  0  0  0  0  0
    9.8914   -0.5798    1.6691 C   0  0  2  0  0  0  0  0  0  0  0  0
   10.0946   -0.9599    3.1424 C   0  0  0  0  0  0  0  0  0  0  0  0
    9.3806   -2.1272    3.4505 O   0  0  0  0  0  0  0  0  0  0  0  0
   10.7130    0.6867    1.3123 C   0  0  1  0  0  0  0  0  0  0  0  0
   12.0880    0.4963    1.5385 O   0  0  0  0  0  0  0  0  0  0  0  0
   10.4523    1.0686   -0.1578 C   0  0  2  0  0  0  0  0  0  0  0  0
   11.1135    2.2604   -0.5020 O   0  0  0  0  0  0  0  0  0  0  0  0
    8.9369    1.1803   -0.3960 C   0  0  1  0  0  0  0  0  0  0  0  0
    8.6580    1.4573   -1.7458 O   0  0  0  0  0  0  0  0  0  0  0  0
    5.5550   -0.8405   -5.2376 H   0  0  0  0  0  0  0  0  0  0  0  0
    6.7725    0.0502   -4.2768 H   0  0  0  0  0  0  0  0  0  0  0  0
    5.0824    0.7343   -4.5272 H   0  0  0  0  0  0  0  0  0  0  0  0
    5.9077    0.8907   -2.2509 H   0  0  0  0  0  0  0  0  0  0  0  0
    3.3530    0.7419   -2.1459 H   0  0  0  0  0  0  0  0  0  0  0  0
    3.8371    0.5460    0.5146 H   0  0  0  0  0  0  0  0  0  0  0  0
    2.8801   -1.5293   -2.1544 H   0  0  0  0  0  0  0  0  0  0  0  0
    0.8631   -1.4008   -1.5614 H   0  0  0  0  0  0  0  0  0  0  0  0
    0.6079   -2.0983    1.4165 H   0  0  0  0  0  0  0  0  0  0  0  0
    0.7264   -3.2288    0.0499 H   0  0  0  0  0  0  0  0  0  0  0  0
   -1.6049   -2.9824    0.7977 H   0  0  0  0  0  0  0  0  0  0  0  0
   -1.4033   -2.4249   -0.8946 H   0  0  0  0  0  0  0  0  0  0  0  0
   -0.4734   -0.4839    2.3178 H   0  0  0  0  0  0  0  0  0  0  0  0
   -1.9993   -1.3038    2.6586 H   0  0  0  0  0  0  0  0  0  0  0  0
   -1.9339    0.4537    2.4088 H   0  0  0  0  0  0  0  0  0  0  0  0
   -1.2341   -0.0697   -1.4765 H   0  0  0  0  0  0  0  0  0  0  0  0
    0.7243    0.5775    0.8132 H   0  0  0  0  0  0  0  0  0  0  0  0
    0.9532    0.9697   -0.9136 H   0  0  0  0  0  0  0  0  0  0  0  0
   -1.1646    2.3035   -1.1140 H   0  0  0  0  0  0  0  0  0  0  0  0
   -1.1913    3.1382    3.2836 H   0  0  0  0  0  0  0  0  0  0  0  0
   -1.0744    4.8448    2.6998 H   0  0  0  0  0  0  0  0  0  0  0  0
    0.4257    3.8508    2.9047 H   0  0  0  0  0  0  0  0  0  0  0  0
   -3.2406    1.2916   -1.7382 H   0  0  0  0  0  0  0  0  0  0  0  0
   -3.5577    2.6685   -0.6402 H   0  0  0  0  0  0  0  0  0  0  0  0
   -4.1165    2.0853    1.5833 H   0  0  0  0  0  0  0  0  0  0  0  0
   -3.3944   -1.1018   -0.8981 H   0  0  0  0  0  0  0  0  0  0  0  0
   -4.2025   -1.4189    2.0916 H   0  0  0  0  0  0  0  0  0  0  0  0
   -3.7190   -2.7576    1.0109 H   0  0  0  0  0  0  0  0  0  0  0  0
   -6.1287   -2.6562    0.9952 H   0  0  0  0  0  0  0  0  0  0  0  0
   -5.3700   -2.2821   -0.5751 H   0  0  0  0  0  0  0  0  0  0  0  0
   -7.4432   -1.0191    2.2600 H   0  0  0  0  0  0  0  0  0  0  0  0
   -7.4238    0.7324    1.8728 H   0  0  0  0  0  0  0  0  0  0  0  0
   -5.9651   -0.0452    2.5235 H   0  0  0  0  0  0  0  0  0  0  0  0
   -7.2869   -1.7174   -1.2001 H   0  0  0  0  0  0  0  0  0  0  0  0
   -9.0121   -3.1075   -0.7554 H   0  0  0  0  0  0  0  0  0  0  0  0
  -11.5770    0.4338    1.4846 H   0  0  0  0  0  0  0  0  0  0  0  0
   -9.3152    0.9559    0.6722 H   0  0  0  0  0  0  0  0  0  0  0  0
   -7.7243   -0.1354   -2.7348 H   0  0  0  0  0  0  0  0  0  0  0  0
   -9.1244    3.5862   -0.6732 H   0  0  0  0  0  0  0  0  0  0  0  0
  -10.6517    3.1862   -1.5507 H   0  0  0  0  0  0  0  0  0  0  0  0
   -9.3602    4.1550   -2.3724 H   0  0  0  0  0  0  0  0  0  0  0  0
   -5.5065    1.2793   -2.3901 H   0  0  0  0  0  0  0  0  0  0  0  0
   -5.3369   -0.4893   -2.1152 H   0  0  0  0  0  0  0  0  0  0  0  0
   -5.7799    2.5830   -0.4475 H   0  0  0  0  0  0  0  0  0  0  0  0
    4.9711   -1.3248    0.7313 H   0  0  0  0  0  0  0  0  0  0  0  0
    6.5913   -3.6091   -0.4976 H   0  0  0  0  0  0  0  0  0  0  0  0
    5.5142   -3.6880    0.9481 H   0  0  0  0  0  0  0  0  0  0  0  0
    7.0037   -2.6747    0.9967 H   0  0  0  0  0  0  0  0  0  0  0  0
    6.9823   -1.4144   -1.6413 H   0  0  0  0  0  0  0  0  0  0  0  0
    8.6545   -0.9799   -0.5164 H   0  0  0  0  0  0  0  0  0  0  0  0
   10.2369   -1.4483    1.0601 H   0  0  0  0  0  0  0  0  0  0  0  0
    9.7871   -0.1261    3.8153 H   0  0  0  0  0  0  0  0  0  0  0  0
   11.1703   -1.1549    3.3395 H   0  0  0  0  0  0  0  0  0  0  0  0
    8.4523   -1.8480    3.6643 H   0  0  0  0  0  0  0  0  0  0  0  0
   10.3652    1.5188    1.9646 H   0  0  0  0  0  0  0  0  0  0  0  0
   12.3802   -0.2694    0.9775 H   0  0  0  0  0  0  0  0  0  0  0  0
   10.8460    0.2553   -0.8077 H   0  0  0  0  0  0  0  0  0  0  0  0
   10.7492    2.9827    0.0740 H   0  0  0  0  0  0  0  0  0  0  0  0
    8.5331    2.0167    0.2179 H   0  0  0  0  0  0  0  0  0  0  0  0
    8.9385    0.6685   -2.2794 H   0  0  0  0  0  0  0  0  0  0  0  0
  1  2  1  0  0  0  0
  1 60  1  0  0  0  0
  1 61  1  0  0  0  0
  1 62  1  0  0  0  0
  3  2  1  0  0  0  0
  3  4  1  0  0  0  0
  3 63  1  6  0  0  0
  4  5  1  0  0  0  0
  4  6  1  0  0  0  0
  4 64  1  6  0  0  0
  5 65  1  0  0  0  0
  6  7  1  0  0  0  0
  6 44  1  0  0  0  0
  6 66  1  6  0  0  0
  8  7  1  0  0  0  0
  8  9  1  0  0  0  0
  8 67  1  6  0  0  0
  9 10  1  0  0  0  0
  9 68  1  0  0  0  0
  9 69  1  0  0  0  0
 10 11  1  0  0  0  0
 10 70  1  0  0  0  0
 10 71  1  0  0  0  0
 11 12  1  1  0  0  0
 11 13  1  0  0  0  0
 12 72  1  0  0  0  0
 12 73  1  0  0  0  0
 12 74  1  0  0  0  0
 13 14  1  0  0  0  0
 13 15  1  0  0  0  0
 13 75  1  6  0  0  0
 14  8  1  0  0  0  0
 14 76  1  0  0  0  0
 14 77  1  0  0  0  0
 15 16  1  0  0  0  0
 15 20  1  0  0  0  0
 15 78  1  6  0  0  0
 16 17  1  0  0  0  0
 17 18  1  0  0  0  0
 17 19  2  0  0  0  0
 18 79  1  0  0  0  0
 18 80  1  0  0  0  0
 18 81  1  0  0  0  0
 20 21  1  0  0  0  0
 20 82  1  0  0  0  0
 20 83  1  0  0  0  0
 21 22  1  1  0  0  0
 21 23  1  0  0  0  0
 22 84  1  0  0  0  0
 23 24  1  0  0  0  0
 23 11  1  0  0  0  0
 23 85  1  6  0  0  0
 24 25  1  0  0  0  0
 24 86  1  0  0  0  0
 24 87  1  0  0  0  0
 25 26  1  0  0  0  0
 25 88  1  0  0  0  0
 25 89  1  0  0  0  0
 26 27  1  1  0  0  0
 26 28  1  0  0  0  0
 27 90  1  0  0  0  0
 27 91  1  0  0  0  0
 27 92  1  0  0  0  0
 28 29  1  0  0  0  0
 28 36  1  0  0  0  0
 28 93  1  6  0  0  0
 29 30  2  0  0  0  0
 30 31  1  0  0  0  0
 30 94  1  0  0  0  0
 31 32  1  0  0  0  0
 32 33  2  0  0  0  0
 32 34  1  0  0  0  0
 34 35  2  0  0  0  0
 34 95  1  0  0  0  0
 35 29  1  0  0  0  0
 35 96  1  0  0  0  0
 36 37  1  0  0  0  0
 36 41  1  0  0  0  0
 36 97  1  6  0  0  0
 37 38  1  0  0  0  0
 38 39  1  0  0  0  0
 38 40  2  0  0  0  0
 39 98  1  0  0  0  0
 39 99  1  0  0  0  0
 39100  1  0  0  0  0
 41 42  1  0  0  0  0
 41101  1  0  0  0  0
 41102  1  0  0  0  0
 42 43  1  1  0  0  0
 42 21  1  0  0  0  0
 42 26  1  0  0  0  0
 43103  1  0  0  0  0
 44 45  1  0  0  0  0
 45 46  1  0  0  0  0
 45 47  1  0  0  0  0
 45104  1  1  0  0  0
 46105  1  0  0  0  0
 46106  1  0  0  0  0
 46107  1  0  0  0  0
 47 48  1  0  0  0  0
 47  3  1  0  0  0  0
 47108  1  6  0  0  0
 49 48  1  0  0  0  0
 49 50  1  0  0  0  0
 49109  1  6  0  0  0
 50 51  1  0  0  0  0
 51 52  1  0  0  0  0
 51 54  1  0  0  0  0
 51110  1  6  0  0  0
 52 53  1  0  0  0  0
 52111  1  0  0  0  0
 52112  1  0  0  0  0
 53113  1  0  0  0  0
 54 55  1  0  0  0  0
 54 56  1  0  0  0  0
 54114  1  1  0  0  0
 55115  1  0  0  0  0
 56 57  1  0  0  0  0
 56 58  1  0  0  0  0
 56116  1  6  0  0  0
 57117  1  0  0  0  0
 58 59  1  0  0  0  0
 58 49  1  0  0  0  0
 58118  1  1  0  0  0
 59119  1  0  0  0  0
M  END
>  <IDENTIFIER>
CNP0118958.1

>  <Energy>
1263.62

$$$$
