
 OpenBabel09112521593D

 58 61  0  0  0  0  0  0  0  0999 V2000
   -0.5858    2.3075    1.8469 C   0  0  0  0  0  0  0  0  0  0  0  0
   -0.3371    1.5496    0.7561 C   0  0  0  0  0  0  0  0  0  0  0  0
   -1.4555    0.8479    0.0003 C   0  0  2  0  0  0  0  0  0  0  0  0
   -2.7580    1.6414   -0.1913 C   0  0  1  0  0  0  0  0  0  0  0  0
   -2.6159    2.7815   -1.0018 O   0  0  0  0  0  0  0  0  0  0  0  0
   -3.6445    0.5658   -0.8135 C   0  0  2  0  0  0  0  0  0  0  0  0
   -5.0051    0.9052   -0.9258 O   0  0  0  0  0  0  0  0  0  0  0  0
   -3.3412   -0.7317    0.0089 C   0  0  0  0  0  0  0  0  0  0  0  0
   -3.3264   -1.9247   -0.9801 C   0  0  0  0  0  0  0  0  0  0  0  0
   -4.4494   -1.0215    1.0565 C   0  0  0  0  0  0  0  0  0  0  0  0
   -1.9306   -0.4245    0.7167 C   0  0  2  0  0  0  0  0  0  0  0  0
   -2.1327   -0.0718    2.0739 O   0  0  0  0  0  0  0  0  0  0  0  0
   -0.8371   -1.5471    0.6161 C   0  0  2  0  0  0  0  0  0  0  0  0
   -1.3107   -2.7194    1.2415 O   0  0  0  0  0  0  0  0  0  0  0  0
    0.5828   -1.1873    1.1713 C   0  0  0  0  0  0  0  0  0  0  0  0
    1.5135   -0.2303    0.3338 C   0  0  1  0  0  0  0  0  0  0  0  0
    1.7415   -0.7253   -1.1251 C   0  0  0  0  0  0  0  0  0  0  0  0
    3.0277    0.0696   -1.4982 C   0  0  1  0  0  0  0  0  0  0  0  0
    3.6111   -0.3573   -2.7050 O   0  0  0  0  0  0  0  0  0  0  0  0
    2.7376    1.6141   -1.5827 C   0  0  0  0  0  0  0  0  0  0  0  0
    1.3635    1.9916   -1.0283 C   0  0  0  0  0  0  0  0  0  0  0  0
    1.0983    1.3177    0.3294 C   0  0  1  0  0  0  0  0  0  0  0  0
    3.9251   -0.3553   -0.2926 C   0  0  2  0  0  0  0  0  0  0  0  0
    5.2102    0.4603   -0.0255 C   0  0  0  0  0  0  0  0  0  0  0  0
    4.3053   -1.7073   -0.4806 O   0  0  0  0  0  0  0  0  0  0  0  0
    2.9671   -0.3265    0.9154 C   0  0  0  0  0  0  0  0  0  0  0  0
   -1.5892    2.4785    2.2157 H   0  0  0  0  0  0  0  0  0  0  0  0
    0.2179    2.7809    2.4018 H   0  0  0  0  0  0  0  0  0  0  0  0
   -1.0911    0.5318   -1.0012 H   0  0  0  0  0  0  0  0  0  0  0  0
   -3.1860    1.9414    0.7892 H   0  0  0  0  0  0  0  0  0  0  0  0
   -2.1730    2.5035   -1.8458 H   0  0  0  0  0  0  0  0  0  0  0  0
   -3.2441    0.4384   -1.8465 H   0  0  0  0  0  0  0  0  0  0  0  0
   -5.2813    1.3387   -0.0776 H   0  0  0  0  0  0  0  0  0  0  0  0
   -4.3146   -2.0228   -1.4799 H   0  0  0  0  0  0  0  0  0  0  0  0
   -3.1228   -2.8816   -0.4579 H   0  0  0  0  0  0  0  0  0  0  0  0
   -2.5612   -1.7836   -1.7727 H   0  0  0  0  0  0  0  0  0  0  0  0
   -5.4291   -1.1936    0.5593 H   0  0  0  0  0  0  0  0  0  0  0  0
   -4.5790   -0.1701    1.7575 H   0  0  0  0  0  0  0  0  0  0  0  0
   -4.2052   -1.9350    1.6393 H   0  0  0  0  0  0  0  0  0  0  0  0
   -2.3432   -0.8849    2.5977 H   0  0  0  0  0  0  0  0  0  0  0  0
   -0.6793   -1.8136   -0.4476 H   0  0  0  0  0  0  0  0  0  0  0  0
   -1.1002   -2.6756    2.2104 H   0  0  0  0  0  0  0  0  0  0  0  0
    1.1124   -2.1662    1.1884 H   0  0  0  0  0  0  0  0  0  0  0  0
    0.5125   -0.8400    2.2249 H   0  0  0  0  0  0  0  0  0  0  0  0
    0.8832   -0.5707   -1.8103 H   0  0  0  0  0  0  0  0  0  0  0  0
    1.9525   -1.8193   -1.1335 H   0  0  0  0  0  0  0  0  0  0  0  0
    2.8922   -0.3730   -3.3893 H   0  0  0  0  0  0  0  0  0  0  0  0
    2.7191    1.9399   -2.6460 H   0  0  0  0  0  0  0  0  0  0  0  0
    3.5373    2.2103   -1.1131 H   0  0  0  0  0  0  0  0  0  0  0  0
    0.6209    1.6325   -1.7683 H   0  0  0  0  0  0  0  0  0  0  0  0
    1.2368    3.0951   -0.9786 H   0  0  0  0  0  0  0  0  0  0  0  0
    1.7368    1.8632    1.0561 H   0  0  0  0  0  0  0  0  0  0  0  0
    5.8672    0.4538   -0.9210 H   0  0  0  0  0  0  0  0  0  0  0  0
    5.7660    0.0066    0.8228 H   0  0  0  0  0  0  0  0  0  0  0  0
    4.9982    1.5083    0.2613 H   0  0  0  0  0  0  0  0  0  0  0  0
    4.9769   -1.7503   -1.2114 H   0  0  0  0  0  0  0  0  0  0  0  0
    3.1845    0.4695    1.6587 H   0  0  0  0  0  0  0  0  0  0  0  0
    3.1456   -1.2623    1.4923 H   0  0  0  0  0  0  0  0  0  0  0  0
  1  2  2  0  0  0  0
  1 27  1  0  0  0  0
  1 28  1  0  0  0  0
  3  2  1  0  0  0  0
  3  4  1  0  0  0  0
  3 29  1  6  0  0  0
  4  5  1  0  0  0  0
  4  6  1  0  0  0  0
  4 30  1  1  0  0  0
  5 31  1  0  0  0  0
  6  7  1  0  0  0  0
  6  8  1  0  0  0  0
  6 32  1  6  0  0  0
  7 33  1  0  0  0  0
  8  9  1  0  0  0  0
  8 10  1  0  0  0  0
  8 11  1  0  0  0  0
  9 34  1  0  0  0  0
  9 35  1  0  0  0  0
  9 36  1  0  0  0  0
 10 37  1  0  0  0  0
 10 38  1  0  0  0  0
 10 39  1  0  0  0  0
 11 12  1  1  0  0  0
 11 13  1  0  0  0  0
 11  3  1  0  0  0  0
 12 40  1  0  0  0  0
 13 14  1  0  0  0  0
 13 15  1  0  0  0  0
 13 41  1  6  0  0  0
 14 42  1  0  0  0  0
 15 43  1  0  0  0  0
 15 44  1  0  0  0  0
 16 15  1  1  0  0  0
 16 17  1  0  0  0  0
 17 18  1  0  0  0  0
 17 45  1  0  0  0  0
 17 46  1  0  0  0  0
 18 19  1  6  0  0  0
 18 20  1  0  0  0  0
 18 23  1  0  0  0  0
 19 47  1  0  0  0  0
 20 21  1  0  0  0  0
 20 48  1  0  0  0  0
 20 49  1  0  0  0  0
 21 50  1  0  0  0  0
 21 51  1  0  0  0  0
 22 21  1  0  0  0  0
 22  2  1  0  0  0  0
 22 16  1  0  0  0  0
 22 52  1  1  0  0  0
 23 24  1  0  0  0  0
 23 25  1  6  0  0  0
 23 26  1  0  0  0  0
 24 53  1  0  0  0  0
 24 54  1  0  0  0  0
 24 55  1  0  0  0  0
 25 56  1  0  0  0  0
 26 16  1  0  0  0  0
 26 57  1  0  0  0  0
 26 58  1  0  0  0  0
M  END
>  <IDENTIFIER>
CNP0513904.2

>  <Energy>
1014.27

$$$$
