
 OpenBabel09102513523D

 42 41  0  0  0  0  0  0  0  0999 V2000
    7.5212    1.9519   -0.3430 O   0  0  0  0  0  0  0  0  0  0  0  0
    7.4281    0.6644   -0.8352 C   0  0  0  0  0  0  0  0  0  0  0  0
    6.4201   -0.1406   -0.0047 C   0  0  2  0  0  0  0  0  0  0  0  0
    6.4075   -1.4183   -0.5871 O   0  0  0  0  0  0  0  0  0  0  0  0
    5.0768    0.4225   -0.1463 C   0  0  0  0  0  0  0  0  0  0  0  0
    3.9580    0.9148   -0.2648 C   0  0  0  0  0  0  0  0  0  0  0  0
    2.6721    1.4958   -0.3815 C   0  0  0  0  0  0  0  0  0  0  0  0
    1.5749    1.9872   -0.4809 C   0  0  0  0  0  0  0  0  0  0  0  0
    0.2431    2.5839   -0.5828 C   0  0  0  0  0  0  0  0  0  0  0  0
   -0.5497    2.1523    0.6010 C   0  0  0  0  0  0  0  0  0  0  0  0
   -0.7265    0.6777    0.7317 C   0  0  0  0  0  0  0  0  0  0  0  0
   -1.4231    0.0478   -0.4310 C   0  0  0  0  0  0  0  0  0  0  0  0
   -2.7973    0.5582   -0.6961 C   0  0  0  0  0  0  0  0  0  0  0  0
   -3.7427    0.3515    0.4711 C   0  0  0  0  0  0  0  0  0  0  0  0
   -3.9176   -1.0863    0.8493 C   0  0  0  0  0  0  0  0  0  0  0  0
   -4.4765   -1.8881   -0.3145 C   0  0  0  0  0  0  0  0  0  0  0  0
   -4.6571   -3.3128    0.0456 C   0  0  0  0  0  0  0  0  0  0  0  0
   -4.3546   -3.7596    1.2513 C   0  0  0  0  0  0  0  0  0  0  0  0
   -4.6004   -5.6163    1.6873 Br  0  0  0  0  0  0  0  0  0  0  0  0
    8.1597    2.4550   -0.8723 H   0  0  0  0  0  0  0  0  0  0  0  0
    8.3877    0.1940   -0.7819 H   0  0  0  0  0  0  0  0  0  0  0  0
    7.0983    0.6992   -1.8525 H   0  0  0  0  0  0  0  0  0  0  0  0
    6.6858   -0.1402    1.0318 H   0  0  0  0  0  0  0  0  0  0  0  0
    6.1600   -1.3450   -1.5221 H   0  0  0  0  0  0  0  0  0  0  0  0
   -0.2354    2.2516   -1.4803 H   0  0  0  0  0  0  0  0  0  0  0  0
    0.3165    3.6510   -0.6102 H   0  0  0  0  0  0  0  0  0  0  0  0
   -1.5196    2.5990    0.5328 H   0  0  0  0  0  0  0  0  0  0  0  0
    0.0007    2.4671    1.4629 H   0  0  0  0  0  0  0  0  0  0  0  0
   -1.3000    0.4837    1.6140 H   0  0  0  0  0  0  0  0  0  0  0  0
    0.2530    0.2494    0.7772 H   0  0  0  0  0  0  0  0  0  0  0  0
   -1.4899   -1.0042   -0.2473 H   0  0  0  0  0  0  0  0  0  0  0  0
   -0.8420    0.2932   -1.2953 H   0  0  0  0  0  0  0  0  0  0  0  0
   -3.1921    0.0468   -1.5491 H   0  0  0  0  0  0  0  0  0  0  0  0
   -2.7202    1.6124   -0.8620 H   0  0  0  0  0  0  0  0  0  0  0  0
   -4.6995    0.7512    0.2071 H   0  0  0  0  0  0  0  0  0  0  0  0
   -3.3143    0.8496    1.3156 H   0  0  0  0  0  0  0  0  0  0  0  0
   -4.5933   -1.1515    1.6764 H   0  0  0  0  0  0  0  0  0  0  0  0
   -2.9625   -1.4889    1.1150 H   0  0  0  0  0  0  0  0  0  0  0  0
   -3.7990   -1.8213   -1.1400 H   0  0  0  0  0  0  0  0  0  0  0  0
   -5.4326   -1.4832   -0.5729 H   0  0  0  0  0  0  0  0  0  0  0  0
   -5.0266   -3.9698   -0.6593 H   0  0  0  0  0  0  0  0  0  0  0  0
   -3.9848   -3.1095    1.9623 H   0  0  0  0  0  0  0  0  0  0  0  0
  1  2  1  0  0  0  0
  1 20  1  0  0  0  0
  2  3  1  0  0  0  0
  2 21  1  0  0  0  0
  2 22  1  0  0  0  0
  3  4  1  0  0  0  0
  3  5  1  0  0  0  0
  3 23  1  1  0  0  0
  4 24  1  0  0  0  0
  5  6  3  0  0  0  0
  6  7  1  0  0  0  0
  7  8  3  0  0  0  0
  8  9  1  0  0  0  0
  9 10  1  0  0  0  0
  9 25  1  0  0  0  0
  9 26  1  0  0  0  0
 10 11  1  0  0  0  0
 10 27  1  0  0  0  0
 10 28  1  0  0  0  0
 11 12  1  0  0  0  0
 11 29  1  0  0  0  0
 11 30  1  0  0  0  0
 12 13  1  0  0  0  0
 12 31  1  0  0  0  0
 12 32  1  0  0  0  0
 13 14  1  0  0  0  0
 13 33  1  0  0  0  0
 13 34  1  0  0  0  0
 14 15  1  0  0  0  0
 14 35  1  0  0  0  0
 14 36  1  0  0  0  0
 15 16  1  0  0  0  0
 15 37  1  0  0  0  0
 15 38  1  0  0  0  0
 16 17  1  0  0  0  0
 16 39  1  0  0  0  0
 16 40  1  0  0  0  0
 17 18  2  0  0  0  0
 17 41  1  0  0  0  0
 18 19  1  0  0  0  0
 18 42  1  0  0  0  0
M  END
>  <IDENTIFIER>
CNP0378867.1

>  <Energy>
336.524

$$$$
