
 OpenBabel09112503553D

 84 88  0  0  0  0  0  0  0  0999 V2000
   -4.1466    5.7882    0.5790 C   0  0  0  0  0  0  0  0  0  0  0  0
   -2.8273    5.9789    1.3458 C   0  0  0  0  0  0  0  0  0  0  0  0
   -3.0950    6.7541    2.6411 C   0  0  0  0  0  0  0  0  0  0  0  0
   -2.1509    4.6270    1.6714 C   0  0  0  0  0  0  0  0  0  0  0  0
   -1.6044    3.9248    0.4177 C   0  0  0  0  0  0  0  0  0  0  0  0
   -0.9479    2.6772    0.7723 N   0  0  0  0  0  0  0  0  0  0  0  0
    0.3902    2.4544    0.6605 C   0  0  0  0  0  0  0  0  0  0  0  0
    1.1885    3.2787    0.2407 O   0  0  0  0  0  0  0  0  0  0  0  0
    0.6812    1.0196    0.8567 C   0  0  1  0  0  0  0  0  0  0  0  0
    1.8371    0.3241    1.5748 C   0  0  2  0  0  0  0  0  0  0  0  0
    2.9044   -0.1572    0.6114 C   0  0  0  0  0  0  0  0  0  0  0  0
    3.1221    0.5143   -0.3873 O   0  0  0  0  0  0  0  0  0  0  0  0
    3.6581   -1.2664    0.8781 N   0  0  0  0  0  0  0  0  0  0  0  0
    4.7952   -1.6767    0.1105 C   0  0  0  0  0  0  0  0  0  0  0  0
    5.1181   -3.0394    0.0416 C   0  0  0  0  0  0  0  0  0  0  0  0
    6.2192   -3.4745   -0.7034 C   0  0  0  0  0  0  0  0  0  0  0  0
    7.0491   -2.5511   -1.3619 C   0  0  0  0  0  0  0  0  0  0  0  0
    8.2467   -3.0382   -2.1576 C   0  0  0  0  0  0  0  0  0  0  0  0
    9.5551   -2.6152   -1.4834 C   0  0  0  0  0  0  0  0  0  0  0  0
    8.1921   -2.5297   -3.6078 C   0  0  0  0  0  0  0  0  0  0  0  0
    6.7511   -1.1818   -1.2597 C   0  0  0  0  0  0  0  0  0  0  0  0
    5.6324   -0.7498   -0.5458 C   0  0  0  0  0  0  0  0  0  0  0  0
    0.9615   -0.7243    2.3815 C   0  0  1  0  0  0  0  0  0  0  0  0
    0.6110    0.0059    3.6327 C   0  0  0  0  0  0  0  0  0  0  0  0
   -0.2618    0.9595    3.2124 C   0  0  0  0  0  0  0  0  0  0  0  0
   -0.4717    0.6304    1.7484 C   0  0  2  0  0  0  0  0  0  0  0  0
   -0.3213   -0.7657    1.7431 O   0  0  0  0  0  0  0  0  0  0  0  0
   -1.6463    1.4566    1.1953 C   0  0  2  0  0  0  0  0  0  0  0  0
   -2.4070    0.8043    0.0580 C   0  0  0  0  0  0  0  0  0  0  0  0
   -2.4040    1.3141   -1.0539 O   0  0  0  0  0  0  0  0  0  0  0  0
   -3.1433   -0.3181    0.3035 N   0  0  0  0  0  0  0  0  0  0  0  0
   -4.0221   -0.9338   -0.6845 C   0  0  2  0  0  0  0  0  0  0  0  0
   -5.4984   -0.8653   -0.1784 C   0  0  0  0  0  0  0  0  0  0  0  0
   -5.8922   -2.1673    0.5085 C   0  0  0  0  0  0  0  0  0  0  0  0
   -5.8588   -3.3384   -0.5109 C   0  0  0  0  0  0  0  0  0  0  0  0
   -4.6933   -3.2537   -1.5521 C   0  0  1  0  0  0  0  0  0  0  0  0
   -5.1828   -2.7311   -2.9230 C   0  0  0  0  0  0  0  0  0  0  0  0
   -3.5436   -2.3996   -0.9603 C   0  0  1  0  0  0  0  0  0  0  0  0
   -2.2634   -2.4151   -1.8064 C   0  0  0  0  0  0  0  0  0  0  0  0
   -4.6115    6.7747    0.3678 H   0  0  0  0  0  0  0  0  0  0  0  0
   -4.8597    5.1820    1.1789 H   0  0  0  0  0  0  0  0  0  0  0  0
   -3.9833    5.2867   -0.3952 H   0  0  0  0  0  0  0  0  0  0  0  0
   -2.1350    6.5951    0.7296 H   0  0  0  0  0  0  0  0  0  0  0  0
   -3.7773    6.1867    3.3090 H   0  0  0  0  0  0  0  0  0  0  0  0
   -3.5525    7.7400    2.4092 H   0  0  0  0  0  0  0  0  0  0  0  0
   -2.1394    6.9406    3.1768 H   0  0  0  0  0  0  0  0  0  0  0  0
   -2.8629    3.9725    2.2177 H   0  0  0  0  0  0  0  0  0  0  0  0
   -1.2752    4.8148    2.3326 H   0  0  0  0  0  0  0  0  0  0  0  0
   -0.8789    4.6222   -0.0574 H   0  0  0  0  0  0  0  0  0  0  0  0
   -2.4016    3.7232   -0.3208 H   0  0  0  0  0  0  0  0  0  0  0  0
    0.4903    0.5188   -0.1257 H   0  0  0  0  0  0  0  0  0  0  0  0
    2.3700    0.9958    2.2891 H   0  0  0  0  0  0  0  0  0  0  0  0
    3.3981   -1.8625    1.6753 H   0  0  0  0  0  0  0  0  0  0  0  0
    4.5001   -3.7707    0.5477 H   0  0  0  0  0  0  0  0  0  0  0  0
    6.4288   -4.5355   -0.7560 H   0  0  0  0  0  0  0  0  0  0  0  0
    8.2409   -4.1498   -2.1897 H   0  0  0  0  0  0  0  0  0  0  0  0
    9.6417   -1.5100   -1.4235 H   0  0  0  0  0  0  0  0  0  0  0  0
   10.4222   -3.0122   -2.0536 H   0  0  0  0  0  0  0  0  0  0  0  0
    9.5978   -3.0362   -0.4555 H   0  0  0  0  0  0  0  0  0  0  0  0
    8.2531   -1.4210   -3.6487 H   0  0  0  0  0  0  0  0  0  0  0  0
    7.2472   -2.8520   -4.0939 H   0  0  0  0  0  0  0  0  0  0  0  0
    9.0452   -2.9391   -4.1892 H   0  0  0  0  0  0  0  0  0  0  0  0
    7.3786   -0.4412   -1.7383 H   0  0  0  0  0  0  0  0  0  0  0  0
    5.4567    0.3143   -0.4888 H   0  0  0  0  0  0  0  0  0  0  0  0
    1.4336   -1.6966    2.6222 H   0  0  0  0  0  0  0  0  0  0  0  0
    0.9305   -0.1845    4.6482 H   0  0  0  0  0  0  0  0  0  0  0  0
   -0.7852    1.6650    3.8448 H   0  0  0  0  0  0  0  0  0  0  0  0
   -2.3817    1.6646    2.0038 H   0  0  0  0  0  0  0  0  0  0  0  0
   -3.1226   -0.7250    1.2515 H   0  0  0  0  0  0  0  0  0  0  0  0
   -4.0087   -0.3488   -1.6298 H   0  0  0  0  0  0  0  0  0  0  0  0
   -6.2055   -0.7377   -1.0233 H   0  0  0  0  0  0  0  0  0  0  0  0
   -5.6394    0.0239    0.4745 H   0  0  0  0  0  0  0  0  0  0  0  0
   -6.8994   -2.1156    0.9739 H   0  0  0  0  0  0  0  0  0  0  0  0
   -5.1576   -2.3440    1.3248 H   0  0  0  0  0  0  0  0  0  0  0  0
   -6.8235   -3.4198   -1.0588 H   0  0  0  0  0  0  0  0  0  0  0  0
   -5.7672   -4.2640    0.0984 H   0  0  0  0  0  0  0  0  0  0  0  0
   -4.3470   -4.2939   -1.7445 H   0  0  0  0  0  0  0  0  0  0  0  0
   -5.5744   -1.6985   -2.8829 H   0  0  0  0  0  0  0  0  0  0  0  0
   -5.9937   -3.3863   -3.3070 H   0  0  0  0  0  0  0  0  0  0  0  0
   -4.3633   -2.7592   -3.6689 H   0  0  0  0  0  0  0  0  0  0  0  0
   -3.2885   -2.8861    0.0090 H   0  0  0  0  0  0  0  0  0  0  0  0
   -2.4243   -1.9265   -2.7894 H   0  0  0  0  0  0  0  0  0  0  0  0
   -1.9293   -3.4611   -1.9716 H   0  0  0  0  0  0  0  0  0  0  0  0
   -1.4531   -1.8692   -1.2781 H   0  0  0  0  0  0  0  0  0  0  0  0
  1  2  1  0  0  0  0
  1 40  1  0  0  0  0
  1 41  1  0  0  0  0
  1 42  1  0  0  0  0
  2  3  1  0  0  0  0
  2  4  1  0  0  0  0
  2 43  1  0  0  0  0
  3 44  1  0  0  0  0
  3 45  1  0  0  0  0
  3 46  1  0  0  0  0
  4  5  1  0  0  0  0
  4 47  1  0  0  0  0
  4 48  1  0  0  0  0
  5  6  1  0  0  0  0
  5 49  1  0  0  0  0
  5 50  1  0  0  0  0
  6  7  1  0  0  0  0
  7  8  2  0  0  0  0
  9  7  1  0  0  0  0
  9 10  1  0  0  0  0
  9 51  1  6  0  0  0
 10 11  1  0  0  0  0
 10 23  1  0  0  0  0
 10 52  1  1  0  0  0
 11 12  2  0  0  0  0
 11 13  1  0  0  0  0
 13 14  1  0  0  0  0
 13 53  1  0  0  0  0
 14 15  2  0  0  0  0
 15 16  1  0  0  0  0
 15 54  1  0  0  0  0
 16 17  2  0  0  0  0
 16 55  1  0  0  0  0
 17 18  1  0  0  0  0
 17 21  1  0  0  0  0
 18 19  1  0  0  0  0
 18 20  1  0  0  0  0
 18 56  1  0  0  0  0
 19 57  1  0  0  0  0
 19 58  1  0  0  0  0
 19 59  1  0  0  0  0
 20 60  1  0  0  0  0
 20 61  1  0  0  0  0
 20 62  1  0  0  0  0
 21 22  2  0  0  0  0
 21 63  1  0  0  0  0
 22 14  1  0  0  0  0
 22 64  1  0  0  0  0
 23 24  1  0  0  0  0
 23 65  1  1  0  0  0
 24 25  2  0  0  0  0
 24 66  1  0  0  0  0
 25 67  1  0  0  0  0
 26 25  1  1  0  0  0
 26 27  1  0  0  0  0
 26 28  1  0  0  0  0
 26  9  1  0  0  0  0
 27 23  1  0  0  0  0
 28 29  1  0  0  0  0
 28  6  1  0  0  0  0
 28 68  1  1  0  0  0
 29 30  2  0  0  0  0
 29 31  1  0  0  0  0
 31 69  1  0  0  0  0
 32 31  1  0  0  0  0
 32 33  1  0  0  0  0
 32 70  1  6  0  0  0
 33 34  1  0  0  0  0
 33 71  1  0  0  0  0
 33 72  1  0  0  0  0
 34 35  1  0  0  0  0
 34 73  1  0  0  0  0
 34 74  1  0  0  0  0
 35 36  1  0  0  0  0
 35 75  1  0  0  0  0
 35 76  1  0  0  0  0
 36 37  1  0  0  0  0
 36 38  1  0  0  0  0
 36 77  1  6  0  0  0
 37 78  1  0  0  0  0
 37 79  1  0  0  0  0
 37 80  1  0  0  0  0
 38 39  1  0  0  0  0
 38 32  1  0  0  0  0
 38 81  1  1  0  0  0
 39 82  1  0  0  0  0
 39 83  1  0  0  0  0
 39 84  1  0  0  0  0
M  END
>  <IDENTIFIER>
CNP0523352.2

>  <Energy>
1184.98

$$$$
