
 OpenBabel09072515052D

175174  0  0  0  0  0  0  0  0999 V2000
   16.8875    9.7500    0.0000 C   0  0  0  0  0  0  0  0  0  0  0  0
   15.5885    9.0000    0.0000 C   0  0  0  0  0  0  0  0  0  0  0  0
   13.9526    8.6524    0.1721 C   0  0  0  0  0  0  0  0  0  0  0  0
   13.2898    7.1611   -0.3194 C   0  0  0  0  0  0  0  0  0  0  0  0
   11.6913    6.7500    0.0000 C   0  0  0  0  0  0  0  0  0  0  0  0
   10.3923    6.0000    0.0000 C   0  0  0  0  0  0  0  0  0  0  0  0
    9.0933    5.2500    0.0000 C   0  0  0  0  0  0  0  0  0  0  0  0
    7.7942    4.5000    0.0000 C   0  0  0  0  0  0  0  0  0  0  0  0
    6.4952    3.7500    0.0000 C   0  0  0  0  0  0  0  0  0  0  0  0
    5.1962    3.0000    0.0000 C   0  0  0  0  0  0  0  0  0  0  0  0
    3.6187    2.8149   -0.5223 C   0  0  0  0  0  0  0  0  0  0  0  0
    2.7546    1.4328   -0.0721 C   0  0  0  0  0  0  0  0  0  0  0  0
    1.1567    1.1189   -0.4830 C   0  0  0  0  0  0  0  0  0  0  0  0
    0.4347   -0.3634   -0.3680 C   0  0  0  0  0  0  0  0  0  0  0  0
    1.1029   -1.2781   -0.8210 O   0  0  0  0  0  0  0  0  0  0  0  0
   -0.9255   -0.6849    0.0224 O   0  0  0  0  0  0  0  0  0  0  0  0
   -1.6229   -1.9635   -0.2339 C   0  0  0  0  0  0  0  0  0  0  0  0
   -3.1975   -2.3187    0.2596 C   0  0  1  0  0  0  0  0  0  0  0  0
   -3.7190   -3.8610   -0.2222 C   0  0  0  0  0  0  0  0  0  0  0  0
   -4.9692   -4.5691    0.1401 O   0  0  0  0  0  0  0  0  0  0  0  0
   -5.1962   -6.0000    0.0000 C   0  0  0  0  0  0  0  0  0  0  0  0
   -4.1862   -6.6722   -0.2098 O   0  0  0  0  0  0  0  0  0  0  0  0
   -6.4952   -6.7500    0.0000 C   0  0  0  0  0  0  0  0  0  0  0  0
   -7.7942   -7.5000    0.0000 C   0  0  0  0  0  0  0  0  0  0  0  0
   -9.0933   -8.2500    0.0000 C   0  0  0  0  0  0  0  0  0  0  0  0
  -10.3923   -9.0000    0.0000 C   0  0  0  0  0  0  0  0  0  0  0  0
  -11.6913   -9.7500    0.0000 C   0  0  0  0  0  0  0  0  0  0  0  0
  -13.3404  -10.0655    0.0552 C   0  0  0  0  0  0  0  0  0  0  0  0
  -13.9448  -11.6522   -0.0541 C   0  0  0  0  0  0  0  0  0  0  0  0
  -15.5885  -12.0000    0.0000 C   0  0  0  0  0  0  0  0  0  0  0  0
  -16.8875  -12.7500    0.0000 C   0  0  0  0  0  2  0  0  0  0  0  0
  -18.1865  -13.5000    0.0000 C   0  0  0  0  0  0  0  0  0  0  0  0
  -19.4856  -14.2500    0.0000 C   0  0  0  0  0  0  0  0  0  0  0  0
  -20.7846  -15.0000    0.0000 C   0  0  0  0  0  2  0  0  0  0  0  0
  -22.0836  -15.7500    0.0000 C   0  0  3  0  0  0  0  0  0  0  0  0
  -23.3827  -16.5000    0.0000 C   0  0  0  0  0  0  0  0  0  0  0  0
  -21.3336  -17.0490    0.0000 C   0  0  0  0  0  0  0  0  0  0  0  0
  -20.5836  -18.3481    0.0000 C   0  0  0  0  0  0  0  0  0  0  0  0
   -3.9893   -1.2235   -0.1346 O   0  0  0  0  0  0  0  0  0  0  0  0
   -5.2966   -0.8469    0.1014 C   0  0  0  0  0  0  0  0  0  0  0  0
   -6.1806   -1.6783    0.2341 O   0  0  0  0  0  0  0  0  0  0  0  0
   -5.5844    0.6654    0.2158 C   0  0  0  0  0  0  0  0  0  0  0  0
   -7.0381    1.3091    0.1728 C   0  0  0  0  0  0  0  0  0  0  0  0
   -6.9058    2.8601    0.4365 C   0  0  0  0  0  0  0  0  0  0  0  0
   -7.8669    4.0043   -0.0903 C   0  0  0  0  0  0  0  0  0  0  0  0
   -9.2243    4.5944    0.5269 C   0  0  0  0  0  0  0  0  0  0  0  0
   -9.3481    6.0933    0.0000 C   0  0  0  0  0  0  0  0  0  0  0  0
  -10.0981    7.3923    0.0000 C   0  0  0  0  0  0  0  0  0  0  0  0
  -10.8481    8.6913    0.0000 C   0  0  0  0  0  0  0  0  0  0  0  0
  -11.2933   10.2677    0.3777 C   0  0  0  0  0  0  0  0  0  0  0  0
  -12.5874   11.0424   -0.4180 C   0  0  0  0  0  0  0  0  0  0  0  0
  -13.0981   12.5885    0.0000 C   0  0  0  0  0  0  0  0  0  0  0  0
  -13.8481   13.8875    0.0000 C   0  0  0  0  0  0  0  0  0  0  0  0
  -14.5981   15.1865    0.0000 C   0  0  0  0  0  0  0  0  0  0  0  0
  -15.3481   16.4856    0.0000 C   0  0  0  0  0  0  0  0  0  0  0  0
  -16.0981   17.7846    0.0000 C   0  0  0  0  0  0  0  0  0  0  0  0
  -16.8481   19.0836    0.0000 C   0  0  0  0  0  0  0  0  0  0  0  0
  -17.3577   20.6323   -0.4105 C   0  0  0  0  0  0  0  0  0  0  0  0
  -18.6641   21.4003    0.3733 C   0  0  0  0  0  0  0  0  0  0  0  0
  -19.0981   22.9808    0.0000 C   0  0  0  0  0  0  0  0  0  0  0  0
  -19.8481   24.2798    0.0000 C   0  0  0  0  0  0  0  0  0  0  0  0
  -20.5981   25.5788    0.0000 C   0  0  3  0  0  0  0  0  0  0  0  0
  -21.3481   26.8779    0.0000 C   0  0  0  0  0  0  0  0  0  0  0  0
  -21.8971   24.8288    0.0000 C   0  0  0  0  0  0  0  0  0  0  0  0
  -23.1962   24.0788    0.0000 C   0  0  0  0  0  0  0  0  0  0  0  0
   17.5820    8.9120   -0.2649 H   0  0  0  0  0  0  0  0  0  0  0  0
   16.8895    9.9762    1.0901 H   0  0  0  0  0  0  0  0  0  0  0  0
   17.8141   10.2850    0.0000 H   0  0  0  0  0  0  0  0  0  0  0  0
   15.6273    8.6832   -1.0678 H   0  0  0  0  0  0  0  0  0  0  0  0
   15.8903    8.1213    0.6263 H   0  0  0  0  0  0  0  0  0  0  0  0
   13.7209    8.7733    1.2517 H   0  0  0  0  0  0  0  0  0  0  0  0
   13.3873    9.4384   -0.3715 H   0  0  0  0  0  0  0  0  0  0  0  0
   13.9135    6.3556    0.1227 H   0  0  0  0  0  0  0  0  0  0  0  0
   13.4276    7.1133   -1.4198 H   0  0  0  0  0  0  0  0  0  0  0  0
   11.3010    7.7703   -0.2515 H   0  0  0  0  0  0  0  0  0  0  0  0
   11.7911    6.8202    1.1103 H   0  0  0  0  0  0  0  0  0  0  0  0
   11.0876    5.1012    0.0589 H   0  0  0  0  0  0  0  0  0  0  0  0
   10.2305    6.2899   -1.0767 H   0  0  0  0  0  0  0  0  0  0  0  0
    9.3887    4.7872    0.9929 H   0  0  0  0  0  0  0  0  0  0  0  0
    9.4005    4.4992   -0.8032 H   0  0  0  0  0  0  0  0  0  0  0  0
    7.5071    5.2080   -0.8476 H   0  0  0  0  0  0  0  0  0  0  0  0
    7.4737    5.0094    0.9618 H   0  0  0  0  0  0  0  0  0  0  0  0
    5.7988    4.6487    0.0055 H   0  0  0  0  0  0  0  0  0  0  0  0
    6.6812    3.4001   -1.0529 H   0  0  0  0  0  0  0  0  0  0  0  0
    5.0072    2.9674    1.0994 H   0  0  0  0  0  0  0  0  0  0  0  0
    5.5445    1.9530   -0.1899 H   0  0  0  0  0  0  0  0  0  0  0  0
    3.6304    2.8342   -1.6319 H   0  0  0  0  0  0  0  0  0  0  0  0
    3.0510    3.7050   -0.1779 H   0  0  0  0  0  0  0  0  0  0  0  0
    3.3409    0.5898   -0.4941 H   0  0  0  0  0  0  0  0  0  0  0  0
    2.8138    1.3473    1.0328 H   0  0  0  0  0  0  0  0  0  0  0  0
    0.4978    1.8817   -0.0183 H   0  0  0  0  0  0  0  0  0  0  0  0
    1.1418    1.3213   -1.5741 H   0  0  0  0  0  0  0  0  0  0  0  0
   -0.9872   -2.7762    0.1745 H   0  0  0  0  0  0  0  0  0  0  0  0
   -1.6304   -2.0934   -1.3373 H   0  0  0  0  0  0  0  0  0  0  0  0
   -3.1778   -2.3228    1.3704 H   0  0  0  0  0  0  0  0  0  0  0  0
   -2.8955   -4.5105    0.1428 H   0  0  0  0  0  0  0  0  0  0  0  0
   -3.6478   -3.8845   -1.3299 H   0  0  0  0  0  0  0  0  0  0  0  0
   -6.0249   -7.3105    0.8729 H   0  0  0  0  0  0  0  0  0  0  0  0
   -6.2955   -7.0941   -1.0472 H   0  0  0  0  0  0  0  0  0  0  0  0
   -7.2943   -8.5252    0.0563 H   0  0  0  0  0  0  0  0  0  0  0  0
   -7.9910   -7.1504    1.0621 H   0  0  0  0  0  0  0  0  0  0  0  0
   -9.5791   -7.2176   -0.0785 H   0  0  0  0  0  0  0  0  0  0  0  0
   -8.9123   -8.6060   -1.0594 H   0  0  0  0  0  0  0  0  0  0  0  0
  -10.9092   -8.3969   -0.8173 H   0  0  0  0  0  0  0  0  0  0  0  0
  -10.6376   -8.5873    1.0156 H   0  0  0  0  0  0  0  0  0  0  0  0
  -11.5189  -10.3455   -0.9338 H   0  0  0  0  0  0  0  0  0  0  0  0
  -11.4364  -10.4806    0.8074 H   0  0  0  0  0  0  0  0  0  0  0  0
  -13.7179   -9.6415    1.0094 H   0  0  0  0  0  0  0  0  0  0  0  0
  -13.8068   -9.4868   -0.7695 H   0  0  0  0  0  0  0  0  0  0  0  0
  -13.4716  -12.2293    0.7679 H   0  0  0  0  0  0  0  0  0  0  0  0
  -13.5637  -12.0709   -1.0092 H   0  0  0  0  0  0  0  0  0  0  0  0
  -15.8793  -11.3008   -0.8116 H   0  0  0  0  0  0  0  0  0  0  0  0
  -15.7874  -11.4602    0.9493 H   0  0  0  0  0  0  0  0  0  0  0  0
  -17.8174  -14.0560   -0.8958 H   0  0  0  0  0  0  0  0  0  0  0  0
  -17.8176  -14.0557    0.8960 H   0  0  0  0  0  0  0  0  0  0  0  0
  -19.8547  -13.6949   -0.8962 H   0  0  0  0  0  0  0  0  0  0  0  0
  -19.8549  -13.6946    0.8959 H   0  0  0  0  0  0  0  0  0  0  0  0
  -22.2511  -15.4317   -1.0629 H   0  0  0  0  0  0  0  0  0  0  0  0
  -24.0584  -15.6240   -0.1700 H   0  0  0  0  0  0  0  0  0  0  0  0
  -23.4418  -16.6592    1.1066 H   0  0  0  0  0  0  0  0  0  0  0  0
  -24.3094  -17.0350    0.0000 H   0  0  0  0  0  0  0  0  0  0  0  0
  -20.8418  -16.9757   -1.0282 H   0  0  0  0  0  0  0  0  0  0  0  0
  -21.0586  -16.9209    1.1097 H   0  0  0  0  0  0  0  0  0  0  0  0
  -21.1355  -18.8844    0.8161 H   0  0  0  0  0  0  0  0  0  0  0  0
  -19.5496  -17.9852    0.2673 H   0  0  0  0  0  0  0  0  0  0  0  0
  -20.0486  -19.2748    0.0000 H   0  0  0  0  0  0  0  0  0  0  0  0
   -5.0793    0.9934    1.1504 H   0  0  0  0  0  0  0  0  0  0  0  0
   -5.0312    1.1286   -0.6300 H   0  0  0  0  0  0  0  0  0  0  0  0
   -7.7282    0.8631    0.9198 H   0  0  0  0  0  0  0  0  0  0  0  0
   -7.4414    1.1304   -0.8464 H   0  0  0  0  0  0  0  0  0  0  0  0
   -6.6545    3.0367    1.5048 H   0  0  0  0  0  0  0  0  0  0  0  0
   -5.9798    3.1119   -0.1315 H   0  0  0  0  0  0  0  0  0  0  0  0
   -8.0073    3.8662   -1.1843 H   0  0  0  0  0  0  0  0  0  0  0  0
   -7.1617    4.8591    0.0137 H   0  0  0  0  0  0  0  0  0  0  0  0
   -9.1516    4.6350    1.6349 H   0  0  0  0  0  0  0  0  0  0  0  0
  -10.0877    3.9598    0.2380 H   0  0  0  0  0  0  0  0  0  0  0  0
   -9.1084    5.9785   -1.0891 H   0  0  0  0  0  0  0  0  0  0  0  0
   -8.4061    6.5100    0.4303 H   0  0  0  0  0  0  0  0  0  0  0  0
  -10.8966    6.8396   -0.5739 H   0  0  0  0  0  0  0  0  0  0  0  0
  -10.2580    7.3046    1.1035 H   0  0  0  0  0  0  0  0  0  0  0  0
  -10.7427    8.8959   -1.0914 H   0  0  0  0  0  0  0  0  0  0  0  0
  -11.9022    8.3452    0.1968 H   0  0  0  0  0  0  0  0  0  0  0  0
  -11.5273   10.2816    1.4636 H   0  0  0  0  0  0  0  0  0  0  0  0
  -10.3979   10.9073    0.2290 H   0  0  0  0  0  0  0  0  0  0  0  0
  -13.4738   10.3815   -0.3170 H   0  0  0  0  0  0  0  0  0  0  0  0
  -12.3209   11.0701   -1.4954 H   0  0  0  0  0  0  0  0  0  0  0  0
  -12.0632   13.0146    0.0086 H   0  0  0  0  0  0  0  0  0  0  0  0
  -13.2483   12.3454    1.0822 H   0  0  0  0  0  0  0  0  0  0  0  0
  -14.7525   13.1980   -0.0649 H   0  0  0  0  0  0  0  0  0  0  0  0
  -13.4420   14.1111   -1.0249 H   0  0  0  0  0  0  0  0  0  0  0  0
  -15.1132   14.8665    0.9560 H   0  0  0  0  0  0  0  0  0  0  0  0
  -15.2947   14.9008   -0.8611 H   0  0  0  0  0  0  0  0  0  0  0  0
  -14.6433   16.7760   -0.8528 H   0  0  0  0  0  0  0  0  0  0  0  0
  -14.8421   16.8005    0.9625 H   0  0  0  0  0  0  0  0  0  0  0  0
  -15.1933   18.4745   -0.0527 H   0  0  0  0  0  0  0  0  0  0  0  0
  -16.4942   17.5661   -1.0300 H   0  0  0  0  0  0  0  0  0  0  0  0
  -16.7103   19.3184    1.0857 H   0  0  0  0  0  0  0  0  0  0  0  0
  -17.8829   18.6569   -0.0067 H   0  0  0  0  0  0  0  0  0  0  0  0
  -17.6100   20.6133   -1.4915 H   0  0  0  0  0  0  0  0  0  0  0  0
  -16.4735   21.2935   -0.2928 H   0  0  0  0  0  0  0  0  0  0  0  0
  -19.5583   20.7636    0.2060 H   0  0  0  0  0  0  0  0  0  0  0  0
  -18.4466   21.3768    1.4626 H   0  0  0  0  0  0  0  0  0  0  0  0
  -18.0362   23.2991    0.2200 H   0  0  0  0  0  0  0  0  0  0  0  0
  -19.1921   22.7820   -1.0940 H   0  0  0  0  0  0  0  0  0  0  0  0
  -18.9907   24.8118   -0.5223 H   0  0  0  0  0  0  0  0  0  0  0  0
  -19.6480   24.3870    1.0976 H   0  0  0  0  0  0  0  0  0  0  0  0
  -20.5912   25.6848   -1.1304 H   0  0  0  0  0  0  0  0  0  0  0  0
  -20.5035   27.5354   -0.3343 H   0  0  0  0  0  0  0  0  0  0  0  0
  -21.3480   27.0041    1.1113 H   0  0  0  0  0  0  0  0  0  0  0  0
  -21.8831   27.8046    0.0000 H   0  0  0  0  0  0  0  0  0  0  0  0
  -22.8053   25.4480    0.3703 H   0  0  0  0  0  0  0  0  0  0  0  0
  -21.7928   24.5209    1.0919 H   0  0  0  0  0  0  0  0  0  0  0  0
  -23.4811   24.2853   -1.0764 H   0  0  0  0  0  0  0  0  0  0  0  0
  -22.7460   23.0549   -0.0336 H   0  0  0  0  0  0  0  0  0  0  0  0
  -24.1229   23.5438    0.0000 H   0  0  0  0  0  0  0  0  0  0  0  0
  1  2  1  0  0  0  0
  1 66  1  0  0  0  0
  1 67  1  0  0  0  0
  1 68  1  0  0  0  0
  2  3  1  0  0  0  0
  2 69  1  0  0  0  0
  2 70  1  0  0  0  0
  3  4  1  0  0  0  0
  3 71  1  0  0  0  0
  3 72  1  0  0  0  0
  4  5  1  0  0  0  0
  4 73  1  0  0  0  0
  4 74  1  0  0  0  0
  5  6  1  0  0  0  0
  5 75  1  0  0  0  0
  5 76  1  0  0  0  0
  6  7  1  0  0  0  0
  6 77  1  0  0  0  0
  6 78  1  0  0  0  0
  7  8  1  0  0  0  0
  7 79  1  0  0  0  0
  7 80  1  0  0  0  0
  8  9  1  0  0  0  0
  8 81  1  0  0  0  0
  8 82  1  0  0  0  0
  9 10  1  0  0  0  0
  9 83  1  0  0  0  0
  9 84  1  0  0  0  0
 10 11  1  0  0  0  0
 10 85  1  0  0  0  0
 10 86  1  0  0  0  0
 11 12  1  0  0  0  0
 11 87  1  0  0  0  0
 11 88  1  0  0  0  0
 12 13  1  0  0  0  0
 12 89  1  0  0  0  0
 12 90  1  0  0  0  0
 13 14  1  0  0  0  0
 13 91  1  0  0  0  0
 13 92  1  0  0  0  0
 14 15  2  0  0  0  0
 14 16  1  0  0  0  0
 16 17  1  0  0  0  0
 17 93  1  0  0  0  0
 17 94  1  0  0  0  0
 18 17  1  0  0  0  0
 18 19  1  0  0  0  0
 18 39  1  0  0  0  0
 18 95  1  6  0  0  0
 19 20  1  0  0  0  0
 19 96  1  0  0  0  0
 19 97  1  0  0  0  0
 20 21  1  0  0  0  0
 21 22  2  0  0  0  0
 21 23  1  0  0  0  0
 23 24  1  0  0  0  0
 23 98  1  0  0  0  0
 23 99  1  0  0  0  0
 24 25  1  0  0  0  0
 24100  1  0  0  0  0
 24101  1  0  0  0  0
 25 26  1  0  0  0  0
 25102  1  0  0  0  0
 25103  1  0  0  0  0
 26 27  1  0  0  0  0
 26104  1  0  0  0  0
 26105  1  0  0  0  0
 27 28  1  0  0  0  0
 27106  1  0  0  0  0
 27107  1  0  0  0  0
 28 29  1  0  0  0  0
 28108  1  0  0  0  0
 28109  1  0  0  0  0
 29 30  1  0  0  0  0
 29110  1  0  0  0  0
 29111  1  0  0  0  0
 30 31  1  0  0  0  0
 30112  1  0  0  0  0
 30113  1  0  0  0  0
 31 32  1  0  0  0  0
 32 33  1  0  0  0  0
 32114  1  0  0  0  0
 32115  1  0  0  0  0
 33 34  1  0  0  0  0
 33116  1  0  0  0  0
 33117  1  0  0  0  0
 34 35  1  0  0  0  0
 35 36  1  0  0  0  0
 35 37  1  0  0  0  0
 35118  1  0  0  0  0
 36119  1  0  0  0  0
 36120  1  0  0  0  0
 36121  1  0  0  0  0
 37 38  1  0  0  0  0
 37122  1  0  0  0  0
 37123  1  0  0  0  0
 38124  1  0  0  0  0
 38125  1  0  0  0  0
 38126  1  0  0  0  0
 39 40  1  0  0  0  0
 40 41  2  0  0  0  0
 40 42  1  0  0  0  0
 42 43  1  0  0  0  0
 42127  1  0  0  0  0
 42128  1  0  0  0  0
 43 44  1  0  0  0  0
 43129  1  0  0  0  0
 43130  1  0  0  0  0
 44 45  1  0  0  0  0
 44131  1  0  0  0  0
 44132  1  0  0  0  0
 45 46  1  0  0  0  0
 45133  1  0  0  0  0
 45134  1  0  0  0  0
 46 47  1  0  0  0  0
 46135  1  0  0  0  0
 46136  1  0  0  0  0
 47 48  1  0  0  0  0
 47137  1  0  0  0  0
 47138  1  0  0  0  0
 48 49  1  0  0  0  0
 48139  1  0  0  0  0
 48140  1  0  0  0  0
 49 50  1  0  0  0  0
 49141  1  0  0  0  0
 49142  1  0  0  0  0
 50 51  1  0  0  0  0
 50143  1  0  0  0  0
 50144  1  0  0  0  0
 51 52  1  0  0  0  0
 51145  1  0  0  0  0
 51146  1  0  0  0  0
 52 53  1  0  0  0  0
 52147  1  0  0  0  0
 52148  1  0  0  0  0
 53 54  1  0  0  0  0
 53149  1  0  0  0  0
 53150  1  0  0  0  0
 54 55  1  0  0  0  0
 54151  1  0  0  0  0
 54152  1  0  0  0  0
 55 56  1  0  0  0  0
 55153  1  0  0  0  0
 55154  1  0  0  0  0
 56 57  1  0  0  0  0
 56155  1  0  0  0  0
 56156  1  0  0  0  0
 57 58  1  0  0  0  0
 57157  1  0  0  0  0
 57158  1  0  0  0  0
 58 59  1  0  0  0  0
 58159  1  0  0  0  0
 58160  1  0  0  0  0
 59 60  1  0  0  0  0
 59161  1  0  0  0  0
 59162  1  0  0  0  0
 60 61  1  0  0  0  0
 60163  1  0  0  0  0
 60164  1  0  0  0  0
 61 62  1  0  0  0  0
 61165  1  0  0  0  0
 61166  1  0  0  0  0
 62 63  1  0  0  0  0
 62 64  1  0  0  0  0
 62167  1  0  0  0  0
 63168  1  0  0  0  0
 63169  1  0  0  0  0
 63170  1  0  0  0  0
 64 65  1  0  0  0  0
 64171  1  0  0  0  0
 64172  1  0  0  0  0
 65173  1  0  0  0  0
 65174  1  0  0  0  0
 65175  1  0  0  0  0
M  END
>  <IDENTIFIER>
CNP0486160.2

>  <Energy>
14816.1

$$$$
