
 OpenBabel09062506033D

 49 52  0  0  0  0  0  0  0  0999 V2000
   -4.5576    3.8105    0.3959 C   0  0  0  0  0  0  0  0  0  0  0  0
   -4.1976    2.6969   -0.3364 O   0  0  0  0  0  0  0  0  0  0  0  0
   -2.9544    2.1549   -0.3000 C   0  0  0  0  0  0  0  0  0  0  0  0
   -2.8082    0.8626    0.2303 C   0  0  0  0  0  0  0  0  0  0  0  0
   -3.9042    0.2156    0.6832 O   0  0  0  0  0  0  0  0  0  0  0  0
   -1.5274    0.2650    0.3250 C   0  0  0  0  0  0  0  0  0  0  0  0
   -1.2986   -1.1276    0.9552 C   0  0  1  0  0  0  0  0  0  0  0  0
   -2.5072   -2.0321    1.2161 C   0  0  0  0  0  0  0  0  0  0  0  0
   -1.9005   -3.4233    1.3893 C   0  0  0  0  0  0  0  0  0  0  0  0
   -0.4310   -3.2411    0.9993 C   0  0  0  0  0  0  0  0  0  0  0  0
   -0.3417   -1.9928    0.2298 N   0  0  0  0  0  0  0  0  0  0  0  0
   -0.6503   -2.2205   -1.1937 C   0  0  0  0  0  0  0  0  0  0  0  0
   -0.4034    0.9953   -0.1325 C   0  0  0  0  0  0  0  0  0  0  0  0
    0.7998    0.4295   -0.0477 O   0  0  0  0  0  0  0  0  0  0  0  0
    1.9255    0.9798   -0.4880 C   0  0  0  0  0  0  0  0  0  0  0  0
    3.1955    0.1995   -0.3590 C   0  0  0  0  0  0  0  0  0  0  0  0
    4.4290    0.6519   -0.8806 C   0  0  0  0  0  0  0  0  0  0  0  0
    5.5867   -0.1207   -0.7476 C   0  0  0  0  0  0  0  0  0  0  0  0
    5.5412   -1.3565   -0.0923 C   0  0  0  0  0  0  0  0  0  0  0  0
    6.6516   -2.1099    0.0404 O   0  0  0  0  0  0  0  0  0  0  0  0
    4.3305   -1.8153    0.4290 C   0  0  0  0  0  0  0  0  0  0  0  0
    3.1699   -1.0484    0.2969 C   0  0  0  0  0  0  0  0  0  0  0  0
    1.8680    2.2528   -1.0704 C   0  0  0  0  0  0  0  0  0  0  0  0
    0.6441    2.9092   -1.1751 C   0  0  0  0  0  0  0  0  0  0  0  0
    0.6407    4.0122   -1.6876 O   0  0  0  0  0  0  0  0  0  0  0  0
   -0.5434    2.2885   -0.7059 C   0  0  0  0  0  0  0  0  0  0  0  0
   -1.8449    2.8703   -0.7807 C   0  0  0  0  0  0  0  0  0  0  0  0
   -2.0950    4.0913   -1.3105 O   0  0  0  0  0  0  0  0  0  0  0  0
   -5.6187    4.0548    0.1880 H   0  0  0  0  0  0  0  0  0  0  0  0
   -3.9362    4.6923    0.1442 H   0  0  0  0  0  0  0  0  0  0  0  0
   -4.4535    3.5901    1.4808 H   0  0  0  0  0  0  0  0  0  0  0  0
   -4.7986    0.5828    0.6545 H   0  0  0  0  0  0  0  0  0  0  0  0
   -0.8259   -0.9144    1.9432 H   0  0  0  0  0  0  0  0  0  0  0  0
   -3.0918   -2.0649    0.2692 H   0  0  0  0  0  0  0  0  0  0  0  0
   -3.1873   -1.7255    2.0385 H   0  0  0  0  0  0  0  0  0  0  0  0
   -2.4177   -4.1135    0.6855 H   0  0  0  0  0  0  0  0  0  0  0  0
   -1.9745   -3.8278    2.4216 H   0  0  0  0  0  0  0  0  0  0  0  0
    0.0272   -4.1306    0.5156 H   0  0  0  0  0  0  0  0  0  0  0  0
    0.1403   -3.0679    1.9416 H   0  0  0  0  0  0  0  0  0  0  0  0
    0.1355   -2.8718   -1.6335 H   0  0  0  0  0  0  0  0  0  0  0  0
   -0.6246   -1.2641   -1.7538 H   0  0  0  0  0  0  0  0  0  0  0  0
   -1.6340   -2.7092   -1.3448 H   0  0  0  0  0  0  0  0  0  0  0  0
    4.5240    1.5912   -1.4005 H   0  0  0  0  0  0  0  0  0  0  0  0
    6.5203    0.2435   -1.1584 H   0  0  0  0  0  0  0  0  0  0  0  0
    7.5089   -1.8277   -0.3093 H   0  0  0  0  0  0  0  0  0  0  0  0
    4.2865   -2.7704    0.9372 H   0  0  0  0  0  0  0  0  0  0  0  0
    2.2517   -1.4384    0.7136 H   0  0  0  0  0  0  0  0  0  0  0  0
    2.7481    2.7497   -1.4465 H   0  0  0  0  0  0  0  0  0  0  0  0
   -1.4665    4.7127   -1.6858 H   0  0  0  0  0  0  0  0  0  0  0  0
  1  2  1  0  0  0  0
  1 29  1  0  0  0  0
  1 30  1  0  0  0  0
  1 31  1  0  0  0  0
  2  3  1  0  0  0  0
  3  4  2  0  0  0  0
  4  5  1  0  0  0  0
  4  6  1  0  0  0  0
  5 32  1  0  0  0  0
  6 13  2  0  0  0  0
  7  6  1  0  0  0  0
  7  8  1  0  0  0  0
  7 33  1  1  0  0  0
  8  9  1  0  0  0  0
  8 34  1  0  0  0  0
  8 35  1  0  0  0  0
  9 10  1  0  0  0  0
  9 36  1  0  0  0  0
  9 37  1  0  0  0  0
 10 11  1  0  0  0  0
 10 38  1  0  0  0  0
 10 39  1  0  0  0  0
 11 12  1  0  0  0  0
 11  7  1  0  0  0  0
 12 40  1  0  0  0  0
 12 41  1  0  0  0  0
 12 42  1  0  0  0  0
 13 14  1  0  0  0  0
 14 15  1  0  0  0  0
 15 16  1  0  0  0  0
 15 23  2  0  0  0  0
 16 17  2  0  0  0  0
 17 18  1  0  0  0  0
 17 43  1  0  0  0  0
 18 19  2  0  0  0  0
 18 44  1  0  0  0  0
 19 20  1  0  0  0  0
 19 21  1  0  0  0  0
 20 45  1  0  0  0  0
 21 22  2  0  0  0  0
 21 46  1  0  0  0  0
 22 16  1  0  0  0  0
 22 47  1  0  0  0  0
 23 24  1  0  0  0  0
 23 48  1  0  0  0  0
 24 25  2  0  0  0  0
 24 26  1  0  0  0  0
 26 27  2  0  0  0  0
 26 13  1  0  0  0  0
 27 28  1  0  0  0  0
 27  3  1  0  0  0  0
 28 49  1  0  0  0  0
M  END
>  <IDENTIFIER>
CNP0303717.2

>  <Energy>
587.311

$$$$
