
 OpenBabel09072503162D

 82 87  0  0  0  0  0  0  0  0999 V2000
   -2.1957    8.6675   -0.4479 C   0  0  0  0  0  0  0  0  0  0  0  0
   -2.1423    7.3057   -0.2197 O   0  0  0  0  0  0  0  0  0  0  0  0
   -1.0559    6.5087   -0.4066 C   0  0  0  0  0  0  0  0  0  0  0  0
    0.1600    6.9963   -0.9144 C   0  0  0  0  0  0  0  0  0  0  0  0
    1.2449    6.1351   -1.0788 C   0  0  0  0  0  0  0  0  0  0  0  0
    1.1409    4.7821   -0.7389 C   0  0  0  0  0  0  0  0  0  0  0  0
   -0.0674    4.2628   -0.2216 C   0  0  0  0  0  0  0  0  0  0  0  0
   -0.2467    2.8965    0.2013 N   0  0  0  0  0  0  0  0  0  0  0  0
    0.6485    1.8561    0.1427 C   0  0  0  0  0  0  0  0  0  0  0  0
    1.7445    1.9783   -0.3777 O   0  0  0  0  0  0  0  0  0  0  0  0
    0.2870    0.5444    0.8166 C   0  0  1  0  0  0  0  0  0  0  0  0
    1.3015   -0.6662    0.7869 C   0  0  1  0  0  0  0  0  0  0  0  0
    0.9948   -1.3953    2.0502 C   0  0  0  0  0  0  0  0  0  0  0  0
   -0.2332   -1.9375    1.8232 C   0  0  0  0  0  0  0  0  0  0  0  0
   -0.5031   -1.6222    0.3577 C   0  0  1  0  0  0  0  0  0  0  0  0
    0.7960   -1.5996   -0.1832 O   0  0  0  0  0  0  0  0  0  0  0  0
   -0.8632   -0.1782    0.1521 C   0  0  1  0  0  0  0  0  0  0  0  0
   -2.2681   -0.1920    0.5338 C   0  0  0  0  0  0  0  0  0  0  0  0
   -2.9053    0.8317    0.7349 O   0  0  0  0  0  0  0  0  0  0  0  0
   -2.8418   -1.4073    0.2547 N   0  0  0  0  0  0  0  0  0  0  0  0
   -4.2811   -1.3069   -0.0738 C   0  0  0  0  0  0  0  0  0  0  0  0
   -5.0307   -2.5975   -0.1127 C   0  0  0  0  0  0  0  0  0  0  0  0
   -6.4828   -2.4594   -0.4324 N   0  0  0  0  0  0  0  0  0  0  0  0
   -7.2530   -1.9101    0.7143 C   0  0  0  0  0  0  0  0  0  0  0  0
   -8.7503   -1.7975    0.3760 C   0  0  0  0  0  0  0  0  0  0  0  0
   -9.3103   -3.1661   -0.0068 C   0  0  0  0  0  0  0  0  0  0  0  0
   -8.5108   -3.7145   -1.1852 C   0  0  0  0  0  0  0  0  0  0  0  0
   -7.0295   -3.7916   -0.8020 C   0  0  0  0  0  0  0  0  0  0  0  0
   -1.7599   -2.3451   -0.2416 C   0  0  2  0  0  0  0  0  0  0  0  0
   -1.7852   -3.9004    0.1179 C   0  0  0  0  0  0  0  0  0  0  0  0
   -1.7504   -4.2459    1.2879 O   0  0  0  0  0  0  0  0  0  0  0  0
   -1.8510   -4.8770   -0.8706 N   0  0  0  0  0  0  0  0  0  0  0  0
   -2.0236   -6.3919   -0.7978 C   0  0  2  0  0  0  0  0  0  0  0  0
   -0.7918   -7.2091   -0.4201 C   0  0  0  0  0  0  0  0  0  0  0  0
   -1.0626   -8.6860   -0.8288 C   0  0  0  0  0  0  0  0  0  0  0  0
   -2.3726   -9.2648   -0.2261 C   0  0  0  0  0  0  0  0  0  0  0  0
   -3.6180   -8.3856   -0.5320 C   0  0  0  0  0  0  0  0  0  0  0  0
   -3.2945   -6.9967    0.0000 C   0  0  1  0  0  0  0  0  0  0  0  0
   -4.1762   -5.7832    0.0000 C   0  0  0  0  0  0  0  0  0  0  0  0
   -1.1559    5.1511   -0.0677 C   0  0  0  0  0  0  0  0  0  0  0  0
   -1.4681    9.1947    0.2058 H   0  0  0  0  0  0  0  0  0  0  0  0
   -3.2143    9.0378   -0.2090 H   0  0  0  0  0  0  0  0  0  0  0  0
   -1.9809    8.8917   -1.5145 H   0  0  0  0  0  0  0  0  0  0  0  0
    0.2787    8.0381   -1.1816 H   0  0  0  0  0  0  0  0  0  0  0  0
    2.1791    6.5228   -1.4650 H   0  0  0  0  0  0  0  0  0  0  0  0
    2.0225    4.1838   -0.8773 H   0  0  0  0  0  0  0  0  0  0  0  0
   -1.1489    2.6887    0.6535 H   0  0  0  0  0  0  0  0  0  0  0  0
    0.0680    0.8181    1.8775 H   0  0  0  0  0  0  0  0  0  0  0  0
    2.3730   -0.3839    0.7279 H   0  0  0  0  0  0  0  0  0  0  0  0
    1.5902   -1.4816    2.9484 H   0  0  0  0  0  0  0  0  0  0  0  0
   -0.7730   -2.5441    2.5324 H   0  0  0  0  0  0  0  0  0  0  0  0
   -0.8268    0.0160   -0.9507 H   0  0  0  0  0  0  0  0  0  0  0  0
   -4.3942   -0.8046   -1.0615 H   0  0  0  0  0  0  0  0  0  0  0  0
   -4.7740   -0.6710    0.6890 H   0  0  0  0  0  0  0  0  0  0  0  0
   -4.8980   -3.0638    0.8895 H   0  0  0  0  0  0  0  0  0  0  0  0
   -4.5246   -3.1336   -0.9449 H   0  0  0  0  0  0  0  0  0  0  0  0
   -7.1298   -2.5586    1.6120 H   0  0  0  0  0  0  0  0  0  0  0  0
   -6.9066   -0.8896    0.9687 H   0  0  0  0  0  0  0  0  0  0  0  0
   -9.3086   -1.4007    1.2514 H   0  0  0  0  0  0  0  0  0  0  0  0
   -8.8851   -1.0949   -0.4751 H   0  0  0  0  0  0  0  0  0  0  0  0
  -10.3843   -3.0828   -0.2802 H   0  0  0  0  0  0  0  0  0  0  0  0
   -9.2263   -3.8611    0.8591 H   0  0  0  0  0  0  0  0  0  0  0  0
   -8.8855   -4.7283   -1.4480 H   0  0  0  0  0  0  0  0  0  0  0  0
   -8.6344   -3.0533   -2.0700 H   0  0  0  0  0  0  0  0  0  0  0  0
   -6.4765   -4.2044   -1.6744 H   0  0  0  0  0  0  0  0  0  0  0  0
   -6.9411   -4.5016    0.0518 H   0  0  0  0  0  0  0  0  0  0  0  0
   -1.7417   -2.2362   -1.3498 H   0  0  0  0  0  0  0  0  0  0  0  0
   -1.8849   -4.5009   -1.8307 H   0  0  0  0  0  0  0  0  0  0  0  0
   -2.2074   -6.6408   -1.8712 H   0  0  0  0  0  0  0  0  0  0  0  0
    0.0985   -6.8437   -0.9758 H   0  0  0  0  0  0  0  0  0  0  0  0
   -0.5952   -7.1160    0.6699 H   0  0  0  0  0  0  0  0  0  0  0  0
   -1.1485   -8.7331   -1.9369 H   0  0  0  0  0  0  0  0  0  0  0  0
   -0.1988   -9.3187   -0.5330 H   0  0  0  0  0  0  0  0  0  0  0  0
   -2.5359  -10.2943   -0.6099 H   0  0  0  0  0  0  0  0  0  0  0  0
   -2.2440   -9.3334    0.8769 H   0  0  0  0  0  0  0  0  0  0  0  0
   -4.5066   -8.8028   -0.0125 H   0  0  0  0  0  0  0  0  0  0  0  0
   -3.8230   -8.3497   -1.6237 H   0  0  0  0  0  0  0  0  0  0  0  0
   -3.0346   -7.1243    1.0801 H   0  0  0  0  0  0  0  0  0  0  0  0
   -3.7304   -5.1726    0.7847 H   0  0  0  0  0  0  0  0  0  0  0  0
   -4.2607   -5.5852   -1.0947 H   0  0  0  0  0  0  0  0  0  0  0  0
   -4.8051   -4.9176    0.0000 H   0  0  0  0  0  0  0  0  0  0  0  0
   -2.0956    4.7884    0.3320 H   0  0  0  0  0  0  0  0  0  0  0  0
  1  2  1  0  0  0  0
  1 41  1  0  0  0  0
  1 42  1  0  0  0  0
  1 43  1  0  0  0  0
  2  3  1  0  0  0  0
  3  4  2  0  0  0  0
  4  5  1  0  0  0  0
  4 44  1  0  0  0  0
  5  6  2  0  0  0  0
  5 45  1  0  0  0  0
  6  7  1  0  0  0  0
  6 46  1  0  0  0  0
  7  8  1  0  0  0  0
  7 40  2  0  0  0  0
  8  9  1  0  0  0  0
  8 47  1  0  0  0  0
  9 10  2  0  0  0  0
 11  9  1  0  0  0  0
 11 12  1  0  0  0  0
 11 48  1  6  0  0  0
 12 13  1  0  0  0  0
 12 49  1  6  0  0  0
 13 14  2  0  0  0  0
 13 50  1  0  0  0  0
 14 51  1  0  0  0  0
 15 14  1  6  0  0  0
 15 16  1  0  0  0  0
 15 17  1  0  0  0  0
 16 12  1  0  0  0  0
 17 18  1  0  0  0  0
 17 11  1  0  0  0  0
 17 52  1  6  0  0  0
 18 19  2  0  0  0  0
 18 20  1  0  0  0  0
 20 21  1  0  0  0  0
 20 29  1  0  0  0  0
 21 22  1  0  0  0  0
 21 53  1  0  0  0  0
 21 54  1  0  0  0  0
 22 23  1  0  0  0  0
 22 55  1  0  0  0  0
 22 56  1  0  0  0  0
 23 24  1  0  0  0  0
 24 25  1  0  0  0  0
 24 57  1  0  0  0  0
 24 58  1  0  0  0  0
 25 26  1  0  0  0  0
 25 59  1  0  0  0  0
 25 60  1  0  0  0  0
 26 27  1  0  0  0  0
 26 61  1  0  0  0  0
 26 62  1  0  0  0  0
 27 28  1  0  0  0  0
 27 63  1  0  0  0  0
 27 64  1  0  0  0  0
 28 23  1  0  0  0  0
 28 65  1  0  0  0  0
 28 66  1  0  0  0  0
 29 30  1  0  0  0  0
 29 15  1  0  0  0  0
 29 67  1  6  0  0  0
 30 31  2  0  0  0  0
 30 32  1  0  0  0  0
 32 68  1  0  0  0  0
 33 32  1  0  0  0  0
 33 34  1  0  0  0  0
 33 69  1  1  0  0  0
 34 35  1  0  0  0  0
 34 70  1  0  0  0  0
 34 71  1  0  0  0  0
 35 36  1  0  0  0  0
 35 72  1  0  0  0  0
 35 73  1  0  0  0  0
 36 37  1  0  0  0  0
 36 74  1  0  0  0  0
 36 75  1  0  0  0  0
 37 38  1  0  0  0  0
 37 76  1  0  0  0  0
 37 77  1  0  0  0  0
 38 39  1  0  0  0  0
 38 33  1  0  0  0  0
 38 78  1  6  0  0  0
 39 79  1  0  0  0  0
 39 80  1  0  0  0  0
 39 81  1  0  0  0  0
 40  3  1  0  0  0  0
 40 82  1  0  0  0  0
M  END
>  <IDENTIFIER>
CNP0487213.2

>  <Energy>
1712.66

$$$$
