
 OpenBabel09072520013D

 55 57  0  0  0  0  0  0  0  0999 V2000
    7.7485    1.6463    0.3925 C   0  0  0  0  0  0  0  0  0  0  0  0
    7.6716    0.7228   -0.6314 O   0  0  0  0  0  0  0  0  0  0  0  0
    6.5408    0.1065   -1.0726 C   0  0  0  0  0  0  0  0  0  0  0  0
    5.2746    0.3484   -0.4992 C   0  0  0  0  0  0  0  0  0  0  0  0
    4.1122   -0.3025   -0.9825 C   0  0  0  0  0  0  0  0  0  0  0  0
    2.7431   -0.0750   -0.4087 C   0  0  0  0  0  0  0  0  0  0  0  0
    2.5069    0.7343    0.6397 C   0  0  0  0  0  0  0  0  0  0  0  0
    1.1803    1.0063    1.2336 C   0  0  0  0  0  0  0  0  0  0  0  0
    1.1574    1.7729    2.1875 O   0  0  0  0  0  0  0  0  0  0  0  0
    0.0162    0.4577    0.7629 O   0  0  0  0  0  0  0  0  0  0  0  0
   -1.2359    0.8604    1.2354 C   0  0  2  0  0  0  0  0  0  0  0  0
   -1.9966   -0.2862    1.8870 C   0  0  0  0  0  0  0  0  0  0  0  0
   -2.6323   -1.0863    0.7254 C   0  0  2  0  0  0  0  0  0  0  0  0
   -2.6081   -0.1142   -0.4846 C   0  0  1  0  0  0  0  0  0  0  0  0
   -3.9502   -0.0799   -1.2465 C   0  0  0  0  0  0  0  0  0  0  0  0
   -5.0778    0.2667   -0.3435 N   0  0  0  0  0  0  0  0  0  0  0  0
   -6.3621    0.1186   -1.0460 C   0  0  0  0  0  0  0  0  0  0  0  0
   -5.0880   -0.4519    0.9649 C   0  0  0  0  0  0  0  0  0  0  0  0
   -4.0689   -1.6148    1.0235 C   0  0  2  0  0  0  0  0  0  0  0  0
   -4.1571   -2.3866    2.3464 C   0  0  0  0  0  0  0  0  0  0  0  0
   -2.1970    1.2437    0.1097 C   0  0  2  0  0  0  0  0  0  0  0  0
   -1.6187    2.2349   -0.9042 C   0  0  0  0  0  0  0  0  0  0  0  0
    4.2518   -1.1981   -2.0550 C   0  0  0  0  0  0  0  0  0  0  0  0
    5.5057   -1.4433   -2.6249 C   0  0  0  0  0  0  0  0  0  0  0  0
    6.6461   -0.7948   -2.1393 C   0  0  0  0  0  0  0  0  0  0  0  0
    7.8575   -1.0291   -2.6922 O   0  0  0  0  0  0  0  0  0  0  0  0
    8.8041    1.9672    0.5140 H   0  0  0  0  0  0  0  0  0  0  0  0
    7.4058    1.1937    1.3469 H   0  0  0  0  0  0  0  0  0  0  0  0
    7.1351    2.5406    0.1509 H   0  0  0  0  0  0  0  0  0  0  0  0
    5.2186    1.0467    0.3160 H   0  0  0  0  0  0  0  0  0  0  0  0
    1.9019   -0.5902   -0.8654 H   0  0  0  0  0  0  0  0  0  0  0  0
    3.3190    1.2576    1.1211 H   0  0  0  0  0  0  0  0  0  0  0  0
   -1.1349    1.7040    1.9534 H   0  0  0  0  0  0  0  0  0  0  0  0
   -2.8063    0.2162    2.4546 H   0  0  0  0  0  0  0  0  0  0  0  0
   -1.4318   -0.8960    2.6239 H   0  0  0  0  0  0  0  0  0  0  0  0
   -1.9678   -1.9481    0.4897 H   0  0  0  0  0  0  0  0  0  0  0  0
   -1.7856   -0.4420   -1.1611 H   0  0  0  0  0  0  0  0  0  0  0  0
   -4.1206   -1.0805   -1.7038 H   0  0  0  0  0  0  0  0  0  0  0  0
   -3.8930    0.6546   -2.0784 H   0  0  0  0  0  0  0  0  0  0  0  0
   -6.3599    0.7016   -1.9916 H   0  0  0  0  0  0  0  0  0  0  0  0
   -7.1886    0.5131   -0.4157 H   0  0  0  0  0  0  0  0  0  0  0  0
   -6.5635   -0.9515   -1.2761 H   0  0  0  0  0  0  0  0  0  0  0  0
   -6.1017   -0.8472    1.2048 H   0  0  0  0  0  0  0  0  0  0  0  0
   -4.8743    0.2896    1.7609 H   0  0  0  0  0  0  0  0  0  0  0  0
   -4.3548   -2.3262    0.2171 H   0  0  0  0  0  0  0  0  0  0  0  0
   -3.9165   -1.7364    3.2130 H   0  0  0  0  0  0  0  0  0  0  0  0
   -3.4554   -3.2465    2.3321 H   0  0  0  0  0  0  0  0  0  0  0  0
   -5.1876   -2.7780    2.4873 H   0  0  0  0  0  0  0  0  0  0  0  0
   -3.0876    1.7072    0.5941 H   0  0  0  0  0  0  0  0  0  0  0  0
   -0.7282    1.8037   -1.4097 H   0  0  0  0  0  0  0  0  0  0  0  0
   -1.3187    3.1699   -0.3865 H   0  0  0  0  0  0  0  0  0  0  0  0
   -2.3785    2.4848   -1.6730 H   0  0  0  0  0  0  0  0  0  0  0  0
    3.3863   -1.7139   -2.4536 H   0  0  0  0  0  0  0  0  0  0  0  0
    5.5867   -2.1387   -3.4513 H   0  0  0  0  0  0  0  0  0  0  0  0
    7.9766   -1.6427   -3.4313 H   0  0  0  0  0  0  0  0  0  0  0  0
  1  2  1  0  0  0  0
  1 27  1  0  0  0  0
  1 28  1  0  0  0  0
  1 29  1  0  0  0  0
  2  3  1  0  0  0  0
  3  4  2  0  0  0  0
  4  5  1  0  0  0  0
  4 30  1  0  0  0  0
  5  6  1  0  0  0  0
  5 23  2  0  0  0  0
  6  7  2  0  0  0  0
  6 31  1  0  0  0  0
  7  8  1  0  0  0  0
  7 32  1  0  0  0  0
  8  9  2  0  0  0  0
  8 10  1  0  0  0  0
 11 10  1  0  0  0  0
 11 12  1  0  0  0  0
 11 33  1  1  0  0  0
 12 34  1  0  0  0  0
 12 35  1  0  0  0  0
 13 12  1  0  0  0  0
 13 14  1  0  0  0  0
 13 36  1  6  0  0  0
 14 15  1  0  0  0  0
 14 21  1  0  0  0  0
 14 37  1  6  0  0  0
 15 16  1  0  0  0  0
 15 38  1  0  0  0  0
 15 39  1  0  0  0  0
 16 17  1  0  0  0  0
 16 18  1  0  0  0  0
 17 40  1  0  0  0  0
 17 41  1  0  0  0  0
 17 42  1  0  0  0  0
 18 19  1  0  0  0  0
 18 43  1  0  0  0  0
 18 44  1  0  0  0  0
 19 20  1  0  0  0  0
 19 13  1  0  0  0  0
 19 45  1  6  0  0  0
 20 46  1  0  0  0  0
 20 47  1  0  0  0  0
 20 48  1  0  0  0  0
 21 22  1  0  0  0  0
 21 11  1  0  0  0  0
 21 49  1  1  0  0  0
 22 50  1  0  0  0  0
 22 51  1  0  0  0  0
 22 52  1  0  0  0  0
 23 24  1  0  0  0  0
 23 53  1  0  0  0  0
 24 25  2  0  0  0  0
 24 54  1  0  0  0  0
 25 26  1  0  0  0  0
 25  3  1  0  0  0  0
 26 55  1  0  0  0  0
M  END
>  <IDENTIFIER>
CNP0194773.2

>  <Energy>
496.716

$$$$
