
 OpenBabel09072500423D

 78 82  0  0  0  0  0  0  0  0999 V2000
    5.6180    2.4813    1.4903 C   0  0  0  0  0  0  0  0  0  0  0  0
    6.5224    1.2695    1.4097 C   0  0  0  0  0  0  0  0  0  0  0  0
    7.8671    1.3064    2.0863 C   0  0  0  0  0  0  0  0  0  0  0  0
    6.1671    0.1581    0.7240 C   0  0  0  0  0  0  0  0  0  0  0  0
    4.8592    0.0344   -0.0194 C   0  0  1  0  0  0  0  0  0  0  0  0
    4.7918   -1.2633   -0.8673 C   0  0  0  0  0  0  0  0  0  0  0  0
    3.4537   -1.3105   -1.6589 C   0  0  1  0  0  0  0  0  0  0  0  0
    3.3617   -2.6174   -2.4522 C   0  0  0  0  0  0  0  0  0  0  0  0
    2.3201   -1.1425   -0.6231 C   0  0  1  0  0  0  0  0  0  0  0  0
    2.5743    0.1646    0.1548 C   0  0  1  0  0  0  0  0  0  0  0  0
    1.2670    0.4602    0.9393 C   0  0  0  0  0  0  0  0  0  0  0  0
    0.2585   -0.6314    0.4661 C   0  0  1  0  0  0  0  0  0  0  0  0
    0.3074   -1.7614    1.5566 C   0  0  0  0  0  0  0  0  0  0  0  0
   -1.2246   -0.2836    0.3904 C   0  0  0  0  0  0  0  0  0  0  0  0
   -2.0307   -0.8581   -0.5672 C   0  0  0  0  0  0  0  0  0  0  0  0
   -1.4635   -1.8838   -1.5848 C   0  0  0  0  0  0  0  0  0  0  0  0
    0.0399   -2.2362   -1.4404 C   0  0  0  0  0  0  0  0  0  0  0  0
    0.8126   -0.9919   -0.9663 C   0  0  2  0  0  0  0  0  0  0  0  0
    0.6194    0.1427   -2.0485 C   0  0  0  0  0  0  0  0  0  0  0  0
   -3.5247   -0.4242   -0.6343 C   0  0  1  0  0  0  0  0  0  0  0  0
   -4.1235   -0.7958   -2.0208 C   0  0  0  0  0  0  0  0  0  0  0  0
   -4.2300   -1.2993    0.4566 C   0  0  0  0  0  0  0  0  0  0  0  0
   -5.6635   -0.8789    0.7593 C   0  0  0  0  0  0  0  0  0  0  0  0
   -5.6287    0.5530    1.1975 C   0  0  0  0  0  0  0  0  0  0  0  0
   -5.9642    0.8443    2.3372 O   0  0  0  0  0  0  0  0  0  0  0  0
   -5.1354    1.6012    0.2151 C   0  0  0  0  0  0  0  0  0  0  0  0
   -6.1833    1.7450   -0.9227 C   0  0  0  0  0  0  0  0  0  0  0  0
   -5.1261    3.0010    0.8966 C   0  0  0  0  0  0  0  0  0  0  0  0
   -3.6962    1.1679   -0.3580 C   0  0  1  0  0  0  0  0  0  0  0  0
   -2.4641    1.7722    0.4153 C   0  0  0  0  0  0  0  0  0  0  0  0
   -1.8035    0.7645    1.3222 C   0  0  0  0  0  0  0  0  0  0  0  0
    3.7688    0.0869    0.9058 O   0  0  0  0  0  0  0  0  0  0  0  0
    6.0834    3.2999    2.0760 H   0  0  0  0  0  0  0  0  0  0  0  0
    4.6614    2.2153    1.9851 H   0  0  0  0  0  0  0  0  0  0  0  0
    5.4118    2.8703    0.4733 H   0  0  0  0  0  0  0  0  0  0  0  0
    8.0421    2.2743    2.5992 H   0  0  0  0  0  0  0  0  0  0  0  0
    8.6689    1.1668    1.3305 H   0  0  0  0  0  0  0  0  0  0  0  0
    7.9316    0.4940    2.8415 H   0  0  0  0  0  0  0  0  0  0  0  0
    6.8668   -0.6736    0.6777 H   0  0  0  0  0  0  0  0  0  0  0  0
    4.8389    0.8982   -0.7257 H   0  0  0  0  0  0  0  0  0  0  0  0
    4.8630   -2.1409   -0.1856 H   0  0  0  0  0  0  0  0  0  0  0  0
    5.6474   -1.2989   -1.5768 H   0  0  0  0  0  0  0  0  0  0  0  0
    3.4365   -0.4599   -2.3757 H   0  0  0  0  0  0  0  0  0  0  0  0
    3.3525   -3.4941   -1.7690 H   0  0  0  0  0  0  0  0  0  0  0  0
    4.2339   -2.7066   -3.1340 H   0  0  0  0  0  0  0  0  0  0  0  0
    2.4558   -2.6298   -3.0835 H   0  0  0  0  0  0  0  0  0  0  0  0
    2.4277   -2.0076    0.0577 H   0  0  0  0  0  0  0  0  0  0  0  0
    2.6733    1.0268   -0.5418 H   0  0  0  0  0  0  0  0  0  0  0  0
    0.9130    1.4598    0.5991 H   0  0  0  0  0  0  0  0  0  0  0  0
    1.3888    0.5205    2.0432 H   0  0  0  0  0  0  0  0  0  0  0  0
   -0.0746   -1.3582    2.5205 H   0  0  0  0  0  0  0  0  0  0  0  0
    1.3150   -2.1504    1.7909 H   0  0  0  0  0  0  0  0  0  0  0  0
   -0.3549   -2.6187    1.3167 H   0  0  0  0  0  0  0  0  0  0  0  0
   -1.5982   -1.4411   -2.5931 H   0  0  0  0  0  0  0  0  0  0  0  0
   -2.0388   -2.8334   -1.5674 H   0  0  0  0  0  0  0  0  0  0  0  0
    0.3978   -2.6489   -2.4020 H   0  0  0  0  0  0  0  0  0  0  0  0
    0.1681   -3.0527   -0.7063 H   0  0  0  0  0  0  0  0  0  0  0  0
    1.0686   -0.1809   -3.0111 H   0  0  0  0  0  0  0  0  0  0  0  0
    1.0492    1.1241   -1.7945 H   0  0  0  0  0  0  0  0  0  0  0  0
   -0.4385    0.3925   -2.2453 H   0  0  0  0  0  0  0  0  0  0  0  0
   -4.0042   -1.8755   -2.2420 H   0  0  0  0  0  0  0  0  0  0  0  0
   -3.6207   -0.2131   -2.8225 H   0  0  0  0  0  0  0  0  0  0  0  0
   -5.1979   -0.6326   -2.1123 H   0  0  0  0  0  0  0  0  0  0  0  0
   -3.6911   -1.2584    1.4205 H   0  0  0  0  0  0  0  0  0  0  0  0
   -4.2103   -2.3704    0.1558 H   0  0  0  0  0  0  0  0  0  0  0  0
   -6.0645   -1.5251    1.5704 H   0  0  0  0  0  0  0  0  0  0  0  0
   -6.3214   -1.0073   -0.1227 H   0  0  0  0  0  0  0  0  0  0  0  0
   -7.1564    2.0910   -0.5098 H   0  0  0  0  0  0  0  0  0  0  0  0
   -6.4301    0.8253   -1.4570 H   0  0  0  0  0  0  0  0  0  0  0  0
   -5.8467    2.4982   -1.6680 H   0  0  0  0  0  0  0  0  0  0  0  0
   -6.1507    3.2987    1.2110 H   0  0  0  0  0  0  0  0  0  0  0  0
   -4.7400    3.7787    0.2027 H   0  0  0  0  0  0  0  0  0  0  0  0
   -4.5292    3.0026    1.8323 H   0  0  0  0  0  0  0  0  0  0  0  0
   -3.5947    1.7259   -1.3165 H   0  0  0  0  0  0  0  0  0  0  0  0
   -2.6528    2.7278    0.9264 H   0  0  0  0  0  0  0  0  0  0  0  0
   -1.6802    2.0551   -0.3288 H   0  0  0  0  0  0  0  0  0  0  0  0
   -2.5346    0.3752    2.0528 H   0  0  0  0  0  0  0  0  0  0  0  0
   -1.0059    1.2470    1.9205 H   0  0  0  0  0  0  0  0  0  0  0  0
  1  2  1  0  0  0  0
  1 33  1  0  0  0  0
  1 34  1  0  0  0  0
  1 35  1  0  0  0  0
  2  3  1  0  0  0  0
  2  4  2  0  0  0  0
  3 36  1  0  0  0  0
  3 37  1  0  0  0  0
  3 38  1  0  0  0  0
  4  5  1  0  0  0  0
  4 39  1  0  0  0  0
  5  6  1  0  0  0  0
  5 40  1  6  0  0  0
  6  7  1  0  0  0  0
  6 41  1  0  0  0  0
  6 42  1  0  0  0  0
  7  8  1  0  0  0  0
  7 43  1  6  0  0  0
  8 44  1  0  0  0  0
  8 45  1  0  0  0  0
  8 46  1  0  0  0  0
  9  7  1  0  0  0  0
  9 10  1  0  0  0  0
  9 47  1  1  0  0  0
 10 11  1  0  0  0  0
 10 32  1  0  0  0  0
 10 48  1  6  0  0  0
 11 12  1  0  0  0  0
 11 49  1  0  0  0  0
 11 50  1  0  0  0  0
 12 13  1  1  0  0  0
 12 14  1  0  0  0  0
 13 51  1  0  0  0  0
 13 52  1  0  0  0  0
 13 53  1  0  0  0  0
 14 15  2  0  0  0  0
 15 16  1  0  0  0  0
 15 20  1  0  0  0  0
 16 17  1  0  0  0  0
 16 54  1  0  0  0  0
 16 55  1  0  0  0  0
 17 18  1  0  0  0  0
 17 56  1  0  0  0  0
 17 57  1  0  0  0  0
 18 19  1  6  0  0  0
 18  9  1  0  0  0  0
 18 12  1  0  0  0  0
 19 58  1  0  0  0  0
 19 59  1  0  0  0  0
 19 60  1  0  0  0  0
 20 21  1  6  0  0  0
 20 22  1  0  0  0  0
 21 61  1  0  0  0  0
 21 62  1  0  0  0  0
 21 63  1  0  0  0  0
 22 23  1  0  0  0  0
 22 64  1  0  0  0  0
 22 65  1  0  0  0  0
 23 24  1  0  0  0  0
 23 66  1  0  0  0  0
 23 67  1  0  0  0  0
 24 25  2  0  0  0  0
 24 26  1  0  0  0  0
 26 27  1  0  0  0  0
 26 28  1  0  0  0  0
 26 29  1  0  0  0  0
 27 68  1  0  0  0  0
 27 69  1  0  0  0  0
 27 70  1  0  0  0  0
 28 71  1  0  0  0  0
 28 72  1  0  0  0  0
 28 73  1  0  0  0  0
 29 30  1  0  0  0  0
 29 20  1  0  0  0  0
 29 74  1  6  0  0  0
 30 31  1  0  0  0  0
 30 75  1  0  0  0  0
 30 76  1  0  0  0  0
 31 14  1  0  0  0  0
 31 77  1  0  0  0  0
 31 78  1  0  0  0  0
 32  5  1  0  0  0  0
M  END
>  <IDENTIFIER>
CNP0167649.1

>  <Energy>
966.191

$$$$
