
 OpenBabel09122509272D

193192  0  0  0  0  0  0  0  0999 V2000
   28.7798   13.1519    0.0000 C   0  0  0  0  0  0  0  0  0  0  0  0
   28.0298   14.4510    0.0000 C   0  0  0  0  0  0  0  0  0  0  0  0
   27.2798   15.7500    0.0000 C   0  0  3  0  0  3  0  0  0  0  0  0
   26.5298   17.0490    0.0000 C   0  0  0  0  0  0  0  0  0  0  0  0
   25.9075   14.6621    0.0259 C   0  0  0  0  0  0  0  0  0  0  0  0
   24.2860   14.5335    0.0022 C   0  0  0  0  0  0  0  0  0  0  0  0
   23.6941   12.9716    0.0413 C   0  0  0  0  0  0  0  0  0  0  0  0
   22.0836   12.7500    0.0000 C   0  0  0  0  0  0  0  0  0  0  0  0
   20.7846   12.0000    0.0000 C   0  0  0  0  0  2  0  0  0  0  0  0
   19.4856   11.2500    0.0000 C   0  0  0  0  0  0  0  0  0  0  0  0
   18.1865   10.5000    0.0000 C   0  0  0  0  0  0  0  0  0  0  0  0
   16.8875    9.7500    0.0000 C   0  0  0  0  0  2  0  0  0  0  0  0
   15.5885    9.0000    0.0000 C   0  0  0  0  0  0  0  0  0  0  0  0
   13.9502    8.6430   -0.1187 C   0  0  0  0  0  0  0  0  0  0  0  0
   13.3343    7.0762    0.1276 C   0  0  0  0  0  0  0  0  0  0  0  0
   11.6913    6.7500    0.0000 C   0  0  0  0  0  0  0  0  0  0  0  0
   10.3923    6.0000    0.0000 C   0  0  0  0  0  0  0  0  0  0  0  0
    9.0933    5.2500    0.0000 C   0  0  0  0  0  0  0  0  0  0  0  0
    7.7942    4.5000    0.0000 C   0  0  0  0  0  0  0  0  0  0  0  0
    6.4952    3.7500    0.0000 C   0  0  0  0  0  0  0  0  0  0  0  0
    5.1962    3.0000    0.0000 C   0  0  0  0  0  0  0  0  0  0  0  0
    3.5732    3.0975   -0.2949 C   0  0  0  0  0  0  0  0  0  0  0  0
    2.6877    1.6935   -0.1032 C   0  0  0  0  0  0  0  0  0  0  0  0
    1.0511    1.5569   -0.3630 C   0  0  0  0  0  0  0  0  0  0  0  0
    0.2841    0.1310   -0.1540 C   0  0  0  0  0  0  0  0  0  0  0  0
    0.9850   -0.8033    0.2025 O   0  0  0  0  0  0  0  0  0  0  0  0
   -1.1186   -0.1264   -0.3507 O   0  0  0  0  0  0  0  0  0  0  0  0
   -1.8118   -1.4059   -0.1775 C   0  0  0  0  0  0  0  0  0  0  0  0
   -3.4409   -1.5529   -0.4715 C   0  0  1  0  0  0  0  0  0  0  0  0
   -4.1326   -3.0502   -0.3270 C   0  0  0  0  0  0  0  0  0  0  0  0
   -5.4735   -3.3493   -0.8415 O   0  0  0  0  0  0  0  0  0  0  0  0
   -6.5975   -3.9593   -0.1969 C   0  0  0  0  0  0  0  0  0  0  0  0
   -6.6370   -3.9183    1.0210 O   0  0  0  0  0  0  0  0  0  0  0  0
   -7.8369   -4.7430   -0.9391 C   0  0  0  0  0  0  0  0  0  0  0  0
   -9.0933   -5.2500    0.0000 C   0  0  0  0  0  0  0  0  0  0  0  0
  -10.3923   -6.0000    0.0000 C   0  0  0  0  0  0  0  0  0  0  0  0
  -11.6913   -6.7500    0.0000 C   0  0  0  0  0  0  0  0  0  0  0  0
  -13.3379   -7.0713    0.0865 C   0  0  0  0  0  0  0  0  0  0  0  0
  -13.9467   -8.6505   -0.0850 C   0  0  0  0  0  0  0  0  0  0  0  0
  -15.5885   -9.0000    0.0000 C   0  0  0  0  0  0  0  0  0  0  0  0
  -16.8875   -9.7500    0.0000 C   0  0  0  0  0  2  0  0  0  0  0  0
  -18.1865  -10.5000    0.0000 C   0  0  3  0  0  0  0  0  0  0  0  0
  -19.4856  -11.2500    0.0000 C   0  0  0  0  0  0  0  0  0  0  0  0
  -18.9365   -9.2010    0.0000 C   0  0  0  0  0  0  0  0  0  0  0  0
  -19.6865   -7.9019    0.0000 C   0  0  0  0  0  0  0  0  0  0  0  0
   -4.1117   -0.7057    0.3963 O   0  0  0  0  0  0  0  0  0  0  0  0
   -4.9288    0.3119    0.0300 C   0  0  0  0  0  0  0  0  0  0  0  0
   -5.1636    0.5151   -1.1552 O   0  0  0  0  0  0  0  0  0  0  0  0
   -5.5515    1.1869    1.1024 C   0  0  0  0  0  0  0  0  0  0  0  0
   -6.4423    2.2553    0.4677 C   0  0  0  0  0  0  0  0  0  0  0  0
   -7.0831    3.2732    1.4355 C   0  0  0  0  0  0  0  0  0  0  0  0
   -7.9110    4.2130    0.5554 C   0  0  0  0  0  0  0  0  0  0  0  0
   -8.6077    5.4409    1.1864 C   0  0  0  0  0  0  0  0  0  0  0  0
   -9.3481    6.0933    0.0000 C   0  0  0  0  0  0  0  0  0  0  0  0
  -10.0981    7.3923    0.0000 C   0  0  0  0  0  0  0  0  0  0  0  0
  -10.8481    8.6913    0.0000 C   0  0  0  0  0  0  0  0  0  0  0  0
  -11.2714   10.2795   -0.3552 C   0  0  0  0  0  0  0  0  0  0  0  0
  -12.7404   10.9559    0.1864 C   0  0  0  0  0  0  0  0  0  0  0  0
  -13.0981   12.5885    0.0000 C   0  0  0  0  0  0  0  0  0  0  0  0
  -13.8481   13.8875    0.0000 C   0  0  0  0  0  0  0  0  0  0  0  0
  -14.5981   15.1865    0.0000 C   0  0  0  0  0  0  0  0  0  0  0  0
  -15.3481   16.4856    0.0000 C   0  0  0  0  0  0  0  0  0  0  0  0
  -16.0981   17.7846    0.0000 C   0  0  0  0  0  0  0  0  0  0  0  0
  -16.8481   19.0836    0.0000 C   0  0  0  0  0  0  0  0  0  0  0  0
  -17.2155   20.7147   -0.1747 C   0  0  0  0  0  0  0  0  0  0  0  0
  -18.7315   21.3622    0.2659 C   0  0  0  0  0  0  0  0  0  0  0  0
  -19.0981   22.9808    0.0000 C   0  0  0  0  0  0  0  0  0  0  0  0
  -19.8481   24.2798    0.0000 C   0  0  0  0  0  0  0  0  0  0  0  0
  -20.5981   25.5788    0.0000 C   0  0  3  0  0  0  0  0  0  0  0  0
  -21.3481   26.8779    0.0000 C   0  0  0  0  0  0  0  0  0  0  0  0
  -21.8971   24.8288    0.0000 C   0  0  0  0  0  0  0  0  0  0  0  0
  -23.1962   24.0788    0.0000 C   0  0  0  0  0  0  0  0  0  0  0  0
   28.1909   12.6521    0.8052 H   0  0  0  0  0  0  0  0  0  0  0  0
   29.7929   13.4943    0.3470 H   0  0  0  0  0  0  0  0  0  0  0  0
   29.3148   12.2252    0.0000 H   0  0  0  0  0  0  0  0  0  0  0  0
   28.3120   14.7155    1.0575 H   0  0  0  0  0  0  0  0  0  0  0  0
   28.7394   14.9149   -0.7252 H   0  0  0  0  0  0  0  0  0  0  0  0
   27.4451   17.6687    0.0927 H   0  0  0  0  0  0  0  0  0  0  0  0
   26.2411   16.9955   -1.0722 H   0  0  0  0  0  0  0  0  0  0  0  0
   25.9948   17.9756    0.0000 H   0  0  0  0  0  0  0  0  0  0  0  0
   26.0066   14.0740    0.9830 H   0  0  0  0  0  0  0  0  0  0  0  0
   26.0103   14.0138   -0.8939 H   0  0  0  0  0  0  0  0  0  0  0  0
   23.9098   15.0261   -0.9201 H   0  0  0  0  0  0  0  0  0  0  0  0
   23.8752   15.0868    0.8736 H   0  0  0  0  0  0  0  0  0  0  0  0
   24.0729   12.4904    0.9678 H   0  0  0  0  0  0  0  0  0  0  0  0
   24.1246   12.4220   -0.8224 H   0  0  0  0  0  0  0  0  0  0  0  0
   21.8801   13.3431   -0.9162 H   0  0  0  0  0  0  0  0  0  0  0  0
   21.8286   13.4216    0.8465 H   0  0  0  0  0  0  0  0  0  0  0  0
   19.8547   10.6943    0.8959 H   0  0  0  0  0  0  0  0  0  0  0  0
   19.8547   10.6944   -0.8960 H   0  0  0  0  0  0  0  0  0  0  0  0
   17.8174   11.0557   -0.8959 H   0  0  0  0  0  0  0  0  0  0  0  0
   17.8174   11.0556    0.8960 H   0  0  0  0  0  0  0  0  0  0  0  0
   15.7263    8.5657    1.0122 H   0  0  0  0  0  0  0  0  0  0  0  0
   15.9267    8.2187   -0.7123 H   0  0  0  0  0  0  0  0  0  0  0  0
   13.6311    8.9530   -1.1359 H   0  0  0  0  0  0  0  0  0  0  0  0
   13.4286    9.3053    0.6039 H   0  0  0  0  0  0  0  0  0  0  0  0
   13.8520    6.4093   -0.5934 H   0  0  0  0  0  0  0  0  0  0  0  0
   13.6464    6.7648    1.1466 H   0  0  0  0  0  0  0  0  0  0  0  0
   11.3878    7.5800    0.6864 H   0  0  0  0  0  0  0  0  0  0  0  0
   11.5831    7.2181   -1.0115 H   0  0  0  0  0  0  0  0  0  0  0  0
   10.5336    5.7619    1.0894 H   0  0  0  0  0  0  0  0  0  0  0  0
   10.9807    5.2754   -0.6527 H   0  0  0  0  0  0  0  0  0  0  0  0
    9.0238    5.4116   -1.1193 H   0  0  0  0  0  0  0  0  0  0  0  0
    9.5726    4.2246    0.1554 H   0  0  0  0  0  0  0  0  0  0  0  0
    7.8600    4.3487    1.1202 H   0  0  0  0  0  0  0  0  0  0  0  0
    7.3100    5.5205   -0.1700 H   0  0  0  0  0  0  0  0  0  0  0  0
    5.8993    4.4796    0.6371 H   0  0  0  0  0  0  0  0  0  0  0  0
    6.3706    3.9464   -1.0974 H   0  0  0  0  0  0  0  0  0  0  0  0
    5.1896    2.5463    1.0221 H   0  0  0  0  0  0  0  0  0  0  0  0
    5.4464    2.1251   -0.6482 H   0  0  0  0  0  0  0  0  0  0  0  0
    3.4388    3.4417   -1.3417 H   0  0  0  0  0  0  0  0  0  0  0  0
    3.1460    3.8705    0.3774 H   0  0  0  0  0  0  0  0  0  0  0  0
    3.1621    0.9408   -0.7672 H   0  0  0  0  0  0  0  0  0  0  0  0
    2.8600    1.3620    0.9422 H   0  0  0  0  0  0  0  0  0  0  0  0
    0.5553    2.2922    0.3042 H   0  0  0  0  0  0  0  0  0  0  0  0
    0.8649    1.8720   -1.4107 H   0  0  0  0  0  0  0  0  0  0  0  0
   -1.3113   -2.1415   -0.8419 H   0  0  0  0  0  0  0  0  0  0  0  0
   -1.6427   -1.7441    0.8668 H   0  0  0  0  0  0  0  0  0  0  0  0
   -3.5784   -1.2545   -1.5337 H   0  0  0  0  0  0  0  0  0  0  0  0
   -3.4533   -3.7193   -0.8942 H   0  0  0  0  0  0  0  0  0  0  0  0
   -4.0602   -3.3673    0.7357 H   0  0  0  0  0  0  0  0  0  0  0  0
   -7.4098   -5.6197   -1.4687 H   0  0  0  0  0  0  0  0  0  0  0  0
   -8.2608   -4.0571   -1.7046 H   0  0  0  0  0  0  0  0  0  0  0  0
   -9.3434   -4.2379    0.4226 H   0  0  0  0  0  0  0  0  0  0  0  0
   -8.5329   -5.7903    0.7985 H   0  0  0  0  0  0  0  0  0  0  0  0
  -10.7988   -5.2904   -0.7623 H   0  0  0  0  0  0  0  0  0  0  0  0
  -10.6502   -5.6526    1.0390 H   0  0  0  0  0  0  0  0  0  0  0  0
  -11.5468   -7.2589   -0.9830 H   0  0  0  0  0  0  0  0  0  0  0  0
  -11.4103   -7.5373    0.7443 H   0  0  0  0  0  0  0  0  0  0  0  0
  -13.6859   -6.7001    1.0733 H   0  0  0  0  0  0  0  0  0  0  0  0
  -13.8295   -6.4493   -0.6909 H   0  0  0  0  0  0  0  0  0  0  0  0
  -13.4509   -9.2673    0.6938 H   0  0  0  0  0  0  0  0  0  0  0  0
  -13.5936   -9.0214   -1.0700 H   0  0  0  0  0  0  0  0  0  0  0  0
  -15.9014   -8.2633   -0.7691 H   0  0  0  0  0  0  0  0  0  0  0  0
  -15.7608   -8.5052    0.9786 H   0  0  0  0  0  0  0  0  0  0  0  0
  -17.9185  -10.7867   -1.0494 H   0  0  0  0  0  0  0  0  0  0  0  0
  -19.6832  -11.2473    1.1014 H   0  0  0  0  0  0  0  0  0  0  0  0
  -19.0506  -12.2648   -0.1674 H   0  0  0  0  0  0  0  0  0  0  0  0
  -20.4123  -11.7850    0.0000 H   0  0  0  0  0  0  0  0  0  0  0  0
  -19.1045   -9.2709    1.1294 H   0  0  0  0  0  0  0  0  0  0  0  0
  -19.4184   -9.2725   -1.0315 H   0  0  0  0  0  0  0  0  0  0  0  0
  -19.0982   -7.3310    0.7670 H   0  0  0  0  0  0  0  0  0  0  0  0
  -20.6986   -8.2703    0.3275 H   0  0  0  0  0  0  0  0  0  0  0  0
  -20.2215   -6.9752    0.0000 H   0  0  0  0  0  0  0  0  0  0  0  0
   -4.7393    1.6736    1.6825 H   0  0  0  0  0  0  0  0  0  0  0  0
   -6.1590    0.5571    1.7876 H   0  0  0  0  0  0  0  0  0  0  0  0
   -5.8138    2.8236   -0.2553 H   0  0  0  0  0  0  0  0  0  0  0  0
   -7.2491    1.7330   -0.0961 H   0  0  0  0  0  0  0  0  0  0  0  0
   -7.7375    2.7634    2.1758 H   0  0  0  0  0  0  0  0  0  0  0  0
   -6.2899    3.8400    1.9677 H   0  0  0  0  0  0  0  0  0  0  0  0
   -8.6858    3.5847    0.0574 H   0  0  0  0  0  0  0  0  0  0  0  0
   -7.2241    4.6075   -0.2283 H   0  0  0  0  0  0  0  0  0  0  0  0
   -7.8502    6.1311    1.6138 H   0  0  0  0  0  0  0  0  0  0  0  0
   -9.3294    5.1357    1.9743 H   0  0  0  0  0  0  0  0  0  0  0  0
  -10.0650    5.3300   -0.3941 H   0  0  0  0  0  0  0  0  0  0  0  0
   -8.6066    6.2352   -0.8231 H   0  0  0  0  0  0  0  0  0  0  0  0
  -10.7406    6.9364    0.8059 H   0  0  0  0  0  0  0  0  0  0  0  0
   -9.1958    7.9173    0.3999 H   0  0  0  0  0  0  0  0  0  0  0  0
  -11.8296    8.2802   -0.3391 H   0  0  0  0  0  0  0  0  0  0  0  0
  -10.9200    8.9029    1.1045 H   0  0  0  0  0  0  0  0  0  0  0  0
  -10.4530   10.9152    0.0463 H   0  0  0  0  0  0  0  0  0  0  0  0
  -11.2585   10.3941   -1.4593 H   0  0  0  0  0  0  0  0  0  0  0  0
  -12.8200   10.7450    1.2734 H   0  0  0  0  0  0  0  0  0  0  0  0
  -13.5472   10.3826   -0.3170 H   0  0  0  0  0  0  0  0  0  0  0  0
  -12.7741   12.6260   -1.0690 H   0  0  0  0  0  0  0  0  0  0  0  0
  -12.1780   12.9365    0.5393 H   0  0  0  0  0  0  0  0  0  0  0  0
  -13.9956   13.6414    1.1038 H   0  0  0  0  0  0  0  0  0  0  0  0
  -14.6499   13.4074   -0.6234 H   0  0  0  0  0  0  0  0  0  0  0  0
  -13.8359   15.6064    0.7268 H   0  0  0  0  0  0  0  0  0  0  0  0
  -15.4707   14.7941    0.6254 H   0  0  0  0  0  0  0  0  0  0  0  0
  -16.1072   16.0669   -0.7297 H   0  0  0  0  0  0  0  0  0  0  0  0
  -14.4721   16.8800   -0.6200 H   0  0  0  0  0  0  0  0  0  0  0  0
  -15.3053   18.2596    0.6378 H   0  0  0  0  0  0  0  0  0  0  0  0
  -15.9351   18.0379   -1.1003 H   0  0  0  0  0  0  0  0  0  0  0  0
  -17.2005   19.0285    1.0590 H   0  0  0  0  0  0  0  0  0  0  0  0
  -17.7522   18.7423   -0.5710 H   0  0  0  0  0  0  0  0  0  0  0  0
  -17.0614   20.9564   -1.2472 H   0  0  0  0  0  0  0  0  0  0  0  0
  -16.4526   21.2805    0.4006 H   0  0  0  0  0  0  0  0  0  0  0  0
  -19.5115   20.7667   -0.2545 H   0  0  0  0  0  0  0  0  0  0  0  0
  -18.8482   21.1725    1.3539 H   0  0  0  0  0  0  0  0  0  0  0  0
  -18.1041   23.2660    0.4572 H   0  0  0  0  0  0  0  0  0  0  0  0
  -18.9596   22.9051   -1.1059 H   0  0  0  0  0  0  0  0  0  0  0  0
  -18.9270   24.8479   -0.3427 H   0  0  0  0  0  0  0  0  0  0  0  0
  -19.7838   24.2965    1.1220 H   0  0  0  0  0  0  0  0  0  0  0  0
  -20.4194   25.8066   -1.1068 H   0  0  0  0  0  0  0  0  0  0  0  0
  -20.4684   27.5607   -0.1396 H   0  0  0  0  0  0  0  0  0  0  0  0
  -21.5204   26.9290    1.1055 H   0  0  0  0  0  0  0  0  0  0  0  0
  -21.8831   27.8046    0.0000 H   0  0  0  0  0  0  0  0  0  0  0  0
  -21.7727   24.3630   -1.0543 H   0  0  0  0  0  0  0  0  0  0  0  0
  -21.8642   24.4915    1.0807 H   0  0  0  0  0  0  0  0  0  0  0  0
  -23.7146   24.5484   -0.8823 H   0  0  0  0  0  0  0  0  0  0  0  0
  -22.8420   23.0077   -0.0789 H   0  0  0  0  0  0  0  0  0  0  0  0
  -24.1229   23.5438    0.0000 H   0  0  0  0  0  0  0  0  0  0  0  0
  1  2  1  0  0  0  0
  1 73  1  0  0  0  0
  1 74  1  0  0  0  0
  1 75  1  0  0  0  0
  2  3  1  0  0  0  0
  2 76  1  0  0  0  0
  2 77  1  0  0  0  0
  3  4  1  0  0  0  0
  3  5  1  0  0  0  0
  4 78  1  0  0  0  0
  4 79  1  0  0  0  0
  4 80  1  0  0  0  0
  5  6  1  0  0  0  0
  5 81  1  0  0  0  0
  5 82  1  0  0  0  0
  6  7  1  0  0  0  0
  6 83  1  0  0  0  0
  6 84  1  0  0  0  0
  7  8  1  0  0  0  0
  7 85  1  0  0  0  0
  7 86  1  0  0  0  0
  8  9  1  0  0  0  0
  8 87  1  0  0  0  0
  8 88  1  0  0  0  0
  9 10  1  0  0  0  0
 10 11  1  0  0  0  0
 10 89  1  0  0  0  0
 10 90  1  0  0  0  0
 11 12  1  0  0  0  0
 11 91  1  0  0  0  0
 11 92  1  0  0  0  0
 12 13  1  0  0  0  0
 13 14  1  0  0  0  0
 13 93  1  0  0  0  0
 13 94  1  0  0  0  0
 14 15  1  0  0  0  0
 14 95  1  0  0  0  0
 14 96  1  0  0  0  0
 15 16  1  0  0  0  0
 15 97  1  0  0  0  0
 15 98  1  0  0  0  0
 16 17  1  0  0  0  0
 16 99  1  0  0  0  0
 16100  1  0  0  0  0
 17 18  1  0  0  0  0
 17101  1  0  0  0  0
 17102  1  0  0  0  0
 18 19  1  0  0  0  0
 18103  1  0  0  0  0
 18104  1  0  0  0  0
 19 20  1  0  0  0  0
 19105  1  0  0  0  0
 19106  1  0  0  0  0
 20 21  1  0  0  0  0
 20107  1  0  0  0  0
 20108  1  0  0  0  0
 21 22  1  0  0  0  0
 21109  1  0  0  0  0
 21110  1  0  0  0  0
 22 23  1  0  0  0  0
 22111  1  0  0  0  0
 22112  1  0  0  0  0
 23 24  1  0  0  0  0
 23113  1  0  0  0  0
 23114  1  0  0  0  0
 24 25  1  0  0  0  0
 24115  1  0  0  0  0
 24116  1  0  0  0  0
 25 26  2  0  0  0  0
 25 27  1  0  0  0  0
 27 28  1  0  0  0  0
 28117  1  0  0  0  0
 28118  1  0  0  0  0
 29 28  1  0  0  0  0
 29 30  1  0  0  0  0
 29 46  1  0  0  0  0
 29119  1  6  0  0  0
 30 31  1  0  0  0  0
 30120  1  0  0  0  0
 30121  1  0  0  0  0
 31 32  1  0  0  0  0
 32 33  2  0  0  0  0
 32 34  1  0  0  0  0
 34 35  1  0  0  0  0
 34122  1  0  0  0  0
 34123  1  0  0  0  0
 35 36  1  0  0  0  0
 35124  1  0  0  0  0
 35125  1  0  0  0  0
 36 37  1  0  0  0  0
 36126  1  0  0  0  0
 36127  1  0  0  0  0
 37 38  1  0  0  0  0
 37128  1  0  0  0  0
 37129  1  0  0  0  0
 38 39  1  0  0  0  0
 38130  1  0  0  0  0
 38131  1  0  0  0  0
 39 40  1  0  0  0  0
 39132  1  0  0  0  0
 39133  1  0  0  0  0
 40 41  1  0  0  0  0
 40134  1  0  0  0  0
 40135  1  0  0  0  0
 41 42  1  0  0  0  0
 42 43  1  0  0  0  0
 42 44  1  0  0  0  0
 42136  1  0  0  0  0
 43137  1  0  0  0  0
 43138  1  0  0  0  0
 43139  1  0  0  0  0
 44 45  1  0  0  0  0
 44140  1  0  0  0  0
 44141  1  0  0  0  0
 45142  1  0  0  0  0
 45143  1  0  0  0  0
 45144  1  0  0  0  0
 46 47  1  0  0  0  0
 47 48  2  0  0  0  0
 47 49  1  0  0  0  0
 49 50  1  0  0  0  0
 49145  1  0  0  0  0
 49146  1  0  0  0  0
 50 51  1  0  0  0  0
 50147  1  0  0  0  0
 50148  1  0  0  0  0
 51 52  1  0  0  0  0
 51149  1  0  0  0  0
 51150  1  0  0  0  0
 52 53  1  0  0  0  0
 52151  1  0  0  0  0
 52152  1  0  0  0  0
 53 54  1  0  0  0  0
 53153  1  0  0  0  0
 53154  1  0  0  0  0
 54 55  1  0  0  0  0
 54155  1  0  0  0  0
 54156  1  0  0  0  0
 55 56  1  0  0  0  0
 55157  1  0  0  0  0
 55158  1  0  0  0  0
 56 57  1  0  0  0  0
 56159  1  0  0  0  0
 56160  1  0  0  0  0
 57 58  1  0  0  0  0
 57161  1  0  0  0  0
 57162  1  0  0  0  0
 58 59  1  0  0  0  0
 58163  1  0  0  0  0
 58164  1  0  0  0  0
 59 60  1  0  0  0  0
 59165  1  0  0  0  0
 59166  1  0  0  0  0
 60 61  1  0  0  0  0
 60167  1  0  0  0  0
 60168  1  0  0  0  0
 61 62  1  0  0  0  0
 61169  1  0  0  0  0
 61170  1  0  0  0  0
 62 63  1  0  0  0  0
 62171  1  0  0  0  0
 62172  1  0  0  0  0
 63 64  1  0  0  0  0
 63173  1  0  0  0  0
 63174  1  0  0  0  0
 64 65  1  0  0  0  0
 64175  1  0  0  0  0
 64176  1  0  0  0  0
 65 66  1  0  0  0  0
 65177  1  0  0  0  0
 65178  1  0  0  0  0
 66 67  1  0  0  0  0
 66179  1  0  0  0  0
 66180  1  0  0  0  0
 67 68  1  0  0  0  0
 67181  1  0  0  0  0
 67182  1  0  0  0  0
 68 69  1  0  0  0  0
 68183  1  0  0  0  0
 68184  1  0  0  0  0
 69 70  1  0  0  0  0
 69 71  1  0  0  0  0
 69185  1  0  0  0  0
 70186  1  0  0  0  0
 70187  1  0  0  0  0
 70188  1  0  0  0  0
 71 72  1  0  0  0  0
 71189  1  0  0  0  0
 71190  1  0  0  0  0
 72191  1  0  0  0  0
 72192  1  0  0  0  0
 72193  1  0  0  0  0
M  END
>  <IDENTIFIER>
CNP0575548.2

>  <Energy>
15014.2

$$$$
