
 OpenBabel09082517333D

 58 59  0  0  0  0  0  0  0  0999 V2000
    9.0567   -1.1339    0.6783 C   0  0  0  0  0  0  0  0  0  0  0  0
    7.9100   -0.5959   -0.1843 C   0  0  0  0  0  0  0  0  0  0  0  0
    8.1960   -0.7960   -1.6771 C   0  0  0  0  0  0  0  0  0  0  0  0
    6.7214   -1.2116    0.1570 O   0  0  0  0  0  0  0  0  0  0  0  0
    5.7808   -0.3316    0.5961 C   0  0  0  0  0  0  0  0  0  0  0  0
    4.4205   -0.8342    0.9943 C   0  0  0  0  0  0  0  0  0  0  0  0
    3.2530   -0.1323    1.0512 C   0  0  0  0  0  0  0  0  0  0  0  0
    2.9895    1.3099    0.6824 C   0  0  0  0  0  0  0  0  0  0  0  0
    2.1372    1.3808   -0.4037 O   0  0  0  0  0  0  0  0  0  0  0  0
    0.8264    1.0386   -0.4771 C   0  0  0  0  0  0  0  0  0  0  0  0
    0.0520    0.7030    0.6508 C   0  0  0  0  0  0  0  0  0  0  0  0
   -1.2987    0.3734    0.5005 C   0  0  0  0  0  0  0  0  0  0  0  0
   -1.8968    0.3760   -0.7719 C   0  0  0  0  0  0  0  0  0  0  0  0
   -3.3584    0.0406   -0.9316 C   0  0  0  0  0  0  0  0  0  0  0  0
   -4.2254    1.1016   -0.2375 C   0  0  0  0  0  0  0  0  0  0  0  0
   -5.6424    0.8433   -0.4140 N   0  0  0  0  0  0  0  0  0  0  0  0
   -6.2814   -0.2212    0.1555 C   0  0  0  0  0  0  0  0  0  0  0  0
   -5.6531   -1.0125    0.8435 O   0  0  0  0  0  0  0  0  0  0  0  0
   -7.7460   -0.4474    0.0098 C   0  0  0  0  0  0  0  0  0  0  0  0
   -8.5703    0.3127   -0.7295 C   0  0  0  0  0  0  0  0  0  0  0  0
  -10.3338   -0.0175   -0.8052 S   0  0  0  0  0  0  0  0  0  0  0  0
  -11.6020    1.0824   -0.1181 C   0  0  0  0  0  0  0  0  0  0  0  0
  -10.6795   -0.2536   -2.2829 O   0  0  0  0  0  0  0  0  0  0  0  0
  -10.5936   -1.4360   -0.2737 O   0  0  0  0  0  0  0  0  0  0  0  0
   -1.1203    0.7051   -1.8922 C   0  0  0  0  0  0  0  0  0  0  0  0
    0.2269    1.0370   -1.7416 C   0  0  0  0  0  0  0  0  0  0  0  0
    4.3550   -2.3153    1.3211 C   0  0  0  0  0  0  0  0  0  0  0  0
    5.1645   -2.5987    2.4321 O   0  0  0  0  0  0  0  0  0  0  0  0
    6.2667    0.9128    0.6245 C   0  0  0  0  0  0  0  0  0  0  0  0
    7.6214    0.8297    0.1299 C   0  0  0  0  0  0  0  0  0  0  0  0
    8.3895    1.7699   -0.0007 O   0  0  0  0  0  0  0  0  0  0  0  0
    9.2013   -2.2190    0.4883 H   0  0  0  0  0  0  0  0  0  0  0  0
    8.8276   -0.9943    1.7564 H   0  0  0  0  0  0  0  0  0  0  0  0
   10.0024   -0.6006    0.4426 H   0  0  0  0  0  0  0  0  0  0  0  0
    8.3285   -1.8768   -1.8994 H   0  0  0  0  0  0  0  0  0  0  0  0
    9.1183   -0.2533   -1.9757 H   0  0  0  0  0  0  0  0  0  0  0  0
    7.3469   -0.4172   -2.2872 H   0  0  0  0  0  0  0  0  0  0  0  0
    2.3630   -0.6732    1.3554 H   0  0  0  0  0  0  0  0  0  0  0  0
    3.8862    1.8343    0.3625 H   0  0  0  0  0  0  0  0  0  0  0  0
    2.5691    1.8650    1.5467 H   0  0  0  0  0  0  0  0  0  0  0  0
    0.4795    0.7001    1.6429 H   0  0  0  0  0  0  0  0  0  0  0  0
   -1.8801    0.1200    1.3781 H   0  0  0  0  0  0  0  0  0  0  0  0
   -3.5416   -0.9733   -0.5198 H   0  0  0  0  0  0  0  0  0  0  0  0
   -3.6359    0.0264   -2.0085 H   0  0  0  0  0  0  0  0  0  0  0  0
   -3.9838    2.0860   -0.6974 H   0  0  0  0  0  0  0  0  0  0  0  0
   -3.9961    1.1678    0.8486 H   0  0  0  0  0  0  0  0  0  0  0  0
   -6.1680    1.5362   -0.9613 H   0  0  0  0  0  0  0  0  0  0  0  0
   -8.1670   -1.2872    0.5546 H   0  0  0  0  0  0  0  0  0  0  0  0
   -8.2198    1.1614   -1.2991 H   0  0  0  0  0  0  0  0  0  0  0  0
  -11.5456    2.0696   -0.6218 H   0  0  0  0  0  0  0  0  0  0  0  0
  -11.4389    1.2009    0.9729 H   0  0  0  0  0  0  0  0  0  0  0  0
  -12.6066    0.6455   -0.2914 H   0  0  0  0  0  0  0  0  0  0  0  0
   -1.5571    0.7166   -2.8830 H   0  0  0  0  0  0  0  0  0  0  0  0
    0.8117    1.2972   -2.6156 H   0  0  0  0  0  0  0  0  0  0  0  0
    4.6690   -2.9122    0.4332 H   0  0  0  0  0  0  0  0  0  0  0  0
    3.3253   -2.6582    1.5601 H   0  0  0  0  0  0  0  0  0  0  0  0
    6.0410   -2.9115    2.0863 H   0  0  0  0  0  0  0  0  0  0  0  0
    5.8115    1.8246    0.9621 H   0  0  0  0  0  0  0  0  0  0  0  0
  1  2  1  0  0  0  0
  1 32  1  0  0  0  0
  1 33  1  0  0  0  0
  1 34  1  0  0  0  0
  2  3  1  0  0  0  0
  2  4  1  0  0  0  0
  3 35  1  0  0  0  0
  3 36  1  0  0  0  0
  3 37  1  0  0  0  0
  4  5  1  0  0  0  0
  5  6  1  0  0  0  0
  5 29  2  0  0  0  0
  6  7  2  3  0  0  0
  6 27  1  0  0  0  0
  7  8  1  0  0  0  0
  7 38  1  0  0  0  0
  8  9  1  0  0  0  0
  8 39  1  0  0  0  0
  8 40  1  0  0  0  0
  9 10  1  0  0  0  0
 10 11  2  0  0  0  0
 11 12  1  0  0  0  0
 11 41  1  0  0  0  0
 12 13  2  0  0  0  0
 12 42  1  0  0  0  0
 13 14  1  0  0  0  0
 13 25  1  0  0  0  0
 14 15  1  0  0  0  0
 14 43  1  0  0  0  0
 14 44  1  0  0  0  0
 15 16  1  0  0  0  0
 15 45  1  0  0  0  0
 15 46  1  0  0  0  0
 16 17  1  0  0  0  0
 16 47  1  0  0  0  0
 17 18  2  0  0  0  0
 17 19  1  0  0  0  0
 19 20  2  3  0  0  0
 19 48  1  0  0  0  0
 20 21  1  0  0  0  0
 20 49  1  0  0  0  0
 21 22  1  0  0  0  0
 21 23  2  0  0  0  0
 21 24  2  0  0  0  0
 22 50  1  0  0  0  0
 22 51  1  0  0  0  0
 22 52  1  0  0  0  0
 25 26  2  0  0  0  0
 25 53  1  0  0  0  0
 26 10  1  0  0  0  0
 26 54  1  0  0  0  0
 27 28  1  0  0  0  0
 27 55  1  0  0  0  0
 27 56  1  0  0  0  0
 28 57  1  0  0  0  0
 29 30  1  0  0  0  0
 29 58  1  0  0  0  0
 30 31  2  0  0  0  0
 30  2  1  0  0  0  0
M  END
>  <IDENTIFIER>
CNP0252619.0

>  <Energy>
747.723

$$$$
