
 OpenBabel09132503233D

110111  0  0  0  0  0  0  0  0999 V2000
    9.5669    4.3549   -1.0081 C   0  0  0  0  0  0  0  0  0  0  0  0
    9.3135    2.9369   -0.5055 C   0  0  0  0  0  0  0  0  0  0  0  0
    9.6935    2.8010    0.9771 C   0  0  0  0  0  0  0  0  0  0  0  0
    9.4944    1.3734    1.5243 C   0  0  0  0  0  0  0  0  0  0  0  0
    8.0553    0.8312    1.4381 C   0  0  0  0  0  0  0  0  0  0  0  0
    7.0420    1.6755    2.2326 C   0  0  0  0  0  0  0  0  0  0  0  0
    5.6000    1.1761    2.0721 C   0  0  0  0  0  0  0  0  0  0  0  0
    5.3565   -0.2277    2.6581 C   0  0  0  0  0  0  0  0  0  0  0  0
    3.8933   -0.6551    2.4868 C   0  0  0  0  0  0  0  0  0  0  0  0
    3.5138   -0.7564    1.0350 C   0  0  0  0  0  0  0  0  0  0  0  0
    4.0782   -1.5628    0.3114 O   0  0  0  0  0  0  0  0  0  0  0  0
    2.5659    0.0854    0.5461 O   0  0  0  0  0  0  0  0  0  0  0  0
    2.0761    0.0856   -0.7459 C   0  0  0  0  0  0  0  0  0  0  0  0
    1.2749   -1.1844   -1.0615 C   0  0  0  0  0  0  0  0  0  0  0  0
    0.1469   -1.4091   -0.0365 C   0  0  0  0  0  0  0  0  0  0  0  0
   -0.7560   -2.6794   -0.2376 C   0  0  2  0  0  0  0  0  0  0  0  0
    0.1380   -3.9078    0.0193 C   0  0  0  0  0  0  0  0  0  0  0  0
    0.3728   -4.4110    1.2877 C   0  0  0  0  0  0  0  0  0  0  0  0
   -0.2144   -3.8285    2.5640 C   0  0  0  0  0  0  0  0  0  0  0  0
    1.2413   -5.5999    1.5731 C   0  0  0  0  0  0  0  0  0  0  0  0
    1.8667   -6.2003    0.7158 O   0  0  0  0  0  0  0  0  0  0  0  0
    0.7898   -4.5551   -1.2054 C   0  0  0  0  0  0  0  0  0  0  0  0
    0.2017   -4.0802   -2.5475 C   0  0  0  0  0  0  0  0  0  0  0  0
   -1.3454   -4.0485   -2.4637 C   0  0  2  0  0  0  0  0  0  0  0  0
   -1.8697   -5.4450   -1.9791 C   0  0  0  0  0  0  0  0  0  0  0  0
   -1.8990   -3.8404   -3.7426 O   0  0  0  0  0  0  0  0  0  0  0  0
   -1.7551   -2.8275   -1.5054 C   0  0  1  0  0  0  0  0  0  0  0  0
   -3.2172   -3.0834   -1.0022 C   0  0  0  0  0  0  0  0  0  0  0  0
   -3.8724   -1.7246   -0.9203 C   0  0  0  0  0  0  0  0  0  0  0  0
   -3.4660   -1.1298   -2.2749 C   0  0  1  0  0  0  0  0  0  0  0  0
   -3.8665    0.3392   -2.5435 C   0  0  0  0  0  0  0  0  0  0  0  0
   -4.5839    1.0408   -1.6045 C   0  0  0  0  0  0  0  0  0  0  0  0
   -5.0829    2.4471   -1.6665 C   0  0  0  0  0  0  0  0  0  0  0  0
   -5.8165    2.9683   -0.6572 C   0  0  0  0  0  0  0  0  0  0  0  0
   -6.3863    4.3665   -0.6341 C   0  0  0  0  0  0  0  0  0  0  0  0
   -6.1621    5.3357   -1.7870 C   0  0  0  0  0  0  0  0  0  0  0  0
   -7.1314    4.8879    0.3861 C   0  0  0  0  0  0  0  0  0  0  0  0
   -7.6181    4.3445    1.7213 C   0  0  0  0  0  0  0  0  0  0  0  0
   -7.3674    2.8973    2.0600 C   0  0  0  0  0  0  0  0  0  0  0  0
   -6.6326    2.4191    3.0980 C   0  0  0  0  0  0  0  0  0  0  0  0
   -6.5305    0.9284    3.3005 C   0  0  0  0  0  0  0  0  0  0  0  0
   -5.8826    3.2696    4.1004 C   0  0  0  0  0  0  0  0  0  0  0  0
   -3.4289    0.8559   -3.9179 C   0  0  0  0  0  0  0  0  0  0  0  0
   -3.8779    2.1322   -4.2619 O   0  0  0  0  0  0  0  0  0  0  0  0
   -1.9458   -1.4239   -2.2449 C   0  0  2  0  0  0  0  0  0  0  0  0
   -1.2642   -1.3068   -3.4711 O   0  0  0  0  0  0  0  0  0  0  0  0
    9.2841    4.4257   -2.0797 H   0  0  0  0  0  0  0  0  0  0  0  0
   10.6411    4.6163   -0.9043 H   0  0  0  0  0  0  0  0  0  0  0  0
    8.9555    5.0816   -0.4312 H   0  0  0  0  0  0  0  0  0  0  0  0
    9.9143    2.2248   -1.1117 H   0  0  0  0  0  0  0  0  0  0  0  0
    8.2360    2.7133   -0.6500 H   0  0  0  0  0  0  0  0  0  0  0  0
    9.1108    3.5263    1.5823 H   0  0  0  0  0  0  0  0  0  0  0  0
   10.7679    3.0609    1.0959 H   0  0  0  0  0  0  0  0  0  0  0  0
    9.8196    1.3568    2.5871 H   0  0  0  0  0  0  0  0  0  0  0  0
   10.1569    0.6832    0.9572 H   0  0  0  0  0  0  0  0  0  0  0  0
    8.0705   -0.2025    1.8404 H   0  0  0  0  0  0  0  0  0  0  0  0
    7.7416    0.7707    0.3752 H   0  0  0  0  0  0  0  0  0  0  0  0
    7.0527    2.7147    1.8455 H   0  0  0  0  0  0  0  0  0  0  0  0
    7.3213    1.6979    3.3084 H   0  0  0  0  0  0  0  0  0  0  0  0
    5.3418    1.1929    0.9906 H   0  0  0  0  0  0  0  0  0  0  0  0
    4.9295    1.8929    2.5956 H   0  0  0  0  0  0  0  0  0  0  0  0
    5.5976   -0.2102    3.7432 H   0  0  0  0  0  0  0  0  0  0  0  0
    6.0038   -0.9831    2.1667 H   0  0  0  0  0  0  0  0  0  0  0  0
    3.2388    0.0886    2.9932 H   0  0  0  0  0  0  0  0  0  0  0  0
    3.7287   -1.6420    2.9695 H   0  0  0  0  0  0  0  0  0  0  0  0
    2.9092    0.2107   -1.4734 H   0  0  0  0  0  0  0  0  0  0  0  0
    1.4010    0.9615   -0.8527 H   0  0  0  0  0  0  0  0  0  0  0  0
    1.9606   -2.0544   -1.0609 H   0  0  0  0  0  0  0  0  0  0  0  0
    0.8595   -1.0545   -2.0778 H   0  0  0  0  0  0  0  0  0  0  0  0
   -0.4628   -0.4892    0.0553 H   0  0  0  0  0  0  0  0  0  0  0  0
    0.6264   -1.5024    0.9628 H   0  0  0  0  0  0  0  0  0  0  0  0
   -1.4468   -2.5349    0.6037 H   0  0  0  0  0  0  0  0  0  0  0  0
   -0.8246   -2.9179    2.4797 H   0  0  0  0  0  0  0  0  0  0  0  0
    0.6148   -3.5632    3.2525 H   0  0  0  0  0  0  0  0  0  0  0  0
   -0.8471   -4.5985    3.0554 H   0  0  0  0  0  0  0  0  0  0  0  0
    1.3363   -5.9429    2.5992 H   0  0  0  0  0  0  0  0  0  0  0  0
    0.5748   -5.6413   -1.1704 H   0  0  0  0  0  0  0  0  0  0  0  0
    1.8951   -4.4458   -1.1939 H   0  0  0  0  0  0  0  0  0  0  0  0
    0.5534   -4.7837   -3.3339 H   0  0  0  0  0  0  0  0  0  0  0  0
    0.5749   -3.0843   -2.8359 H   0  0  0  0  0  0  0  0  0  0  0  0
   -1.4543   -6.2504   -2.6222 H   0  0  0  0  0  0  0  0  0  0  0  0
   -2.9695   -5.5360   -2.0619 H   0  0  0  0  0  0  0  0  0  0  0  0
   -1.6169   -5.6643   -0.9230 H   0  0  0  0  0  0  0  0  0  0  0  0
   -1.5443   -4.5366   -4.3560 H   0  0  0  0  0  0  0  0  0  0  0  0
   -3.2923   -3.7115   -0.0878 H   0  0  0  0  0  0  0  0  0  0  0  0
   -3.8135   -3.5944   -1.7900 H   0  0  0  0  0  0  0  0  0  0  0  0
   -3.4247   -1.1492   -0.0772 H   0  0  0  0  0  0  0  0  0  0  0  0
   -4.9727   -1.7997   -0.7803 H   0  0  0  0  0  0  0  0  0  0  0  0
   -3.9433   -1.7500   -3.0696 H   0  0  0  0  0  0  0  0  0  0  0  0
   -4.8468    0.5416   -0.6818 H   0  0  0  0  0  0  0  0  0  0  0  0
   -4.8674    3.0512   -2.5107 H   0  0  0  0  0  0  0  0  0  0  0  0
   -5.9904    2.3112    0.1722 H   0  0  0  0  0  0  0  0  0  0  0  0
   -5.5685    4.9604   -2.6329 H   0  0  0  0  0  0  0  0  0  0  0  0
   -5.6374    6.2401   -1.4111 H   0  0  0  0  0  0  0  0  0  0  0  0
   -7.1444    5.6439   -2.2054 H   0  0  0  0  0  0  0  0  0  0  0  0
   -7.4616    5.9179    0.2575 H   0  0  0  0  0  0  0  0  0  0  0  0
   -8.7213    4.4717    1.7435 H   0  0  0  0  0  0  0  0  0  0  0  0
   -7.2206    5.0314    2.4834 H   0  0  0  0  0  0  0  0  0  0  0  0
   -7.8598    2.1841    1.4033 H   0  0  0  0  0  0  0  0  0  0  0  0
   -7.1017    0.3544    2.5401 H   0  0  0  0  0  0  0  0  0  0  0  0
   -6.9298    0.6650    4.3030 H   0  0  0  0  0  0  0  0  0  0  0  0
   -5.4665    0.6170    3.2442 H   0  0  0  0  0  0  0  0  0  0  0  0
   -5.9349    4.3580    3.9398 H   0  0  0  0  0  0  0  0  0  0  0  0
   -4.8072    2.9957    4.0724 H   0  0  0  0  0  0  0  0  0  0  0  0
   -6.2728    3.0644    5.1193 H   0  0  0  0  0  0  0  0  0  0  0  0
   -3.7672    0.1357   -4.6987 H   0  0  0  0  0  0  0  0  0  0  0  0
   -2.3227    0.8762   -3.9644 H   0  0  0  0  0  0  0  0  0  0  0  0
   -4.7904    2.0219   -4.6394 H   0  0  0  0  0  0  0  0  0  0  0  0
   -1.6092   -0.5914   -1.6187 H   0  0  0  0  0  0  0  0  0  0  0  0
   -1.9054   -1.4781   -4.2067 H   0  0  0  0  0  0  0  0  0  0  0  0
  1  2  1  0  0  0  0
  1 47  1  0  0  0  0
  1 48  1  0  0  0  0
  1 49  1  0  0  0  0
  2  3  1  0  0  0  0
  2 50  1  0  0  0  0
  2 51  1  0  0  0  0
  3  4  1  0  0  0  0
  3 52  1  0  0  0  0
  3 53  1  0  0  0  0
  4  5  1  0  0  0  0
  4 54  1  0  0  0  0
  4 55  1  0  0  0  0
  5  6  1  0  0  0  0
  5 56  1  0  0  0  0
  5 57  1  0  0  0  0
  6  7  1  0  0  0  0
  6 58  1  0  0  0  0
  6 59  1  0  0  0  0
  7  8  1  0  0  0  0
  7 60  1  0  0  0  0
  7 61  1  0  0  0  0
  8  9  1  0  0  0  0
  8 62  1  0  0  0  0
  8 63  1  0  0  0  0
  9 10  1  0  0  0  0
  9 64  1  0  0  0  0
  9 65  1  0  0  0  0
 10 11  2  0  0  0  0
 10 12  1  0  0  0  0
 12 13  1  0  0  0  0
 13 14  1  0  0  0  0
 13 66  1  0  0  0  0
 13 67  1  0  0  0  0
 14 15  1  0  0  0  0
 14 68  1  0  0  0  0
 14 69  1  0  0  0  0
 15 70  1  0  0  0  0
 15 71  1  0  0  0  0
 16 15  1  0  0  0  0
 16 17  1  0  0  0  0
 16 72  1  1  0  0  0
 17 18  2  3  0  0  0
 17 22  1  0  0  0  0
 18 19  1  0  0  0  0
 18 20  1  0  0  0  0
 19 73  1  0  0  0  0
 19 74  1  0  0  0  0
 19 75  1  0  0  0  0
 20 21  2  0  0  0  0
 20 76  1  0  0  0  0
 22 23  1  0  0  0  0
 22 77  1  0  0  0  0
 22 78  1  0  0  0  0
 23 24  1  0  0  0  0
 23 79  1  0  0  0  0
 23 80  1  0  0  0  0
 24 25  1  0  0  0  0
 24 26  1  6  0  0  0
 24 27  1  0  0  0  0
 25 81  1  0  0  0  0
 25 82  1  0  0  0  0
 25 83  1  0  0  0  0
 26 84  1  0  0  0  0
 27 28  1  1  0  0  0
 27 16  1  0  0  0  0
 28 29  1  0  0  0  0
 28 85  1  0  0  0  0
 28 86  1  0  0  0  0
 29 87  1  0  0  0  0
 29 88  1  0  0  0  0
 30 29  1  0  0  0  0
 30 31  1  0  0  0  0
 30 45  1  0  0  0  0
 30 89  1  6  0  0  0
 31 32  2  3  0  0  0
 31 43  1  0  0  0  0
 32 33  1  0  0  0  0
 32 90  1  0  0  0  0
 33 34  2  3  0  0  0
 33 91  1  0  0  0  0
 34 35  1  0  0  0  0
 34 92  1  0  0  0  0
 35 36  1  0  0  0  0
 35 37  2  3  0  0  0
 36 93  1  0  0  0  0
 36 94  1  0  0  0  0
 36 95  1  0  0  0  0
 37 38  1  0  0  0  0
 37 96  1  0  0  0  0
 38 39  1  0  0  0  0
 38 97  1  0  0  0  0
 38 98  1  0  0  0  0
 39 40  2  0  0  0  0
 39 99  1  0  0  0  0
 40 41  1  0  0  0  0
 40 42  1  0  0  0  0
 41100  1  0  0  0  0
 41101  1  0  0  0  0
 41102  1  0  0  0  0
 42103  1  0  0  0  0
 42104  1  0  0  0  0
 42105  1  0  0  0  0
 43 44  1  0  0  0  0
 43106  1  0  0  0  0
 43107  1  0  0  0  0
 44108  1  0  0  0  0
 45 46  1  0  0  0  0
 45 27  1  0  0  0  0
 45109  1  1  0  0  0
 46110  1  0  0  0  0
M  END
>  <IDENTIFIER>
CNP0238845.0

>  <Energy>
1021.68

$$$$
