
 OpenBabel09072515313D

 46 48  0  0  0  0  0  0  0  0999 V2000
    4.7736    2.8265    0.0288 C   0  0  0  0  0  0  0  0  0  0  0  0
    3.7425    1.8881   -0.5894 C   0  0  0  0  0  0  0  0  0  0  0  0
    2.9006    1.1947    0.4892 C   0  0  0  0  0  0  0  0  0  0  0  0
    1.9507    0.2770   -0.1222 N   0  0  0  0  0  0  0  0  0  0  0  0
    0.8815    0.6331   -0.8732 C   0  0  0  0  0  0  0  0  0  0  0  0
    0.5979    1.7965   -1.1146 O   0  0  0  0  0  0  0  0  0  0  0  0
    0.0933   -0.5700   -1.3845 C   0  0  2  0  0  0  0  0  0  0  0  0
    0.1521   -0.6642   -2.7868 O   0  0  0  0  0  0  0  0  0  0  0  0
   -1.3871   -0.6398   -0.8834 C   0  0  2  0  0  0  0  0  0  0  0  0
   -2.2756    0.4901   -1.4733 C   0  0  0  0  0  0  0  0  0  0  0  0
   -3.6085    0.4193   -0.9818 O   0  0  0  0  0  0  0  0  0  0  0  0
   -3.7309    0.4807    0.4491 C   0  0  0  0  0  0  0  0  0  0  0  0
   -4.5587   -0.7425    0.8873 C   0  0  0  0  0  0  0  0  0  0  0  0
   -4.4994    1.7585    0.8164 C   0  0  0  0  0  0  0  0  0  0  0  0
   -2.3673    0.4834    1.2081 C   0  0  0  0  0  0  0  0  0  0  0  0
   -1.5199   -0.5987    0.6234 C   0  0  0  0  0  0  0  0  0  0  0  0
   -1.0312   -1.4639    1.3341 O   0  0  0  0  0  0  0  0  0  0  0  0
    0.9406   -1.6674   -0.7924 C   0  0  0  0  0  0  0  0  0  0  0  0
    0.7809   -3.0505   -0.9093 C   0  0  0  0  0  0  0  0  0  0  0  0
    1.7059   -3.8890   -0.2690 C   0  0  0  0  0  0  0  0  0  0  0  0
    2.7693   -3.3401    0.4735 C   0  0  0  0  0  0  0  0  0  0  0  0
    2.9176   -1.9490    0.5791 C   0  0  0  0  0  0  0  0  0  0  0  0
    1.9838   -1.1294   -0.0665 C   0  0  0  0  0  0  0  0  0  0  0  0
    5.3842    3.2887   -0.7746 H   0  0  0  0  0  0  0  0  0  0  0  0
    5.4500    2.2647    0.7082 H   0  0  0  0  0  0  0  0  0  0  0  0
    4.2663    3.6322    0.6017 H   0  0  0  0  0  0  0  0  0  0  0  0
    4.2775    1.1123   -1.1805 H   0  0  0  0  0  0  0  0  0  0  0  0
    3.0932    2.4703   -1.2765 H   0  0  0  0  0  0  0  0  0  0  0  0
    2.3543    1.9345    1.1127 H   0  0  0  0  0  0  0  0  0  0  0  0
    3.5952    0.6465    1.1564 H   0  0  0  0  0  0  0  0  0  0  0  0
   -0.0538    0.2296   -3.1665 H   0  0  0  0  0  0  0  0  0  0  0  0
   -1.8245   -1.6054   -1.2223 H   0  0  0  0  0  0  0  0  0  0  0  0
   -2.3126    0.3871   -2.5771 H   0  0  0  0  0  0  0  0  0  0  0  0
   -1.8706    1.5026   -1.2668 H   0  0  0  0  0  0  0  0  0  0  0  0
   -5.5482   -0.7390    0.3807 H   0  0  0  0  0  0  0  0  0  0  0  0
   -4.7281   -0.7337    1.9858 H   0  0  0  0  0  0  0  0  0  0  0  0
   -4.0419   -1.6875    0.6162 H   0  0  0  0  0  0  0  0  0  0  0  0
   -5.4891    1.7753    0.3115 H   0  0  0  0  0  0  0  0  0  0  0  0
   -3.9301    2.6546    0.4885 H   0  0  0  0  0  0  0  0  0  0  0  0
   -4.6599    1.8222    1.9147 H   0  0  0  0  0  0  0  0  0  0  0  0
   -2.4944    0.3778    2.3084 H   0  0  0  0  0  0  0  0  0  0  0  0
   -1.8404    1.4453    1.0269 H   0  0  0  0  0  0  0  0  0  0  0  0
   -0.0363   -3.4678   -1.4831 H   0  0  0  0  0  0  0  0  0  0  0  0
    1.6033   -4.9633   -0.3461 H   0  0  0  0  0  0  0  0  0  0  0  0
    3.4800   -3.9950    0.9616 H   0  0  0  0  0  0  0  0  0  0  0  0
    3.7449   -1.5441    1.1449 H   0  0  0  0  0  0  0  0  0  0  0  0
  1  2  1  0  0  0  0
  1 24  1  0  0  0  0
  1 25  1  0  0  0  0
  1 26  1  0  0  0  0
  2  3  1  0  0  0  0
  2 27  1  0  0  0  0
  2 28  1  0  0  0  0
  3  4  1  0  0  0  0
  3 29  1  0  0  0  0
  3 30  1  0  0  0  0
  4  5  1  0  0  0  0
  5  6  2  0  0  0  0
  5  7  1  0  0  0  0
  7  8  1  6  0  0  0
  7  9  1  0  0  0  0
  7 18  1  0  0  0  0
  8 31  1  0  0  0  0
  9 10  1  0  0  0  0
  9 32  1  6  0  0  0
 10 11  1  0  0  0  0
 10 33  1  0  0  0  0
 10 34  1  0  0  0  0
 11 12  1  0  0  0  0
 12 13  1  0  0  0  0
 12 14  1  0  0  0  0
 12 15  1  0  0  0  0
 13 35  1  0  0  0  0
 13 36  1  0  0  0  0
 13 37  1  0  0  0  0
 14 38  1  0  0  0  0
 14 39  1  0  0  0  0
 14 40  1  0  0  0  0
 15 16  1  0  0  0  0
 15 41  1  0  0  0  0
 15 42  1  0  0  0  0
 16 17  2  0  0  0  0
 16  9  1  0  0  0  0
 18 19  2  0  0  0  0
 19 20  1  0  0  0  0
 19 43  1  0  0  0  0
 20 21  2  0  0  0  0
 20 44  1  0  0  0  0
 21 22  1  0  0  0  0
 21 45  1  0  0  0  0
 22 23  2  0  0  0  0
 22 46  1  0  0  0  0
 23  4  1  0  0  0  0
 23 18  1  0  0  0  0
M  END
>  <IDENTIFIER>
CNP0122505.3

>  <Energy>
358.681

$$$$
