
 OpenBabel09072506123D

 43 43  0  0  0  0  0  0  0  0999 V2000
   -0.7088    3.1647    0.4254 C   0  0  0  0  0  0  0  0  0  0  0  0
   -1.2956    1.8233   -0.0599 C   0  0  0  0  0  0  0  0  0  0  0  0
   -2.2957    1.1461    0.3914 C   0  0  0  0  0  0  0  0  0  0  0  0
   -3.0728   -0.1053    0.1590 C   0  0  2  0  0  0  0  0  0  0  0  0
   -4.3492   -0.0704    0.8270 O   0  0  0  0  0  0  0  0  0  0  0  0
   -2.5267   -1.4134    0.4724 C   0  0  0  0  0  0  0  0  0  0  0  0
   -1.6180   -2.1348   -0.3543 C   0  0  1  0  0  0  0  0  0  0  0  0
   -2.1122   -2.4717   -1.7147 C   0  0  0  0  0  0  0  0  0  0  0  0
   -0.0962   -1.9602   -0.2809 C   0  0  0  0  0  0  0  0  0  0  0  0
    0.5273   -0.9182   -0.0081 C   0  0  0  0  0  0  0  0  0  0  0  0
    1.2611    0.3077    0.3128 C   0  0  1  0  0  0  0  0  0  0  0  0
    2.7057    0.2159    0.7147 C   0  0  0  0  0  0  0  0  0  0  0  0
    2.9129   -0.6136    1.9474 C   0  0  0  0  0  0  0  0  0  0  0  0
    3.5769   -0.3737   -0.3631 C   0  0  0  0  0  0  0  0  0  0  0  0
    3.1207    1.5272    0.9830 O   0  0  0  0  0  0  0  0  0  0  0  0
    1.0827    1.3829   -0.7611 C   0  0  0  0  0  0  0  0  0  0  0  0
   -0.3250    1.5425   -1.2170 C   0  0  0  0  0  0  0  0  0  0  0  0
   -1.2788    3.5234    1.2569 H   0  0  0  0  0  0  0  0  0  0  0  0
   -0.7487    3.8799   -0.3695 H   0  0  0  0  0  0  0  0  0  0  0  0
    0.3082    3.0214    0.7255 H   0  0  0  0  0  0  0  0  0  0  0  0
   -2.7014    1.6465    1.1977 H   0  0  0  0  0  0  0  0  0  0  0  0
   -3.0875   -0.0571   -0.9098 H   0  0  0  0  0  0  0  0  0  0  0  0
   -4.2136   -0.1199    1.7862 H   0  0  0  0  0  0  0  0  0  0  0  0
   -3.3739   -2.0554    0.5944 H   0  0  0  0  0  0  0  0  0  0  0  0
   -1.8879   -1.1660    1.2943 H   0  0  0  0  0  0  0  0  0  0  0  0
   -1.6661   -2.9981    0.2760 H   0  0  0  0  0  0  0  0  0  0  0  0
   -2.0607   -1.6035   -2.3380 H   0  0  0  0  0  0  0  0  0  0  0  0
   -3.1265   -2.8067   -1.6529 H   0  0  0  0  0  0  0  0  0  0  0  0
   -1.5052   -3.2474   -2.1327 H   0  0  0  0  0  0  0  0  0  0  0  0
    0.4729   -2.7980   -0.4793 H   0  0  0  0  0  0  0  0  0  0  0  0
   -0.3498   -0.4762    0.3087 H   0  0  0  0  0  0  0  0  0  0  0  0
    0.7794    0.5816    1.2281 H   0  0  0  0  0  0  0  0  0  0  0  0
    2.6000   -1.6190    1.7575 H   0  0  0  0  0  0  0  0  0  0  0  0
    2.3368   -0.2067    2.7521 H   0  0  0  0  0  0  0  0  0  0  0  0
    3.9497   -0.6067    2.2119 H   0  0  0  0  0  0  0  0  0  0  0  0
    3.2611   -1.3751   -0.5690 H   0  0  0  0  0  0  0  0  0  0  0  0
    4.5951   -0.3813   -0.0343 H   0  0  0  0  0  0  0  0  0  0  0  0
    3.4935    0.2164   -1.2517 H   0  0  0  0  0  0  0  0  0  0  0  0
    2.5603    1.9081    1.6771 H   0  0  0  0  0  0  0  0  0  0  0  0
    1.6841    1.1199   -1.6061 H   0  0  0  0  0  0  0  0  0  0  0  0
    1.3785    2.3140   -0.3248 H   0  0  0  0  0  0  0  0  0  0  0  0
   -0.6297    0.6421   -1.7083 H   0  0  0  0  0  0  0  0  0  0  0  0
   -0.3572    2.3842   -1.8768 H   0  0  0  0  0  0  0  0  0  0  0  0
  1  2  1  0  0  0  0
  1 18  1  0  0  0  0
  1 19  1  0  0  0  0
  1 20  1  0  0  0  0
  2  3  2  0  0  0  0
  3  4  1  0  0  0  0
  3 21  1  0  0  0  0
  4  5  1  0  0  0  0
  4  6  1  0  0  0  0
  4 22  1  6  0  0  0
  5 23  1  0  0  0  0
  6  7  1  0  0  0  0
  6 24  1  0  0  0  0
  6 25  1  0  0  0  0
  7  8  1  0  0  0  0
  7  9  1  0  0  0  0
  7 26  1  1  0  0  0
  8 27  1  0  0  0  0
  8 28  1  0  0  0  0
  8 29  1  0  0  0  0
  9 10  2  3  0  0  0
  9 30  1  0  0  0  0
 10 11  1  0  0  0  0
 10 31  1  0  0  0  0
 11 12  1  0  0  0  0
 11 16  1  0  0  0  0
 11 32  1  1  0  0  0
 12 13  1  0  0  0  0
 12 14  1  0  0  0  0
 12 15  1  0  0  0  0
 13 33  1  0  0  0  0
 13 34  1  0  0  0  0
 13 35  1  0  0  0  0
 14 36  1  0  0  0  0
 14 37  1  0  0  0  0
 14 38  1  0  0  0  0
 15 39  1  0  0  0  0
 16 17  1  0  0  0  0
 16 40  1  0  0  0  0
 16 41  1  0  0  0  0
 17  2  1  0  0  0  0
 17 42  1  0  0  0  0
 17 43  1  0  0  0  0
M  END
>  <IDENTIFIER>
CNP0176793.3

>  <Energy>
1886.62

$$$$
