
 OpenBabel09102523263D

158167  0  0  0  0  0  0  0  0999 V2000
    0.9908    2.4163    1.0774 C   0  0  0  0  0  0  0  0  0  0  0  0
    0.4923    0.9533    0.8172 C   0  0  0  0  0  0  0  0  0  0  0  0
   -0.5476    0.6419    1.9234 C   0  0  0  0  0  0  0  0  0  0  0  0
   -0.2114    0.9280   -0.5573 C   0  0  1  0  0  0  0  0  0  0  0  0
   -1.2496    1.8998   -0.5951 O   0  0  0  0  0  0  0  0  0  0  0  0
   -2.4886    1.3475   -0.9723 C   0  0  2  0  0  0  0  0  0  0  0  0
   -2.5010    1.1951   -2.3979 O   0  0  0  0  0  0  0  0  0  0  0  0
   -3.7995    1.1898   -2.9958 C   0  0  0  0  0  0  0  0  0  0  0  0
   -4.8869    0.7205   -2.0211 C   0  0  2  0  0  0  0  0  0  0  0  0
   -6.1451    0.5671   -2.6529 O   0  0  0  0  0  0  0  0  0  0  0  0
   -6.3221   -0.7411   -3.1894 C   0  0  2  0  0  0  0  0  0  0  0  0
   -6.3114   -0.6752   -4.6034 O   0  0  0  0  0  0  0  0  0  0  0  0
   -7.4185    0.0166   -5.1863 C   0  0  2  0  0  0  0  0  0  0  0  0
   -7.0442    1.4708   -5.5221 C   0  0  0  0  0  0  0  0  0  0  0  0
   -8.0846    2.1180   -6.2030 O   0  0  0  0  0  0  0  0  0  0  0  0
   -8.7430   -0.0768   -4.3711 C   0  0  1  0  0  0  0  0  0  0  0  0
   -9.8623    0.0742   -5.2083 O   0  0  0  0  0  0  0  0  0  0  0  0
   -8.7475   -1.4169   -3.6308 C   0  0  2  0  0  0  0  0  0  0  0  0
   -9.9836   -1.6807   -3.0101 O   0  0  0  0  0  0  0  0  0  0  0  0
   -7.6099   -1.3808   -2.5976 C   0  0  1  0  0  0  0  0  0  0  0  0
   -7.3705   -2.7036   -2.1348 O   0  0  0  0  0  0  0  0  0  0  0  0
   -7.4876   -2.8327   -0.7221 C   0  0  2  0  0  0  0  0  0  0  0  0
   -6.2098   -2.7825   -0.1248 O   0  0  0  0  0  0  0  0  0  0  0  0
   -6.2540   -2.8266    1.3055 C   0  0  0  0  0  0  0  0  0  0  0  0
   -7.5449   -3.4511    1.9278 C   0  0  1  0  0  0  0  0  0  0  0  0
   -8.6105   -2.5340    1.9614 O   0  0  0  0  0  0  0  0  0  0  0  0
   -7.9365   -4.6533    1.0532 C   0  0  2  0  0  0  0  0  0  0  0  0
   -6.9158   -5.6263    1.1064 O   0  0  0  0  0  0  0  0  0  0  0  0
   -8.2024   -4.1768   -0.4123 C   0  0  1  0  0  0  0  0  0  0  0  0
   -9.5792   -4.0464   -0.6755 O   0  0  0  0  0  0  0  0  0  0  0  0
   -4.9854    1.6986   -0.8287 C   0  0  2  0  0  0  0  0  0  0  0  0
   -5.9200    2.7288   -1.0342 O   0  0  0  0  0  0  0  0  0  0  0  0
   -3.6004    2.2997   -0.4896 C   0  0  1  0  0  0  0  0  0  0  0  0
   -3.5124    2.4988    0.9153 O   0  0  0  0  0  0  0  0  0  0  0  0
   -3.3253    3.8495    1.3182 C   0  0  2  0  0  0  0  0  0  0  0  0
   -2.0574    3.9013    1.9847 O   0  0  0  0  0  0  0  0  0  0  0  0
   -2.0360    4.7700    3.0996 C   0  0  2  0  0  0  0  0  0  0  0  0
   -0.6005    4.8995    3.6245 C   0  0  0  0  0  0  0  0  0  0  0  0
   -0.0977    3.6477    4.0141 O   0  0  0  0  0  0  0  0  0  0  0  0
   -3.0132    4.2925    4.2204 C   0  0  1  0  0  0  0  0  0  0  0  0
   -3.2986    5.3659    5.0856 O   0  0  0  0  0  0  0  0  0  0  0  0
   -4.3137    3.6675    3.6208 C   0  0  2  0  0  0  0  0  0  0  0  0
   -4.2363    2.2586    3.5518 O   0  0  0  0  0  0  0  0  0  0  0  0
   -4.5577    4.2437    2.2173 C   0  0  1  0  0  0  0  0  0  0  0  0
   -4.7498    5.6368    2.3379 O   0  0  0  0  0  0  0  0  0  0  0  0
    0.7537    1.1926   -1.7406 C   0  0  0  0  0  0  0  0  0  0  0  0
    2.2334    0.8225   -1.4778 C   0  0  0  0  0  0  0  0  0  0  0  0
    2.4198   -0.4134   -0.5580 C   0  0  1  0  0  0  0  0  0  0  0  0
    1.7641   -1.6192   -1.3302 C   0  0  0  0  0  0  0  0  0  0  0  0
    3.9602   -0.8396   -0.3796 C   0  0  1  0  0  0  0  0  0  0  0  0
    4.8272   -0.5468   -1.6424 C   0  0  0  0  0  0  0  0  0  0  0  0
    6.2389   -1.1332   -1.5663 C   0  0  0  0  0  0  0  0  0  0  0  0
    7.0212   -0.7066   -0.3000 C   0  0  2  0  0  0  0  0  0  0  0  0
    7.2743    0.6992   -0.2797 O   0  0  0  0  0  0  0  0  0  0  0  0
    8.5777    0.9040    0.2768 C   0  0  0  0  0  0  0  0  0  0  0  0
    9.0956   -0.4764    0.7223 C   0  0  2  0  0  0  0  0  0  0  0  0
   10.6443   -0.5958    0.6664 C   0  0  0  0  0  0  0  0  0  0  0  0
   11.1151   -2.0698    0.5904 C   0  0  0  0  0  0  0  0  0  0  0  0
   10.4576   -2.8463   -0.5984 C   0  0  2  0  0  0  0  0  0  0  0  0
   10.8545   -4.3382   -0.5089 C   0  0  0  0  0  0  0  0  0  0  0  0
   10.9490   -2.2668   -1.9278 C   0  0  0  0  0  0  0  0  0  0  0  0
   11.5466   -2.9637   -2.7439 O   0  0  0  0  0  0  0  0  0  0  0  0
    8.9006   -2.7431   -0.4824 C   0  0  0  0  0  0  0  0  0  0  0  0
    8.4639   -1.2621   -0.3976 C   0  0  1  0  0  0  0  0  0  0  0  0
    8.5031   -0.8496    2.1482 C   0  0  2  0  0  0  0  0  0  0  0  0
    8.7564   -2.1846    2.4895 O   0  0  0  0  0  0  0  0  0  0  0  0
    6.9847   -0.5379    2.2377 C   0  0  0  0  0  0  0  0  0  0  0  0
    6.1693   -1.0618    1.0093 C   0  0  2  0  0  0  0  0  0  0  0  0
    5.9965   -2.6119    1.2026 C   0  0  0  0  0  0  0  0  0  0  0  0
    4.6968   -0.3463    0.9160 C   0  0  1  0  0  0  0  0  0  0  0  0
    4.7893    1.2305    0.9114 C   0  0  0  0  0  0  0  0  0  0  0  0
    3.7961   -0.7900    2.1154 C   0  0  0  0  0  0  0  0  0  0  0  0
    2.4759   -0.0443    2.1451 C   0  0  0  0  0  0  0  0  0  0  0  0
    1.6314   -0.1845    0.8418 C   0  0  1  0  0  0  0  0  0  0  0  0
    0.1478    3.1310    1.0092 H   0  0  0  0  0  0  0  0  0  0  0  0
    1.7385    2.7888    0.3655 H   0  0  0  0  0  0  0  0  0  0  0  0
    1.3952    2.5600    2.0952 H   0  0  0  0  0  0  0  0  0  0  0  0
   -1.3791    1.3716    1.9065 H   0  0  0  0  0  0  0  0  0  0  0  0
   -0.0957    0.6988    2.9344 H   0  0  0  0  0  0  0  0  0  0  0  0
   -0.9829   -0.3706    1.7860 H   0  0  0  0  0  0  0  0  0  0  0  0
   -0.5876   -0.1152   -0.6427 H   0  0  0  0  0  0  0  0  0  0  0  0
   -2.6569    0.3691   -0.4628 H   0  0  0  0  0  0  0  0  0  0  0  0
   -3.7692    0.4836   -3.8514 H   0  0  0  0  0  0  0  0  0  0  0  0
   -4.0390    2.1994   -3.3967 H   0  0  0  0  0  0  0  0  0  0  0  0
   -4.5137   -0.2361   -1.5840 H   0  0  0  0  0  0  0  0  0  0  0  0
   -5.4961   -1.4403   -2.9247 H   0  0  0  0  0  0  0  0  0  0  0  0
   -7.5984   -0.5244   -6.1400 H   0  0  0  0  0  0  0  0  0  0  0  0
   -6.1116    1.5014   -6.1305 H   0  0  0  0  0  0  0  0  0  0  0  0
   -6.8348    2.0369   -4.5905 H   0  0  0  0  0  0  0  0  0  0  0  0
   -8.0548    1.7944   -7.1403 H   0  0  0  0  0  0  0  0  0  0  0  0
   -8.7831    0.7221   -3.5954 H   0  0  0  0  0  0  0  0  0  0  0  0
   -9.9062   -0.7133   -5.8043 H   0  0  0  0  0  0  0  0  0  0  0  0
   -8.5600   -2.2202   -4.3769 H   0  0  0  0  0  0  0  0  0  0  0  0
  -10.1760   -0.9334   -2.3888 H   0  0  0  0  0  0  0  0  0  0  0  0
   -7.9299   -0.6768   -1.7944 H   0  0  0  0  0  0  0  0  0  0  0  0
   -8.1013   -2.0210   -0.2731 H   0  0  0  0  0  0  0  0  0  0  0  0
   -6.0446   -1.8250    1.7372 H   0  0  0  0  0  0  0  0  0  0  0  0
   -5.4115   -3.4809    1.6115 H   0  0  0  0  0  0  0  0  0  0  0  0
   -7.3477   -3.7746    2.9753 H   0  0  0  0  0  0  0  0  0  0  0  0
   -8.2814   -1.7144    2.4122 H   0  0  0  0  0  0  0  0  0  0  0  0
   -8.8516   -5.1543    1.4393 H   0  0  0  0  0  0  0  0  0  0  0  0
   -6.1963   -5.3825    0.4672 H   0  0  0  0  0  0  0  0  0  0  0  0
   -7.8289   -4.9794   -1.0846 H   0  0  0  0  0  0  0  0  0  0  0  0
   -9.9538   -3.3903   -0.0315 H   0  0  0  0  0  0  0  0  0  0  0  0
   -5.3599    1.0770    0.0160 H   0  0  0  0  0  0  0  0  0  0  0  0
   -5.6682    3.2026   -1.8686 H   0  0  0  0  0  0  0  0  0  0  0  0
   -3.4401    3.2149   -1.1056 H   0  0  0  0  0  0  0  0  0  0  0  0
   -3.2986    4.5483    0.4541 H   0  0  0  0  0  0  0  0  0  0  0  0
   -2.3229    5.7841    2.7437 H   0  0  0  0  0  0  0  0  0  0  0  0
   -0.5549    5.6311    4.4649 H   0  0  0  0  0  0  0  0  0  0  0  0
    0.0532    5.2983    2.8197 H   0  0  0  0  0  0  0  0  0  0  0  0
   -0.1982    3.5818    4.9989 H   0  0  0  0  0  0  0  0  0  0  0  0
   -2.5586    3.5017    4.8536 H   0  0  0  0  0  0  0  0  0  0  0  0
   -3.8030    6.0502    4.5746 H   0  0  0  0  0  0  0  0  0  0  0  0
   -5.1621    3.8879    4.3046 H   0  0  0  0  0  0  0  0  0  0  0  0
   -3.3000    1.9856    3.3682 H   0  0  0  0  0  0  0  0  0  0  0  0
   -5.4846    3.8278    1.7639 H   0  0  0  0  0  0  0  0  0  0  0  0
   -4.3205    6.1044    1.5777 H   0  0  0  0  0  0  0  0  0  0  0  0
    0.7526    2.2632   -2.0381 H   0  0  0  0  0  0  0  0  0  0  0  0
    0.3472    0.6266   -2.6086 H   0  0  0  0  0  0  0  0  0  0  0  0
    2.7581    1.6734   -1.0354 H   0  0  0  0  0  0  0  0  0  0  0  0
    2.7034    0.7000   -2.4760 H   0  0  0  0  0  0  0  0  0  0  0  0
    2.2659   -1.8058   -2.3012 H   0  0  0  0  0  0  0  0  0  0  0  0
    0.6932   -1.5029   -1.5549 H   0  0  0  0  0  0  0  0  0  0  0  0
    1.8418   -2.5554   -0.7330 H   0  0  0  0  0  0  0  0  0  0  0  0
    3.9290   -1.9359   -0.2606 H   0  0  0  0  0  0  0  0  0  0  0  0
    4.9172    0.5475   -1.7970 H   0  0  0  0  0  0  0  0  0  0  0  0
    4.3513   -0.9717   -2.5496 H   0  0  0  0  0  0  0  0  0  0  0  0
    6.7898   -0.8244   -2.4808 H   0  0  0  0  0  0  0  0  0  0  0  0
    6.1581   -2.2372   -1.5919 H   0  0  0  0  0  0  0  0  0  0  0  0
    8.5906    1.6509    1.0985 H   0  0  0  0  0  0  0  0  0  0  0  0
    9.2044    1.3072   -0.5504 H   0  0  0  0  0  0  0  0  0  0  0  0
   11.1076   -0.0685    1.5276 H   0  0  0  0  0  0  0  0  0  0  0  0
   11.0173   -0.0921   -0.2492 H   0  0  0  0  0  0  0  0  0  0  0  0
   10.8704   -2.5794    1.5431 H   0  0  0  0  0  0  0  0  0  0  0  0
   12.2216   -2.0995    0.4970 H   0  0  0  0  0  0  0  0  0  0  0  0
   11.9565   -4.4559   -0.5751 H   0  0  0  0  0  0  0  0  0  0  0  0
   10.3846   -4.9133   -1.3380 H   0  0  0  0  0  0  0  0  0  0  0  0
   10.5149   -4.7803    0.4511 H   0  0  0  0  0  0  0  0  0  0  0  0
   10.7958   -1.2296   -2.1840 H   0  0  0  0  0  0  0  0  0  0  0  0
    8.6312   -3.3171    0.4035 H   0  0  0  0  0  0  0  0  0  0  0  0
    8.4191   -3.2340   -1.3562 H   0  0  0  0  0  0  0  0  0  0  0  0
    8.8344   -0.8616   -1.3710 H   0  0  0  0  0  0  0  0  0  0  0  0
    9.0135   -0.2092    2.9057 H   0  0  0  0  0  0  0  0  0  0  0  0
    8.5166   -2.2937    3.4468 H   0  0  0  0  0  0  0  0  0  0  0  0
    6.9394    0.5607    2.2646 H   0  0  0  0  0  0  0  0  0  0  0  0
    6.5587   -0.8699    3.2091 H   0  0  0  0  0  0  0  0  0  0  0  0
    5.4229   -2.8469    2.1169 H   0  0  0  0  0  0  0  0  0  0  0  0
    6.9141   -3.1478    1.3990 H   0  0  0  0  0  0  0  0  0  0  0  0
    5.5261   -3.1333    0.3514 H   0  0  0  0  0  0  0  0  0  0  0  0
    5.1909    1.6340    1.8591 H   0  0  0  0  0  0  0  0  0  0  0  0
    3.8158    1.7179    0.7995 H   0  0  0  0  0  0  0  0  0  0  0  0
    5.3285    1.6775    0.0683 H   0  0  0  0  0  0  0  0  0  0  0  0
    4.3050   -0.5888    3.0811 H   0  0  0  0  0  0  0  0  0  0  0  0
    3.5493   -1.8704    2.0671 H   0  0  0  0  0  0  0  0  0  0  0  0
    2.7286    0.9917    2.3920 H   0  0  0  0  0  0  0  0  0  0  0  0
    1.8797   -0.3844    3.0189 H   0  0  0  0  0  0  0  0  0  0  0  0
    1.1406   -1.1717    0.9977 H   0  0  0  0  0  0  0  0  0  0  0  0
  1  2  1  0  0  0  0
  1 75  1  0  0  0  0
  1 76  1  0  0  0  0
  1 77  1  0  0  0  0
  2  3  1  0  0  0  0
  2  4  1  0  0  0  0
  3 78  1  0  0  0  0
  3 79  1  0  0  0  0
  3 80  1  0  0  0  0
  4  5  1  0  0  0  0
  4 46  1  0  0  0  0
  4 81  1  6  0  0  0
  6  5  1  0  0  0  0
  6  7  1  0  0  0  0
  6 82  1  1  0  0  0
  7  8  1  0  0  0  0
  8  9  1  0  0  0  0
  8 83  1  0  0  0  0
  8 84  1  0  0  0  0
  9 10  1  0  0  0  0
  9 31  1  0  0  0  0
  9 85  1  1  0  0  0
 11 10  1  0  0  0  0
 11 12  1  0  0  0  0
 11 86  1  1  0  0  0
 12 13  1  0  0  0  0
 13 14  1  0  0  0  0
 13 16  1  0  0  0  0
 13 87  1  6  0  0  0
 14 15  1  0  0  0  0
 14 88  1  0  0  0  0
 14 89  1  0  0  0  0
 15 90  1  0  0  0  0
 16 17  1  0  0  0  0
 16 18  1  0  0  0  0
 16 91  1  1  0  0  0
 17 92  1  0  0  0  0
 18 19  1  0  0  0  0
 18 20  1  0  0  0  0
 18 93  1  6  0  0  0
 19 94  1  0  0  0  0
 20 21  1  0  0  0  0
 20 11  1  0  0  0  0
 20 95  1  1  0  0  0
 22 21  1  0  0  0  0
 22 23  1  0  0  0  0
 22 96  1  1  0  0  0
 23 24  1  0  0  0  0
 24 25  1  0  0  0  0
 24 97  1  0  0  0  0
 24 98  1  0  0  0  0
 25 26  1  0  0  0  0
 25 27  1  0  0  0  0
 25 99  1  1  0  0  0
 26100  1  0  0  0  0
 27 28  1  0  0  0  0
 27 29  1  0  0  0  0
 27101  1  1  0  0  0
 28102  1  0  0  0  0
 29 30  1  0  0  0  0
 29 22  1  0  0  0  0
 29103  1  6  0  0  0
 30104  1  0  0  0  0
 31 32  1  0  0  0  0
 31 33  1  0  0  0  0
 31105  1  1  0  0  0
 32106  1  0  0  0  0
 33 34  1  0  0  0  0
 33  6  1  0  0  0  0
 33107  1  6  0  0  0
 35 34  1  0  0  0  0
 35 36  1  0  0  0  0
 35108  1  6  0  0  0
 36 37  1  0  0  0  0
 37 38  1  0  0  0  0
 37 40  1  0  0  0  0
 37109  1  6  0  0  0
 38 39  1  0  0  0  0
 38110  1  0  0  0  0
 38111  1  0  0  0  0
 39112  1  0  0  0  0
 40 41  1  0  0  0  0
 40 42  1  0  0  0  0
 40113  1  1  0  0  0
 41114  1  0  0  0  0
 42 43  1  0  0  0  0
 42 44  1  0  0  0  0
 42115  1  1  0  0  0
 43116  1  0  0  0  0
 44 45  1  0  0  0  0
 44 35  1  0  0  0  0
 44117  1  6  0  0  0
 45118  1  0  0  0  0
 46 47  1  0  0  0  0
 46119  1  0  0  0  0
 46120  1  0  0  0  0
 47 48  1  0  0  0  0
 47121  1  0  0  0  0
 47122  1  0  0  0  0
 48 49  1  6  0  0  0
 48 50  1  0  0  0  0
 49123  1  0  0  0  0
 49124  1  0  0  0  0
 49125  1  0  0  0  0
 50 51  1  0  0  0  0
 50126  1  1  0  0  0
 51 52  1  0  0  0  0
 51127  1  0  0  0  0
 51128  1  0  0  0  0
 52129  1  0  0  0  0
 52130  1  0  0  0  0
 53 52  1  0  0  0  0
 53 54  1  6  0  0  0
 54 55  1  0  0  0  0
 55131  1  0  0  0  0
 55132  1  0  0  0  0
 56 55  1  6  0  0  0
 56 57  1  0  0  0  0
 56 65  1  0  0  0  0
 57 58  1  0  0  0  0
 57133  1  0  0  0  0
 57134  1  0  0  0  0
 58 59  1  0  0  0  0
 58135  1  0  0  0  0
 58136  1  0  0  0  0
 59 60  1  0  0  0  0
 59 61  1  6  0  0  0
 59 63  1  0  0  0  0
 60137  1  0  0  0  0
 60138  1  0  0  0  0
 60139  1  0  0  0  0
 61 62  2  0  0  0  0
 61140  1  0  0  0  0
 63141  1  0  0  0  0
 63142  1  0  0  0  0
 64 63  1  0  0  0  0
 64 53  1  0  0  0  0
 64 56  1  0  0  0  0
 64143  1  6  0  0  0
 65 66  1  0  0  0  0
 65 67  1  0  0  0  0
 65144  1  1  0  0  0
 66145  1  0  0  0  0
 67 68  1  0  0  0  0
 67146  1  0  0  0  0
 67147  1  0  0  0  0
 68 69  1  1  0  0  0
 68 70  1  0  0  0  0
 68 53  1  0  0  0  0
 69148  1  0  0  0  0
 69149  1  0  0  0  0
 69150  1  0  0  0  0
 70 71  1  6  0  0  0
 70 72  1  0  0  0  0
 70 50  1  0  0  0  0
 71151  1  0  0  0  0
 71152  1  0  0  0  0
 71153  1  0  0  0  0
 72 73  1  0  0  0  0
 72154  1  0  0  0  0
 72155  1  0  0  0  0
 73156  1  0  0  0  0
 73157  1  0  0  0  0
 74 73  1  0  0  0  0
 74  2  1  0  0  0  0
 74 48  1  0  0  0  0
 74158  1  1  0  0  0
M  END
>  <IDENTIFIER>
CNP0158856.2

>  <Energy>
2451.39

$$$$
