
 OpenBabel09042519493D

113118  0  0  0  0  0  0  0  0999 V2000
   -4.7843   -1.9098    5.6206 C   0  0  0  0  0  0  0  0  0  0  0  0
   -4.2674   -1.7393    4.2215 C   0  0  0  0  0  0  0  0  0  0  0  0
   -4.2485   -2.7200    3.2869 C   0  0  0  0  0  0  0  0  0  0  0  0
   -4.7587   -4.1166    3.5689 C   0  0  0  0  0  0  0  0  0  0  0  0
   -3.7301   -2.4270    1.9206 C   0  0  0  0  0  0  0  0  0  0  0  0
   -3.7502   -3.3013    1.0651 O   0  0  0  0  0  0  0  0  0  0  0  0
   -3.2461   -1.1890    1.6301 O   0  0  0  0  0  0  0  0  0  0  0  0
   -2.8669   -0.7208    0.3805 C   0  0  1  0  0  0  0  0  0  0  0  0
   -3.6987    0.6243   -0.0312 C   0  0  2  0  0  0  0  0  0  0  0  0
   -5.1043    0.1042   -0.5195 C   0  0  2  0  0  0  0  0  0  0  0  0
   -5.7150   -0.6037    0.5300 O   0  0  0  0  0  0  0  0  0  0  0  0
   -6.9204   -1.2476    0.6018 C   0  0  0  0  0  0  0  0  0  0  0  0
   -7.3976   -1.7661    1.9191 C   0  0  0  0  0  0  0  0  0  0  0  0
   -7.6299   -1.3990   -0.3808 O   0  0  0  0  0  0  0  0  0  0  0  0
   -5.2821   -0.6105   -1.8424 C   0  0  0  0  0  0  0  0  0  0  0  0
   -6.4190    0.1847   -2.1503 O   0  0  0  0  0  0  0  0  0  0  0  0
   -6.0987    1.0849   -1.1025 C   0  0  2  0  0  0  0  0  0  0  0  0
   -5.5307    2.3556   -1.7289 C   0  0  0  0  0  0  0  0  0  0  0  0
   -4.3915    2.9553   -0.8836 C   0  0  2  0  0  0  0  0  0  0  0  0
   -4.0578    4.2442   -1.3646 O   0  0  0  0  0  0  0  0  0  0  0  0
   -3.1058    2.0069   -0.8040 C   0  0  2  0  0  0  0  0  0  0  0  0
   -2.5876    1.9039   -2.2899 C   0  0  0  0  0  0  0  0  0  0  0  0
   -1.9981    2.8420    0.0179 C   0  0  0  0  0  0  0  0  0  0  0  0
   -2.4133    3.7927    0.6714 O   0  0  0  0  0  0  0  0  0  0  0  0
   -0.4267    2.7080    0.0946 C   0  0  2  0  0  0  0  0  0  0  0  0
    0.0476    3.0542   -1.1600 O   0  0  0  0  0  0  0  0  0  0  0  0
    0.6982    4.2099   -1.4708 C   0  0  0  0  0  0  0  0  0  0  0  0
    1.2770    4.3815   -2.8373 C   0  0  0  0  0  0  0  0  0  0  0  0
    0.8305    5.1039   -0.6471 O   0  0  0  0  0  0  0  0  0  0  0  0
    0.1062    1.3208    0.5499 C   0  0  0  0  0  0  0  0  0  0  0  0
    1.1179    0.6204   -0.1149 C   0  0  0  0  0  0  0  0  0  0  0  0
    2.1762    1.2737   -0.9595 C   0  0  0  0  0  0  0  0  0  0  0  0
    1.0492   -0.9538   -0.2478 C   0  0  1  0  0  0  0  0  0  0  0  0
    2.2184   -1.6093    0.1251 O   0  0  0  0  0  0  0  0  0  0  0  0
    3.0277   -2.2698   -0.7598 C   0  0  0  0  0  0  0  0  0  0  0  0
    2.6848   -2.4113   -1.9262 O   0  0  0  0  0  0  0  0  0  0  0  0
    4.3639   -2.8521   -0.3438 C   0  0  2  0  0  0  0  0  0  0  0  0
    4.5962   -2.7054    1.0375 O   0  0  0  0  0  0  0  0  0  0  0  0
    5.5223   -2.2498   -1.2003 C   0  0  1  0  0  0  0  0  0  0  0  0
    5.6793   -0.8299   -0.8972 N   0  0  0  0  0  0  0  0  0  0  0  0
    5.4862    0.1640   -1.8175 C   0  0  0  0  0  0  0  0  0  0  0  0
    5.1788   -0.1320   -2.9651 O   0  0  0  0  0  0  0  0  0  0  0  0
    5.6214    1.6185   -1.4694 C   0  0  0  0  0  0  0  0  0  0  0  0
    5.4410    2.5878   -2.4803 C   0  0  0  0  0  0  0  0  0  0  0  0
    5.5395    3.9522   -2.1935 C   0  0  0  0  0  0  0  0  0  0  0  0
    5.8165    4.3766   -0.8950 C   0  0  0  0  0  0  0  0  0  0  0  0
    5.9968    3.4375    0.1194 C   0  0  0  0  0  0  0  0  0  0  0  0
    5.9022    2.0705   -0.1587 C   0  0  0  0  0  0  0  0  0  0  0  0
    6.8730   -2.9417   -1.0728 C   0  0  0  0  0  0  0  0  0  0  0  0
    7.9298   -2.4715   -1.8787 C   0  0  0  0  0  0  0  0  0  0  0  0
    9.1892   -3.0727   -1.8329 C   0  0  0  0  0  0  0  0  0  0  0  0
    9.4150   -4.1563   -0.9847 C   0  0  0  0  0  0  0  0  0  0  0  0
    8.3810   -4.6386   -0.1799 C   0  0  0  0  0  0  0  0  0  0  0  0
    7.1168   -4.0393   -0.2188 C   0  0  0  0  0  0  0  0  0  0  0  0
   -0.2873   -1.6643    0.2723 C   0  0  0  0  0  0  0  0  0  0  0  0
   -1.3582   -0.5335    0.3006 C   0  0  1  0  0  0  0  0  0  0  0  0
   -1.2779   -0.0465   -1.0186 O   0  0  0  0  0  0  0  0  0  0  0  0
   -0.7850    0.4853    1.4160 C   0  0  0  0  0  0  0  0  0  0  0  0
   -1.7706    1.2575    2.3857 C   0  0  0  0  0  0  0  0  0  0  0  0
    0.1297   -0.1400    2.5615 C   0  0  0  0  0  0  0  0  0  0  0  0
   -4.6897   -0.9505    6.1721 H   0  0  0  0  0  0  0  0  0  0  0  0
   -4.1958   -2.6838    6.1559 H   0  0  0  0  0  0  0  0  0  0  0  0
   -5.8571   -2.1955    5.5978 H   0  0  0  0  0  0  0  0  0  0  0  0
   -3.9027   -0.7509    3.9705 H   0  0  0  0  0  0  0  0  0  0  0  0
   -5.1365   -4.2528    4.6011 H   0  0  0  0  0  0  0  0  0  0  0  0
   -3.9387   -4.8472    3.4092 H   0  0  0  0  0  0  0  0  0  0  0  0
   -5.5909   -4.3511    2.8726 H   0  0  0  0  0  0  0  0  0  0  0  0
   -3.0886   -1.4891   -0.3968 H   0  0  0  0  0  0  0  0  0  0  0  0
   -4.0071    1.0617    0.9282 H   0  0  0  0  0  0  0  0  0  0  0  0
   -6.6695   -1.5232    2.7171 H   0  0  0  0  0  0  0  0  0  0  0  0
   -7.5310   -2.8666    1.8659 H   0  0  0  0  0  0  0  0  0  0  0  0
   -8.3675   -1.2908    2.1756 H   0  0  0  0  0  0  0  0  0  0  0  0
   -5.4912   -1.6978   -1.7459 H   0  0  0  0  0  0  0  0  0  0  0  0
   -4.4863   -0.4013   -2.5823 H   0  0  0  0  0  0  0  0  0  0  0  0
   -6.9093    1.3148   -0.3747 H   0  0  0  0  0  0  0  0  0  0  0  0
   -6.3702    3.0743   -1.8495 H   0  0  0  0  0  0  0  0  0  0  0  0
   -5.1677    2.1645   -2.7565 H   0  0  0  0  0  0  0  0  0  0  0  0
   -4.8064    3.1095    0.1379 H   0  0  0  0  0  0  0  0  0  0  0  0
   -4.1935    4.2848   -2.3472 H   0  0  0  0  0  0  0  0  0  0  0  0
   -2.4828    2.9137   -2.7332 H   0  0  0  0  0  0  0  0  0  0  0  0
   -3.2420    1.3166   -2.9495 H   0  0  0  0  0  0  0  0  0  0  0  0
   -1.5699    1.5293   -2.4562 H   0  0  0  0  0  0  0  0  0  0  0  0
   -0.0647    3.4375    0.8543 H   0  0  0  0  0  0  0  0  0  0  0  0
    1.0795    3.4797   -3.4542 H   0  0  0  0  0  0  0  0  0  0  0  0
    2.3754    4.5272   -2.7583 H   0  0  0  0  0  0  0  0  0  0  0  0
    0.8230    5.2661   -3.3299 H   0  0  0  0  0  0  0  0  0  0  0  0
    2.2808    2.3535   -0.7650 H   0  0  0  0  0  0  0  0  0  0  0  0
    2.0138    1.0674   -2.0374 H   0  0  0  0  0  0  0  0  0  0  0  0
    3.1456    0.8449   -0.6485 H   0  0  0  0  0  0  0  0  0  0  0  0
    0.9260   -1.0305   -1.3509 H   0  0  0  0  0  0  0  0  0  0  0  0
    4.2922   -3.9398   -0.5631 H   0  0  0  0  0  0  0  0  0  0  0  0
    4.4570   -1.7537    1.2804 H   0  0  0  0  0  0  0  0  0  0  0  0
    5.2335   -2.3973   -2.2658 H   0  0  0  0  0  0  0  0  0  0  0  0
    5.9621   -0.5976    0.0622 H   0  0  0  0  0  0  0  0  0  0  0  0
    5.2200    2.2939   -3.4988 H   0  0  0  0  0  0  0  0  0  0  0  0
    5.3979    4.6818   -2.9803 H   0  0  0  0  0  0  0  0  0  0  0  0
    5.8898    5.4335   -0.6737 H   0  0  0  0  0  0  0  0  0  0  0  0
    6.2081    3.7690    1.1281 H   0  0  0  0  0  0  0  0  0  0  0  0
    6.0437    1.3963    0.6692 H   0  0  0  0  0  0  0  0  0  0  0  0
    7.7755   -1.6361   -2.5511 H   0  0  0  0  0  0  0  0  0  0  0  0
    9.9892   -2.6995   -2.4597 H   0  0  0  0  0  0  0  0  0  0  0  0
   10.3906   -4.6240   -0.9538 H   0  0  0  0  0  0  0  0  0  0  0  0
    8.5587   -5.4828    0.4736 H   0  0  0  0  0  0  0  0  0  0  0  0
    6.3451   -4.4495    0.4146 H   0  0  0  0  0  0  0  0  0  0  0  0
   -0.1988   -2.1695    1.2532 H   0  0  0  0  0  0  0  0  0  0  0  0
   -0.5487   -2.4913   -0.4244 H   0  0  0  0  0  0  0  0  0  0  0  0
   -1.4584   -0.7697   -1.6825 H   0  0  0  0  0  0  0  0  0  0  0  0
   -2.2712    0.5498    3.0734 H   0  0  0  0  0  0  0  0  0  0  0  0
   -2.5822    1.8793    2.0526 H   0  0  0  0  0  0  0  0  0  0  0  0
   -1.2016    1.9715    3.0220 H   0  0  0  0  0  0  0  0  0  0  0  0
   -0.4501   -0.8555    3.1868 H   0  0  0  0  0  0  0  0  0  0  0  0
    0.5407    0.6461    3.2341 H   0  0  0  0  0  0  0  0  0  0  0  0
    1.0463   -0.6639    2.2387 H   0  0  0  0  0  0  0  0  0  0  0  0
  1  2  1  0  0  0  0
  1 61  1  0  0  0  0
  1 62  1  0  0  0  0
  1 63  1  0  0  0  0
  2  3  2  0  0  0  0
  2 64  1  0  0  0  0
  3  4  1  0  0  0  0
  3  5  1  0  0  0  0
  4 65  1  0  0  0  0
  4 66  1  0  0  0  0
  4 67  1  0  0  0  0
  5  6  2  0  0  0  0
  5  7  1  0  0  0  0
  8  7  1  0  0  0  0
  8 68  1  6  0  0  0
  9  8  1  0  0  0  0
  9 10  1  0  0  0  0
  9 69  1  1  0  0  0
 10 11  1  1  0  0  0
 10 15  1  0  0  0  0
 11 12  1  0  0  0  0
 12 13  1  0  0  0  0
 12 14  2  0  0  0  0
 13 70  1  0  0  0  0
 13 71  1  0  0  0  0
 13 72  1  0  0  0  0
 15 16  1  0  0  0  0
 15 73  1  0  0  0  0
 15 74  1  0  0  0  0
 16 17  1  0  0  0  0
 17 18  1  0  0  0  0
 17 10  1  0  0  0  0
 17 75  1  1  0  0  0
 18 19  1  0  0  0  0
 18 76  1  0  0  0  0
 18 77  1  0  0  0  0
 19 20  1  0  0  0  0
 19 21  1  0  0  0  0
 19 78  1  1  0  0  0
 20 79  1  0  0  0  0
 21 22  1  6  0  0  0
 21 23  1  0  0  0  0
 21  9  1  0  0  0  0
 22 80  1  0  0  0  0
 22 81  1  0  0  0  0
 22 82  1  0  0  0  0
 23 24  2  0  0  0  0
 23 25  1  0  0  0  0
 25 26  1  0  0  0  0
 25 30  1  0  0  0  0
 25 83  1  1  0  0  0
 26 27  1  0  0  0  0
 27 28  1  0  0  0  0
 27 29  2  0  0  0  0
 28 84  1  0  0  0  0
 28 85  1  0  0  0  0
 28 86  1  0  0  0  0
 30 31  2  0  0  0  0
 31 32  1  0  0  0  0
 31 33  1  0  0  0  0
 32 87  1  0  0  0  0
 32 88  1  0  0  0  0
 32 89  1  0  0  0  0
 33 34  1  0  0  0  0
 33 55  1  0  0  0  0
 33 90  1  6  0  0  0
 34 35  1  0  0  0  0
 35 36  2  0  0  0  0
 35 37  1  0  0  0  0
 37 38  1  0  0  0  0
 37 39  1  0  0  0  0
 37 91  1  6  0  0  0
 38 92  1  0  0  0  0
 39 40  1  0  0  0  0
 39 49  1  0  0  0  0
 39 93  1  6  0  0  0
 40 41  1  0  0  0  0
 40 94  1  0  0  0  0
 41 42  2  0  0  0  0
 41 43  1  0  0  0  0
 43 44  2  0  0  0  0
 44 45  1  0  0  0  0
 44 95  1  0  0  0  0
 45 46  2  0  0  0  0
 45 96  1  0  0  0  0
 46 47  1  0  0  0  0
 46 97  1  0  0  0  0
 47 48  2  0  0  0  0
 47 98  1  0  0  0  0
 48 43  1  0  0  0  0
 48 99  1  0  0  0  0
 49 50  2  0  0  0  0
 50 51  1  0  0  0  0
 50100  1  0  0  0  0
 51 52  2  0  0  0  0
 51101  1  0  0  0  0
 52 53  1  0  0  0  0
 52102  1  0  0  0  0
 53 54  2  0  0  0  0
 53103  1  0  0  0  0
 54 49  1  0  0  0  0
 54104  1  0  0  0  0
 55 56  1  0  0  0  0
 55105  1  0  0  0  0
 55106  1  0  0  0  0
 56 57  1  6  0  0  0
 56 58  1  0  0  0  0
 56  8  1  0  0  0  0
 57107  1  0  0  0  0
 58 59  1  0  0  0  0
 58 60  1  0  0  0  0
 58 30  1  0  0  0  0
 59108  1  0  0  0  0
 59109  1  0  0  0  0
 59110  1  0  0  0  0
 60111  1  0  0  0  0
 60112  1  0  0  0  0
 60113  1  0  0  0  0
M  END
>  <IDENTIFIER>
CNP0586153.1

>  <Energy>
2142.67

$$$$
