
 OpenBabel09102502202D

180179  0  0  0  0  0  0  0  0999 V2000
   23.9317   15.5490    0.0000 C   0  0  0  0  0  0  0  0  0  0  0  0
   24.6817   14.2500    0.0000 C   0  0  0  0  0  0  0  0  0  0  0  0
   25.4317   12.9510    0.0000 C   0  0  0  0  0  0  0  0  0  0  0  0
   23.3253   13.4669   -0.8110 C   0  0  0  0  0  0  0  0  0  0  0  0
   22.0836   12.7500    0.0000 C   0  0  0  0  0  0  0  0  0  0  0  0
   20.7846   12.0000    0.0000 C   0  0  0  0  0  2  0  0  0  0  0  0
   19.4856   11.2500    0.0000 C   0  0  0  0  0  0  0  0  0  0  0  0
   18.1865   10.5000    0.0000 C   0  0  0  0  0  0  0  0  0  0  0  0
   16.8875    9.7500    0.0000 C   0  0  0  0  0  2  0  0  0  0  0  0
   15.5885    9.0000    0.0000 C   0  0  0  0  0  0  0  0  0  0  0  0
   13.9436    8.6543   -0.0157 C   0  0  0  0  0  0  0  0  0  0  0  0
   13.3417    7.0630    0.0108 C   0  0  0  0  0  0  0  0  0  0  0  0
   11.6913    6.7500    0.0000 C   0  0  0  0  0  0  0  0  0  0  0  0
   10.3923    6.0000    0.0000 C   0  0  0  0  0  0  0  0  0  0  0  0
    9.0933    5.2500    0.0000 C   0  0  0  0  0  0  0  0  0  0  0  0
    7.7942    4.5000    0.0000 C   0  0  0  0  0  0  0  0  0  0  0  0
    6.4952    3.7500    0.0000 C   0  0  0  0  0  0  0  0  0  0  0  0
    5.1962    3.0000    0.0000 C   0  0  0  0  0  0  0  0  0  0  0  0
    3.5474    3.1047    0.0960 C   0  0  0  0  0  0  0  0  0  0  0  0
    2.6735    1.6777   -0.0063 C   0  0  0  0  0  0  0  0  0  0  0  0
    1.0140    1.5998    0.0710 C   0  0  0  0  0  0  0  0  0  0  0  0
    0.1619    0.2594   -0.3243 C   0  0  0  0  0  0  0  0  0  0  0  0
    0.5057   -0.2764   -1.3667 O   0  0  0  0  0  0  0  0  0  0  0  0
   -1.0313   -0.2479    0.3073 O   0  0  0  0  0  0  0  0  0  0  0  0
   -1.9366   -1.2635   -0.2464 C   0  0  0  0  0  0  0  0  0  0  0  0
   -3.2601   -1.8290    0.5985 C   0  0  2  0  0  0  0  0  0  0  0  0
   -4.1971   -3.0202   -0.0763 C   0  0  0  0  0  0  0  0  0  0  0  0
   -5.3210   -3.6205    0.6465 O   0  0  0  0  0  0  0  0  0  0  0  0
   -6.5972   -4.0052    0.1222 C   0  0  0  0  0  0  0  0  0  0  0  0
   -6.8853   -3.6092   -0.9969 O   0  0  0  0  0  0  0  0  0  0  0  0
   -7.7089   -4.9687    0.8448 C   0  0  0  0  0  0  0  0  0  0  0  0
   -9.0933   -5.2500    0.0000 C   0  0  0  0  0  0  0  0  0  0  0  0
  -10.3923   -6.0000    0.0000 C   0  0  0  0  0  0  0  0  0  0  0  0
  -11.6913   -6.7500    0.0000 C   0  0  0  0  0  0  0  0  0  0  0  0
  -13.3412   -7.0658   -0.0014 C   0  0  0  0  0  0  0  0  0  0  0  0
  -13.9430   -8.6569   -0.0029 C   0  0  0  0  0  0  0  0  0  0  0  0
  -15.5885   -9.0000    0.0000 C   0  0  0  0  0  0  0  0  0  0  0  0
  -16.8875   -9.7500    0.0000 C   0  0  0  0  0  2  0  0  0  0  0  0
  -18.1865  -10.5000    0.0000 C   0  0  0  0  0  0  0  0  0  0  0  0
  -19.4856  -11.2500    0.0000 C   0  0  0  0  0  0  0  0  0  0  0  0
  -20.7846  -12.0000    0.0000 C   0  0  0  0  0  2  0  0  0  0  0  0
  -22.0836  -12.7500    0.0000 C   0  0  0  0  0  0  0  0  0  0  0  0
  -23.6435  -13.0368   -0.6569 C   0  0  0  0  0  0  0  0  0  0  0  0
  -24.6817  -14.2500    0.0000 C   0  0  0  0  0  0  0  0  0  0  0  0
  -25.9808  -15.0000    0.0000 C   0  0  0  0  0  0  0  0  0  0  0  0
  -23.9317  -15.5490    0.0000 C   0  0  0  0  0  0  0  0  0  0  0  0
   -4.0697   -0.7835    0.9883 O   0  0  0  0  0  0  0  0  0  0  0  0
   -4.9178   -0.0451    0.2222 C   0  0  0  0  0  0  0  0  0  0  0  0
   -5.0899   -0.2841   -0.9638 O   0  0  0  0  0  0  0  0  0  0  0  0
   -5.6037    1.0944    0.8995 C   0  0  0  0  0  0  0  0  0  0  0  0
   -6.5593    1.9470    0.0333 C   0  0  0  0  0  0  0  0  0  0  0  0
   -6.9184    3.1814    0.8666 C   0  0  0  0  0  0  0  0  0  0  0  0
   -7.5766    4.3650    0.1501 C   0  0  0  0  0  0  0  0  0  0  0  0
   -9.1486    4.5569    0.1304 C   0  0  0  0  0  0  0  0  0  0  0  0
   -9.3481    6.0933    0.0000 C   0  0  0  0  0  0  0  0  0  0  0  0
  -10.0981    7.3923    0.0000 C   0  0  0  0  0  0  0  0  0  0  0  0
  -10.8481    8.6913    0.0000 C   0  0  0  0  0  0  0  0  0  0  0  0
  -11.3065   10.2535   -0.4226 C   0  0  0  0  0  0  0  0  0  0  0  0
  -12.7475   10.9518    0.1675 C   0  0  0  0  0  0  0  0  0  0  0  0
  -13.0981   12.5885    0.0000 C   0  0  0  0  0  0  0  0  0  0  0  0
  -13.8481   13.8875    0.0000 C   0  0  0  0  0  0  0  0  0  0  0  0
  -14.5981   15.1865    0.0000 C   0  0  0  0  0  0  0  0  0  0  0  0
  -15.3481   16.4856    0.0000 C   0  0  0  0  0  0  0  0  0  0  0  0
  -16.0981   17.7846    0.0000 C   0  0  0  0  0  0  0  0  0  0  0  0
  -16.8481   19.0836    0.0000 C   0  0  0  0  0  0  0  0  0  0  0  0
  -17.5981   20.3827    0.0000 C   0  0  0  0  0  0  0  0  0  0  0  0
  -18.3481   21.6817    0.0000 C   0  0  0  0  0  0  0  0  0  0  0  0
  -18.8971   19.6327    0.0000 C   0  0  0  0  0  0  0  0  0  0  0  0
   24.7606   16.1866    0.3923 H   0  0  0  0  0  0  0  0  0  0  0  0
   23.1173   15.3759    0.7560 H   0  0  0  0  0  0  0  0  0  0  0  0
   23.3967   16.4756    0.0000 H   0  0  0  0  0  0  0  0  0  0  0  0
   24.6888   14.2541    1.1361 H   0  0  0  0  0  0  0  0  0  0  0  0
   24.8746   12.3322    0.7559 H   0  0  0  0  0  0  0  0  0  0  0  0
   26.3983   13.3501    0.3924 H   0  0  0  0  0  0  0  0  0  0  0  0
   25.9667   12.0244    0.0000 H   0  0  0  0  0  0  0  0  0  0  0  0
   22.8331   14.1588   -1.5385 H   0  0  0  0  0  0  0  0  0  0  0  0
   23.6784   12.6946   -1.5385 H   0  0  0  0  0  0  0  0  0  0  0  0
   22.6507   12.0671    0.6616 H   0  0  0  0  0  0  0  0  0  0  0  0
   21.7761   13.5824    0.6619 H   0  0  0  0  0  0  0  0  0  0  0  0
   19.8548   10.6942   -0.8958 H   0  0  0  0  0  0  0  0  0  0  0  0
   19.8547   10.6945    0.8961 H   0  0  0  0  0  0  0  0  0  0  0  0
   17.8175   11.0555   -0.8961 H   0  0  0  0  0  0  0  0  0  0  0  0
   17.8174   11.0558    0.8959 H   0  0  0  0  0  0  0  0  0  0  0  0
   15.8213    8.4015    0.9054 H   0  0  0  0  0  0  0  0  0  0  0  0
   15.8487    8.3538   -0.8642 H   0  0  0  0  0  0  0  0  0  0  0  0
   13.5280    9.1339   -0.9268 H   0  0  0  0  0  0  0  0  0  0  0  0
   13.5016    9.1760    0.8591 H   0  0  0  0  0  0  0  0  0  0  0  0
   13.7742    6.5425   -0.8693 H   0  0  0  0  0  0  0  0  0  0  0  0
   13.7562    6.5755    0.9182 H   0  0  0  0  0  0  0  0  0  0  0  0
   11.4699    7.4124    0.8728 H   0  0  0  0  0  0  0  0  0  0  0  0
   11.4830    7.4195   -0.8754 H   0  0  0  0  0  0  0  0  0  0  0  0
   10.8533    5.4877   -0.9081 H   0  0  0  0  0  0  0  0  0  0  0  0
   10.7002    5.4836    0.9483 H   0  0  0  0  0  0  0  0  0  0  0  0
    8.8414    5.7236   -0.9967 H   0  0  0  0  0  0  0  0  0  0  0  0
    9.5686    4.2343   -0.2237 H   0  0  0  0  0  0  0  0  0  0  0  0
    8.0533    4.0147    0.9919 H   0  0  0  0  0  0  0  0  0  0  0  0
    7.3189    5.5099    0.2407 H   0  0  0  0  0  0  0  0  0  0  0  0
    6.0602    4.2112    0.9452 H   0  0  0  0  0  0  0  0  0  0  0  0
    6.1565    4.2995   -0.9177 H   0  0  0  0  0  0  0  0  0  0  0  0
    5.3737    2.2528    0.8138 H   0  0  0  0  0  0  0  0  0  0  0  0
    5.2964    2.3796   -0.9232 H   0  0  0  0  0  0  0  0  0  0  0  0
    3.2946    3.5907    1.0616 H   0  0  0  0  0  0  0  0  0  0  0  0
    3.2004    3.7695   -0.7217 H   0  0  0  0  0  0  0  0  0  0  0  0
    2.9523    1.2384   -0.9869 H   0  0  0  0  0  0  0  0  0  0  0  0
    3.0579    0.9943    0.7784 H   0  0  0  0  0  0  0  0  0  0  0  0
    0.6641    1.9782    1.0526 H   0  0  0  0  0  0  0  0  0  0  0  0
    0.6925    2.3461   -0.6865 H   0  0  0  0  0  0  0  0  0  0  0  0
   -2.3205   -0.8745   -1.2132 H   0  0  0  0  0  0  0  0  0  0  0  0
   -1.3258   -2.1598   -0.4801 H   0  0  0  0  0  0  0  0  0  0  0  0
   -2.8389   -2.2645    1.5289 H   0  0  0  0  0  0  0  0  0  0  0  0
   -4.5442   -2.6837   -1.0728 H   0  0  0  0  0  0  0  0  0  0  0  0
   -3.4879   -3.8481   -0.2883 H   0  0  0  0  0  0  0  0  0  0  0  0
   -7.9852   -4.5100    1.8167 H   0  0  0  0  0  0  0  0  0  0  0  0
   -7.2244   -5.9470    1.0494 H   0  0  0  0  0  0  0  0  0  0  0  0
   -8.6445   -5.6101   -0.9562 H   0  0  0  0  0  0  0  0  0  0  0  0
   -9.3784   -4.1753   -0.1677 H   0  0  0  0  0  0  0  0  0  0  0  0
  -10.7566   -5.4729   -0.9249 H   0  0  0  0  0  0  0  0  0  0  0  0
  -10.7091   -5.4428    0.9168 H   0  0  0  0  0  0  0  0  0  0  0  0
  -11.4714   -7.4165   -0.8708 H   0  0  0  0  0  0  0  0  0  0  0  0
  -11.4749   -7.3954    0.8855 H   0  0  0  0  0  0  0  0  0  0  0  0
  -13.7660   -6.5615    0.8919 H   0  0  0  0  0  0  0  0  0  0  0  0
  -13.7645   -6.5623   -0.8958 H   0  0  0  0  0  0  0  0  0  0  0  0
  -13.5124   -9.1603    0.8881 H   0  0  0  0  0  0  0  0  0  0  0  0
  -13.5166   -9.1556   -0.8986 H   0  0  0  0  0  0  0  0  0  0  0  0
  -15.8373   -8.3728   -0.8814 H   0  0  0  0  0  0  0  0  0  0  0  0
  -15.8322   -8.3815    0.8889 H   0  0  0  0  0  0  0  0  0  0  0  0
  -17.8174  -11.0557    0.8959 H   0  0  0  0  0  0  0  0  0  0  0  0
  -17.8175  -11.0555   -0.8961 H   0  0  0  0  0  0  0  0  0  0  0  0
  -19.8548  -10.6942   -0.8959 H   0  0  0  0  0  0  0  0  0  0  0  0
  -19.8547  -10.6945    0.8961 H   0  0  0  0  0  0  0  0  0  0  0  0
  -22.3474  -12.6421    1.0724 H   0  0  0  0  0  0  0  0  0  0  0  0
  -21.6432  -13.7589   -0.1040 H   0  0  0  0  0  0  0  0  0  0  0  0
  -24.1985  -12.0778   -0.5912 H   0  0  0  0  0  0  0  0  0  0  0  0
  -23.5057  -13.2606   -1.7356 H   0  0  0  0  0  0  0  0  0  0  0  0
  -24.6881  -13.8900    1.0588 H   0  0  0  0  0  0  0  0  0  0  0  0
  -26.6242  -14.1098    0.1863 H   0  0  0  0  0  0  0  0  0  0  0  0
  -26.0348  -15.1875   -1.1029 H   0  0  0  0  0  0  0  0  0  0  0  0
  -26.9075  -15.5350    0.0000 H   0  0  0  0  0  0  0  0  0  0  0  0
  -23.7328  -15.5944   -1.0971 H   0  0  0  0  0  0  0  0  0  0  0  0
  -23.0454  -15.2270    0.5786 H   0  0  0  0  0  0  0  0  0  0  0  0
  -23.3967  -16.4756    0.0000 H   0  0  0  0  0  0  0  0  0  0  0  0
   -6.1584    0.7142    1.7824 H   0  0  0  0  0  0  0  0  0  0  0  0
   -4.7665    1.7332    1.2628 H   0  0  0  0  0  0  0  0  0  0  0  0
   -6.0123    2.2804   -0.8759 H   0  0  0  0  0  0  0  0  0  0  0  0
   -7.4639    1.3780   -0.2707 H   0  0  0  0  0  0  0  0  0  0  0  0
   -7.4529    2.9347    1.8090 H   0  0  0  0  0  0  0  0  0  0  0  0
   -5.9195    3.5834    1.1667 H   0  0  0  0  0  0  0  0  0  0  0  0
   -7.1219    4.5417   -0.8495 H   0  0  0  0  0  0  0  0  0  0  0  0
   -7.1709    5.1862    0.7822 H   0  0  0  0  0  0  0  0  0  0  0  0
   -9.5736    4.2516    1.1110 H   0  0  0  0  0  0  0  0  0  0  0  0
   -9.6252    3.9671   -0.6802 H   0  0  0  0  0  0  0  0  0  0  0  0
   -8.6890    6.2900   -0.8865 H   0  0  0  0  0  0  0  0  0  0  0  0
   -8.7628    6.4123    0.8985 H   0  0  0  0  0  0  0  0  0  0  0  0
  -10.7357    6.9435    0.8200 H   0  0  0  0  0  0  0  0  0  0  0  0
  -10.5405    7.1354   -0.9993 H   0  0  0  0  0  0  0  0  0  0  0  0
  -11.9131    8.3302   -0.0803 H   0  0  0  0  0  0  0  0  0  0  0  0
  -10.6775    8.9695    1.0699 H   0  0  0  0  0  0  0  0  0  0  0  0
  -10.4615   10.9159   -0.1370 H   0  0  0  0  0  0  0  0  0  0  0  0
  -11.3865   10.2944   -1.5293 H   0  0  0  0  0  0  0  0  0  0  0  0
  -12.7996   10.7422    1.2570 H   0  0  0  0  0  0  0  0  0  0  0  0
  -13.5733   10.3829   -0.3088 H   0  0  0  0  0  0  0  0  0  0  0  0
  -12.6831   12.6565   -1.0373 H   0  0  0  0  0  0  0  0  0  0  0  0
  -12.2318   12.9287    0.6221 H   0  0  0  0  0  0  0  0  0  0  0  0
  -14.5360   13.4738   -0.7889 H   0  0  0  0  0  0  0  0  0  0  0  0
  -14.1820   13.5226    1.0267 H   0  0  0  0  0  0  0  0  0  0  0  0
  -14.0279   15.4873    0.9417 H   0  0  0  0  0  0  0  0  0  0  0  0
  -15.5795   14.7375    0.3697 H   0  0  0  0  0  0  0  0  0  0  0  0
  -14.3213   16.8876   -0.3350 H   0  0  0  0  0  0  0  0  0  0  0  0
  -15.8932   16.2076   -0.9482 H   0  0  0  0  0  0  0  0  0  0  0  0
  -15.4581   18.0618    0.9033 H   0  0  0  0  0  0  0  0  0  0  0  0
  -15.4637   18.2582   -0.8423 H   0  0  0  0  0  0  0  0  0  0  0  0
  -17.2367   18.7696   -1.0548 H   0  0  0  0  0  0  0  0  0  0  0  0
  -17.2809   18.6014    0.9721 H   0  0  0  0  0  0  0  0  0  0  0  0
  -17.0698   20.5922    0.9745 H   0  0  0  0  0  0  0  0  0  0  0  0
  -17.4610   22.3257   -0.2021 H   0  0  0  0  0  0  0  0  0  0  0  0
  -18.6558   21.8095    1.0782 H   0  0  0  0  0  0  0  0  0  0  0  0
  -18.8831   22.6083    0.0000 H   0  0  0  0  0  0  0  0  0  0  0  0
  -19.3082   19.8443   -1.0286 H   0  0  0  0  0  0  0  0  0  0  0  0
  -19.3574   19.8401    1.0063 H   0  0  0  0  0  0  0  0  0  0  0  0
  -19.8237   19.0977    0.0000 H   0  0  0  0  0  0  0  0  0  0  0  0
  1  2  1  0  0  0  0
  1 69  1  0  0  0  0
  1 70  1  0  0  0  0
  1 71  1  0  0  0  0
  2  3  1  0  0  0  0
  2  4  1  0  0  0  0
  2 72  1  0  0  0  0
  3 73  1  0  0  0  0
  3 74  1  0  0  0  0
  3 75  1  0  0  0  0
  4  5  1  0  0  0  0
  4 76  1  0  0  0  0
  4 77  1  0  0  0  0
  5  6  1  0  0  0  0
  5 78  1  0  0  0  0
  5 79  1  0  0  0  0
  6  7  1  0  0  0  0
  7  8  1  0  0  0  0
  7 80  1  0  0  0  0
  7 81  1  0  0  0  0
  8  9  1  0  0  0  0
  8 82  1  0  0  0  0
  8 83  1  0  0  0  0
  9 10  1  0  0  0  0
 10 11  1  0  0  0  0
 10 84  1  0  0  0  0
 10 85  1  0  0  0  0
 11 12  1  0  0  0  0
 11 86  1  0  0  0  0
 11 87  1  0  0  0  0
 12 13  1  0  0  0  0
 12 88  1  0  0  0  0
 12 89  1  0  0  0  0
 13 14  1  0  0  0  0
 13 90  1  0  0  0  0
 13 91  1  0  0  0  0
 14 15  1  0  0  0  0
 14 92  1  0  0  0  0
 14 93  1  0  0  0  0
 15 16  1  0  0  0  0
 15 94  1  0  0  0  0
 15 95  1  0  0  0  0
 16 17  1  0  0  0  0
 16 96  1  0  0  0  0
 16 97  1  0  0  0  0
 17 18  1  0  0  0  0
 17 98  1  0  0  0  0
 17 99  1  0  0  0  0
 18 19  1  0  0  0  0
 18100  1  0  0  0  0
 18101  1  0  0  0  0
 19 20  1  0  0  0  0
 19102  1  0  0  0  0
 19103  1  0  0  0  0
 20 21  1  0  0  0  0
 20104  1  0  0  0  0
 20105  1  0  0  0  0
 21 22  1  0  0  0  0
 21106  1  0  0  0  0
 21107  1  0  0  0  0
 22 23  2  0  0  0  0
 22 24  1  0  0  0  0
 24 25  1  0  0  0  0
 25108  1  0  0  0  0
 25109  1  0  0  0  0
 26 25  1  0  0  0  0
 26 27  1  0  0  0  0
 26 47  1  0  0  0  0
 26110  1  1  0  0  0
 27 28  1  0  0  0  0
 27111  1  0  0  0  0
 27112  1  0  0  0  0
 28 29  1  0  0  0  0
 29 30  2  0  0  0  0
 29 31  1  0  0  0  0
 31 32  1  0  0  0  0
 31113  1  0  0  0  0
 31114  1  0  0  0  0
 32 33  1  0  0  0  0
 32115  1  0  0  0  0
 32116  1  0  0  0  0
 33 34  1  0  0  0  0
 33117  1  0  0  0  0
 33118  1  0  0  0  0
 34 35  1  0  0  0  0
 34119  1  0  0  0  0
 34120  1  0  0  0  0
 35 36  1  0  0  0  0
 35121  1  0  0  0  0
 35122  1  0  0  0  0
 36 37  1  0  0  0  0
 36123  1  0  0  0  0
 36124  1  0  0  0  0
 37 38  1  0  0  0  0
 37125  1  0  0  0  0
 37126  1  0  0  0  0
 38 39  1  0  0  0  0
 39 40  1  0  0  0  0
 39127  1  0  0  0  0
 39128  1  0  0  0  0
 40 41  1  0  0  0  0
 40129  1  0  0  0  0
 40130  1  0  0  0  0
 41 42  1  0  0  0  0
 42 43  1  0  0  0  0
 42131  1  0  0  0  0
 42132  1  0  0  0  0
 43 44  1  0  0  0  0
 43133  1  0  0  0  0
 43134  1  0  0  0  0
 44 45  1  0  0  0  0
 44 46  1  0  0  0  0
 44135  1  0  0  0  0
 45136  1  0  0  0  0
 45137  1  0  0  0  0
 45138  1  0  0  0  0
 46139  1  0  0  0  0
 46140  1  0  0  0  0
 46141  1  0  0  0  0
 47 48  1  0  0  0  0
 48 49  2  0  0  0  0
 48 50  1  0  0  0  0
 50 51  1  0  0  0  0
 50142  1  0  0  0  0
 50143  1  0  0  0  0
 51 52  1  0  0  0  0
 51144  1  0  0  0  0
 51145  1  0  0  0  0
 52 53  1  0  0  0  0
 52146  1  0  0  0  0
 52147  1  0  0  0  0
 53 54  1  0  0  0  0
 53148  1  0  0  0  0
 53149  1  0  0  0  0
 54 55  1  0  0  0  0
 54150  1  0  0  0  0
 54151  1  0  0  0  0
 55 56  1  0  0  0  0
 55152  1  0  0  0  0
 55153  1  0  0  0  0
 56 57  1  0  0  0  0
 56154  1  0  0  0  0
 56155  1  0  0  0  0
 57 58  1  0  0  0  0
 57156  1  0  0  0  0
 57157  1  0  0  0  0
 58 59  1  0  0  0  0
 58158  1  0  0  0  0
 58159  1  0  0  0  0
 59 60  1  0  0  0  0
 59160  1  0  0  0  0
 59161  1  0  0  0  0
 60 61  1  0  0  0  0
 60162  1  0  0  0  0
 60163  1  0  0  0  0
 61 62  1  0  0  0  0
 61164  1  0  0  0  0
 61165  1  0  0  0  0
 62 63  1  0  0  0  0
 62166  1  0  0  0  0
 62167  1  0  0  0  0
 63 64  1  0  0  0  0
 63168  1  0  0  0  0
 63169  1  0  0  0  0
 64 65  1  0  0  0  0
 64170  1  0  0  0  0
 64171  1  0  0  0  0
 65 66  1  0  0  0  0
 65172  1  0  0  0  0
 65173  1  0  0  0  0
 66 67  1  0  0  0  0
 66 68  1  0  0  0  0
 66174  1  0  0  0  0
 67175  1  0  0  0  0
 67176  1  0  0  0  0
 67177  1  0  0  0  0
 68178  1  0  0  0  0
 68179  1  0  0  0  0
 68180  1  0  0  0  0
M  END
>  <IDENTIFIER>
CNP0596781.2

>  <Energy>
14464.8

$$$$
