
 OpenBabel09122521413D

 57 59  0  0  0  0  0  0  0  0999 V2000
    1.3139   -0.2175   -2.4601 O   0  0  0  0  0  0  0  0  0  0  0  0
    1.8386   -0.0419   -1.3697 C   0  0  0  0  0  0  0  0  0  0  0  0
    3.3137    0.2769   -1.4420 C   0  0  0  0  0  0  0  0  0  0  0  0
    4.1944   -0.8394   -0.8507 C   0  0  0  0  0  0  0  0  0  0  0  0
    5.6495   -0.4403   -0.9164 C   0  0  0  0  0  0  0  0  0  0  0  0
    6.2852   -0.2570   -2.1553 C   0  0  0  0  0  0  0  0  0  0  0  0
    7.6250    0.1313   -2.2129 C   0  0  0  0  0  0  0  0  0  0  0  0
    8.3518    0.3438   -1.0323 C   0  0  0  0  0  0  0  0  0  0  0  0
    9.6445    0.7266   -1.0890 O   0  0  0  0  0  0  0  0  0  0  0  0
    7.7242    0.1582    0.2134 C   0  0  0  0  0  0  0  0  0  0  0  0
    8.3908    0.3593    1.3699 O   0  0  0  0  0  0  0  0  0  0  0  0
    6.3824   -0.2370    0.2651 C   0  0  0  0  0  0  0  0  0  0  0  0
    0.9678   -0.1332   -0.1142 C   0  0  0  0  0  0  0  0  0  0  0  0
    1.3922    0.1773    1.2268 C   0  0  0  0  0  0  0  0  0  0  0  0
    2.6154    0.6260    1.5812 O   0  0  0  0  0  0  0  0  0  0  0  0
    0.4985    0.0485    2.2939 C   0  0  0  0  0  0  0  0  0  0  0  0
   -0.8219   -0.3386    2.1017 C   0  0  0  0  0  0  0  0  0  0  0  0
   -1.6685   -0.4250    3.1500 O   0  0  0  0  0  0  0  0  0  0  0  0
   -1.2836   -0.6190    0.8181 C   0  0  0  0  0  0  0  0  0  0  0  0
   -2.5986   -0.9234    0.6508 O   0  0  0  0  0  0  0  0  0  0  0  0
   -3.5394    0.0750    0.4064 C   0  0  2  0  0  0  0  0  0  0  0  0
   -4.3205    0.2451    1.5992 O   0  0  0  0  0  0  0  0  0  0  0  0
   -5.5845    0.8101    1.3111 C   0  0  2  0  0  0  0  0  0  0  0  0
   -6.2428    1.3509    2.5838 C   0  0  0  0  0  0  0  0  0  0  0  0
   -6.4578    0.3225    3.5143 O   0  0  0  0  0  0  0  0  0  0  0  0
   -6.4806   -0.2311    0.5748 C   0  0  1  0  0  0  0  0  0  0  0  0
   -7.5368    0.4265   -0.0845 O   0  0  0  0  0  0  0  0  0  0  0  0
   -5.6250   -1.0993   -0.4052 C   0  0  2  0  0  0  0  0  0  0  0  0
   -5.1968   -2.3035    0.1966 O   0  0  0  0  0  0  0  0  0  0  0  0
   -4.3958   -0.2974   -0.8652 C   0  0  1  0  0  0  0  0  0  0  0  0
   -4.8347    0.8595   -1.5321 O   0  0  0  0  0  0  0  0  0  0  0  0
   -0.3965   -0.5446   -0.2807 C   0  0  0  0  0  0  0  0  0  0  0  0
   -0.8537   -0.8664   -1.5102 O   0  0  0  0  0  0  0  0  0  0  0  0
    3.5075    1.2744   -1.0025 H   0  0  0  0  0  0  0  0  0  0  0  0
    3.6005    0.3811   -2.5125 H   0  0  0  0  0  0  0  0  0  0  0  0
    4.0419   -1.7872   -1.4113 H   0  0  0  0  0  0  0  0  0  0  0  0
    3.9042   -1.0462    0.1974 H   0  0  0  0  0  0  0  0  0  0  0  0
    5.7438   -0.4132   -3.0805 H   0  0  0  0  0  0  0  0  0  0  0  0
    8.0983    0.2690   -3.1769 H   0  0  0  0  0  0  0  0  0  0  0  0
   10.1043    0.8672   -1.9293 H   0  0  0  0  0  0  0  0  0  0  0  0
    9.3151    0.6437    1.3980 H   0  0  0  0  0  0  0  0  0  0  0  0
    5.9079   -0.3709    1.2301 H   0  0  0  0  0  0  0  0  0  0  0  0
    3.3352    0.8924    1.0134 H   0  0  0  0  0  0  0  0  0  0  0  0
    0.8380    0.2800    3.2972 H   0  0  0  0  0  0  0  0  0  0  0  0
   -1.3868   -0.2392    4.0579 H   0  0  0  0  0  0  0  0  0  0  0  0
   -2.9908    1.0241    0.2038 H   0  0  0  0  0  0  0  0  0  0  0  0
   -5.4231    1.7061    0.6672 H   0  0  0  0  0  0  0  0  0  0  0  0
   -7.1966    1.8714    2.3301 H   0  0  0  0  0  0  0  0  0  0  0  0
   -5.5798    2.1113    3.0484 H   0  0  0  0  0  0  0  0  0  0  0  0
   -7.4115    0.0564    3.4379 H   0  0  0  0  0  0  0  0  0  0  0  0
   -6.9532   -0.9446    1.2829 H   0  0  0  0  0  0  0  0  0  0  0  0
   -7.1520    1.0095   -0.7879 H   0  0  0  0  0  0  0  0  0  0  0  0
   -6.2654   -1.3994   -1.2630 H   0  0  0  0  0  0  0  0  0  0  0  0
   -4.9982   -2.1440    1.1556 H   0  0  0  0  0  0  0  0  0  0  0  0
   -3.8193   -0.8942   -1.5970 H   0  0  0  0  0  0  0  0  0  0  0  0
   -4.0264    1.3717   -1.7949 H   0  0  0  0  0  0  0  0  0  0  0  0
   -1.7268   -1.2306   -1.6800 H   0  0  0  0  0  0  0  0  0  0  0  0
  1  2  2  0  0  0  0
  2  3  1  0  0  0  0
  2 13  1  0  0  0  0
  3  4  1  0  0  0  0
  3 34  1  0  0  0  0
  3 35  1  0  0  0  0
  4  5  1  0  0  0  0
  4 36  1  0  0  0  0
  4 37  1  0  0  0  0
  5  6  2  0  0  0  0
  6  7  1  0  0  0  0
  6 38  1  0  0  0  0
  7  8  2  0  0  0  0
  7 39  1  0  0  0  0
  8  9  1  0  0  0  0
  8 10  1  0  0  0  0
  9 40  1  0  0  0  0
 10 11  1  0  0  0  0
 10 12  2  0  0  0  0
 11 41  1  0  0  0  0
 12  5  1  0  0  0  0
 12 42  1  0  0  0  0
 13 14  2  0  0  0  0
 14 15  1  0  0  0  0
 14 16  1  0  0  0  0
 15 43  1  0  0  0  0
 16 17  2  0  0  0  0
 16 44  1  0  0  0  0
 17 18  1  0  0  0  0
 17 19  1  0  0  0  0
 18 45  1  0  0  0  0
 19 20  1  0  0  0  0
 19 32  2  0  0  0  0
 21 20  1  0  0  0  0
 21 22  1  0  0  0  0
 21 46  1  6  0  0  0
 22 23  1  0  0  0  0
 23 24  1  0  0  0  0
 23 26  1  0  0  0  0
 23 47  1  6  0  0  0
 24 25  1  0  0  0  0
 24 48  1  0  0  0  0
 24 49  1  0  0  0  0
 25 50  1  0  0  0  0
 26 27  1  0  0  0  0
 26 28  1  0  0  0  0
 26 51  1  1  0  0  0
 27 52  1  0  0  0  0
 28 29  1  0  0  0  0
 28 30  1  0  0  0  0
 28 53  1  6  0  0  0
 29 54  1  0  0  0  0
 30 31  1  0  0  0  0
 30 21  1  0  0  0  0
 30 55  1  6  0  0  0
 31 56  1  0  0  0  0
 32 33  1  0  0  0  0
 32 13  1  0  0  0  0
 33 57  1  0  0  0  0
M  END
>  <IDENTIFIER>
CNP0303294.1

>  <Energy>
648.908

$$$$
