
 OpenBabel09082517533D

 31 34  0  0  0  0  0  0  0  0999 V2000
   -6.5290    0.2557    0.8308 O   0  0  0  0  0  0  0  0  0  0  0  0
   -5.6849   -0.2133    0.1283 N   0  3  0  0  0  0  0  0  0  0  0  0
   -6.0172   -1.1611   -0.7224 O   0  5  0  0  0  0  0  0  0  0  0  0
   -4.3255    0.2081    0.2479 C   0  0  0  0  0  0  0  0  0  0  0  0
   -3.9576    1.1911    1.1850 C   0  0  0  0  0  0  0  0  0  0  0  0
   -2.6242    1.5802    1.3153 C   0  0  0  0  0  0  0  0  0  0  0  0
   -1.6375    0.9856    0.5280 C   0  0  0  0  0  0  0  0  0  0  0  0
   -1.9772    0.0042   -0.4169 C   0  0  0  0  0  0  0  0  0  0  0  0
   -0.9486   -0.6518   -1.2573 C   0  0  0  0  0  0  0  0  0  0  0  0
   -1.2000   -1.2335   -2.4605 N   0  0  0  0  0  0  0  0  0  0  0  0
   -0.0575   -1.7686   -2.9003 N   0  0  0  0  0  0  0  0  0  0  0  0
    0.8551   -1.5098   -1.9469 C   0  0  0  0  0  0  0  0  0  0  0  0
    2.5513   -1.9909   -1.7588 S   0  0  0  0  0  0  0  0  0  0  0  0
    2.4569   -1.2910   -0.0183 C   0  0  1  0  0  0  0  0  0  0  0  0
    3.5653   -0.3328    0.3096 C   0  0  0  0  0  0  0  0  0  0  0  0
    4.6216    0.0519   -0.4967 C   0  0  0  0  0  0  0  0  0  0  0  0
    5.3844    0.9067    0.2674 C   0  0  0  0  0  0  0  0  0  0  0  0
    4.7531    0.9971    1.4896 C   0  0  0  0  0  0  0  0  0  0  0  0
    3.6748    0.2473    1.4844 O   0  0  0  0  0  0  0  0  0  0  0  0
    1.1647   -0.6447    0.1337 N   0  0  0  0  0  0  0  0  0  0  0  0
    0.3420   -0.8474   -0.9511 N   0  0  0  0  0  0  0  0  0  0  0  0
   -3.3256   -0.3659   -0.5617 C   0  0  0  0  0  0  0  0  0  0  0  0
   -4.7010    1.6584    1.8182 H   0  0  0  0  0  0  0  0  0  0  0  0
   -2.3533    2.3441    2.0328 H   0  0  0  0  0  0  0  0  0  0  0  0
   -0.6188    1.3207    0.6468 H   0  0  0  0  0  0  0  0  0  0  0  0
    2.5040   -2.1361    0.7017 H   0  0  0  0  0  0  0  0  0  0  0  0
    4.8276   -0.2554   -1.5130 H   0  0  0  0  0  0  0  0  0  0  0  0
    6.2993    1.4027   -0.0272 H   0  0  0  0  0  0  0  0  0  0  0  0
    5.0848    1.5837    2.3361 H   0  0  0  0  0  0  0  0  0  0  0  0
    0.8441   -0.2332    1.0201 H   0  0  0  0  0  0  0  0  0  0  0  0
   -3.5925   -1.1267   -1.2846 H   0  0  0  0  0  0  0  0  0  0  0  0
  1  2  2  0  0  0  0
  2  3  1  0  0  0  0
  2  4  1  0  0  0  0
  4  5  2  0  0  0  0
  5  6  1  0  0  0  0
  5 23  1  0  0  0  0
  6  7  2  0  0  0  0
  6 24  1  0  0  0  0
  7  8  1  0  0  0  0
  7 25  1  0  0  0  0
  8  9  1  0  0  0  0
  8 22  2  0  0  0  0
  9 10  2  0  0  0  0
 10 11  1  0  0  0  0
 11 12  2  0  0  0  0
 12 13  1  0  0  0  0
 13 14  1  0  0  0  0
 14 15  1  0  0  0  0
 14 20  1  0  0  0  0
 14 26  1  1  0  0  0
 15 16  2  0  0  0  0
 16 17  1  0  0  0  0
 16 27  1  0  0  0  0
 17 18  2  0  0  0  0
 17 28  1  0  0  0  0
 18 19  1  0  0  0  0
 18 29  1  0  0  0  0
 19 15  1  0  0  0  0
 20 21  1  0  0  0  0
 20 30  1  0  0  0  0
 21  9  1  0  0  0  0
 21 12  1  0  0  0  0
 22  4  1  0  0  0  0
 22 31  1  0  0  0  0
M  CHG  2   2   1   3  -1
M  END
>  <IDENTIFIER>
CNP0582081.1

>  <Energy>
573.584

$$$$
