
 OpenBabel09062500523D

 25 25  0  0  0  0  0  0  0  0999 V2000
    5.5889    1.3627   -0.3964 C   0  0  0  0  0  0  0  0  0  0  0  0
    4.5493    1.1342    1.0815 S   0  0  0  0  0  0  0  0  0  0  0  0
    3.4701   -0.0940    0.3359 C   0  0  0  0  0  0  0  0  0  0  0  0
    4.1809   -1.5927   -0.2722 Cl  0  0  0  0  0  0  0  0  0  0  0  0
    2.2012    0.1368    0.3041 N   0  0  0  0  0  0  0  0  0  0  0  0
    0.9932   -0.9686   -0.3461 S   0  0  0  0  0  0  0  0  0  0  0  0
    1.3320   -1.1224   -1.8373 O   0  0  0  0  0  0  0  0  0  0  0  0
    1.3484   -2.3532    0.2178 O   0  0  0  0  0  0  0  0  0  0  0  0
   -0.7289   -0.5612   -0.0493 C   0  0  0  0  0  0  0  0  0  0  0  0
   -1.4943    0.0680   -1.0384 C   0  0  0  0  0  0  0  0  0  0  0  0
   -2.8387    0.3729   -0.7995 C   0  0  0  0  0  0  0  0  0  0  0  0
   -3.4287    0.0499    0.4348 C   0  0  0  0  0  0  0  0  0  0  0  0
   -4.8697    0.3661    0.7066 C   0  0  0  0  0  0  0  0  0  0  0  0
   -2.6568   -0.5784    1.4230 C   0  0  0  0  0  0  0  0  0  0  0  0
   -1.3139   -0.8817    1.1818 C   0  0  0  0  0  0  0  0  0  0  0  0
    6.1620    2.3054   -0.2808 H   0  0  0  0  0  0  0  0  0  0  0  0
    4.9646    1.4696   -1.3079 H   0  0  0  0  0  0  0  0  0  0  0  0
    6.3060    0.5208   -0.4920 H   0  0  0  0  0  0  0  0  0  0  0  0
   -1.0522    0.3202   -1.9937 H   0  0  0  0  0  0  0  0  0  0  0  0
   -3.4179    0.8576   -1.5751 H   0  0  0  0  0  0  0  0  0  0  0  0
   -5.3510    0.8587   -0.1650 H   0  0  0  0  0  0  0  0  0  0  0  0
   -4.9441    1.0469    1.5806 H   0  0  0  0  0  0  0  0  0  0  0  0
   -5.4215   -0.5717    0.9284 H   0  0  0  0  0  0  0  0  0  0  0  0
   -3.0962   -0.8340    2.3794 H   0  0  0  0  0  0  0  0  0  0  0  0
   -0.7300   -1.3686    1.9523 H   0  0  0  0  0  0  0  0  0  0  0  0
  1  2  1  0  0  0  0
  1 16  1  0  0  0  0
  1 17  1  0  0  0  0
  1 18  1  0  0  0  0
  2  3  1  0  0  0  0
  3  4  1  0  0  0  0
  3  5  2  3  0  0  0
  5  6  1  0  0  0  0
  6  7  2  0  0  0  0
  6  8  2  0  0  0  0
  6  9  1  0  0  0  0
  9 10  2  0  0  0  0
 10 11  1  0  0  0  0
 10 19  1  0  0  0  0
 11 12  2  0  0  0  0
 11 20  1  0  0  0  0
 12 13  1  0  0  0  0
 12 14  1  0  0  0  0
 13 21  1  0  0  0  0
 13 22  1  0  0  0  0
 13 23  1  0  0  0  0
 14 15  2  0  0  0  0
 14 24  1  0  0  0  0
 15  9  1  0  0  0  0
 15 25  1  0  0  0  0
M  END
>  <IDENTIFIER>
CNP0026986.0

>  <Energy>
497.424

$$$$
