
 OpenBabel09092520473D

 53 55  0  0  0  0  0  0  0  0999 V2000
    5.8843    0.9232   -0.2772 C   0  0  0  0  0  0  0  0  0  0  0  0
    5.0777    0.0543    0.3497 C   0  0  0  0  0  0  0  0  0  0  0  0
    3.6347   -0.2650   -0.0394 C   0  0  2  0  0  0  0  0  0  0  0  0
    3.5741   -1.7821   -0.3412 C   0  0  0  0  0  0  0  0  0  0  0  0
    3.1277    0.5593   -1.2376 C   0  0  0  0  0  0  0  0  0  0  0  0
    1.6851    0.1942   -1.6109 C   0  0  0  0  0  0  0  0  0  0  0  0
    0.7359    0.0563   -0.4120 C   0  0  0  0  0  0  0  0  0  0  0  0
    1.2388   -0.0064    0.8647 C   0  0  0  0  0  0  0  0  0  0  0  0
    0.3564   -0.1705    2.0854 C   0  0  0  0  0  0  0  0  0  0  0  0
   -1.0507   -0.6756    1.7722 C   0  0  0  0  0  0  0  0  0  0  0  0
   -1.6331    0.1347    0.6183 C   0  0  2  0  0  0  0  0  0  0  0  0
   -3.2067   -0.0211    0.4196 C   0  0  1  0  0  0  0  0  0  0  0  0
   -3.7147   -1.4822    0.5748 C   0  0  0  0  0  0  0  0  0  0  0  0
   -3.9473    0.7920    1.5328 C   0  0  0  0  0  0  0  0  0  0  0  0
   -3.6566    2.1650    1.4844 O   0  0  0  0  0  0  0  0  0  0  0  0
   -3.6347    0.5065   -0.9992 C   0  0  0  0  0  0  0  0  0  0  0  0
   -2.6985    1.6126   -1.4875 C   0  0  0  0  0  0  0  0  0  0  0  0
   -1.2423    1.0978   -1.6776 C   0  0  0  0  0  0  0  0  0  0  0  0
   -0.7881   -0.0472   -0.6938 C   0  0  1  0  0  0  0  0  0  0  0  0
   -0.9862   -1.4364   -1.3679 C   0  0  0  0  0  0  0  0  0  0  0  0
    2.7283    0.0920    1.1587 C   0  0  0  0  0  0  0  0  0  0  0  0
    6.8961    1.0698    0.0867 H   0  0  0  0  0  0  0  0  0  0  0  0
    5.5731    1.4948   -1.1427 H   0  0  0  0  0  0  0  0  0  0  0  0
    5.4881   -0.4698    1.2095 H   0  0  0  0  0  0  0  0  0  0  0  0
    4.2161   -2.0275   -1.2147 H   0  0  0  0  0  0  0  0  0  0  0  0
    2.5433   -2.1315   -0.5532 H   0  0  0  0  0  0  0  0  0  0  0  0
    3.9359   -2.3667    0.5324 H   0  0  0  0  0  0  0  0  0  0  0  0
    3.7666    0.4277   -2.1383 H   0  0  0  0  0  0  0  0  0  0  0  0
    3.1521    1.6350   -0.9489 H   0  0  0  0  0  0  0  0  0  0  0  0
    1.6829   -0.7606   -2.1724 H   0  0  0  0  0  0  0  0  0  0  0  0
    1.3441    0.9841   -2.3105 H   0  0  0  0  0  0  0  0  0  0  0  0
    0.3195    0.8142    2.6003 H   0  0  0  0  0  0  0  0  0  0  0  0
    0.8004   -0.9060    2.7910 H   0  0  0  0  0  0  0  0  0  0  0  0
   -1.6513   -0.5787    2.7002 H   0  0  0  0  0  0  0  0  0  0  0  0
   -1.0237   -1.7494    1.4935 H   0  0  0  0  0  0  0  0  0  0  0  0
   -1.4626    1.1994    0.8982 H   0  0  0  0  0  0  0  0  0  0  0  0
   -3.4996   -1.8734    1.5915 H   0  0  0  0  0  0  0  0  0  0  0  0
   -3.2709   -2.1909   -0.1407 H   0  0  0  0  0  0  0  0  0  0  0  0
   -4.8161   -1.5247    0.4295 H   0  0  0  0  0  0  0  0  0  0  0  0
   -3.7187    0.3813    2.5439 H   0  0  0  0  0  0  0  0  0  0  0  0
   -5.0477    0.6819    1.4178 H   0  0  0  0  0  0  0  0  0  0  0  0
   -3.0360    2.3642    2.2332 H   0  0  0  0  0  0  0  0  0  0  0  0
   -4.6953    0.8393   -0.9808 H   0  0  0  0  0  0  0  0  0  0  0  0
   -3.5990   -0.2825   -1.7721 H   0  0  0  0  0  0  0  0  0  0  0  0
   -2.7061    2.4150   -0.7233 H   0  0  0  0  0  0  0  0  0  0  0  0
   -3.0493    2.0772   -2.4337 H   0  0  0  0  0  0  0  0  0  0  0  0
   -0.6139    2.0070   -1.5527 H   0  0  0  0  0  0  0  0  0  0  0  0
   -1.0850    0.7489   -2.7215 H   0  0  0  0  0  0  0  0  0  0  0  0
   -0.3758   -1.5237   -2.2884 H   0  0  0  0  0  0  0  0  0  0  0  0
   -2.0028   -1.6308   -1.7243 H   0  0  0  0  0  0  0  0  0  0  0  0
   -0.6811   -2.2601   -0.6909 H   0  0  0  0  0  0  0  0  0  0  0  0
    2.9962   -0.5806    2.0039 H   0  0  0  0  0  0  0  0  0  0  0  0
    2.9166    1.1322    1.5064 H   0  0  0  0  0  0  0  0  0  0  0  0
  1  2  2  0  0  0  0
  1 22  1  0  0  0  0
  1 23  1  0  0  0  0
  2 24  1  0  0  0  0
  3  2  1  1  0  0  0
  3  4  1  0  0  0  0
  3  5  1  0  0  0  0
  4 25  1  0  0  0  0
  4 26  1  0  0  0  0
  4 27  1  0  0  0  0
  5  6  1  0  0  0  0
  5 28  1  0  0  0  0
  5 29  1  0  0  0  0
  6  7  1  0  0  0  0
  6 30  1  0  0  0  0
  6 31  1  0  0  0  0
  7  8  2  0  0  0  0
  8  9  1  0  0  0  0
  8 21  1  0  0  0  0
  9 10  1  0  0  0  0
  9 32  1  0  0  0  0
  9 33  1  0  0  0  0
 10 34  1  0  0  0  0
 10 35  1  0  0  0  0
 11 10  1  0  0  0  0
 11 12  1  0  0  0  0
 11 36  1  1  0  0  0
 12 13  1  1  0  0  0
 12 14  1  0  0  0  0
 12 16  1  0  0  0  0
 13 37  1  0  0  0  0
 13 38  1  0  0  0  0
 13 39  1  0  0  0  0
 14 15  1  0  0  0  0
 14 40  1  0  0  0  0
 14 41  1  0  0  0  0
 15 42  1  0  0  0  0
 16 17  1  0  0  0  0
 16 43  1  0  0  0  0
 16 44  1  0  0  0  0
 17 18  1  0  0  0  0
 17 45  1  0  0  0  0
 17 46  1  0  0  0  0
 18 19  1  0  0  0  0
 18 47  1  0  0  0  0
 18 48  1  0  0  0  0
 19 20  1  6  0  0  0
 19  7  1  0  0  0  0
 19 11  1  0  0  0  0
 20 49  1  0  0  0  0
 20 50  1  0  0  0  0
 20 51  1  0  0  0  0
 21  3  1  0  0  0  0
 21 52  1  0  0  0  0
 21 53  1  0  0  0  0
M  END
>  <IDENTIFIER>
CNP0145008.3

>  <Energy>
525.908

$$$$
