
 OpenBabel09122506383D

 30 31  0  0  0  0  0  0  0  0999 V2000
   -2.3906    0.5545    1.4037 C   0  0  0  0  0  0  0  0  0  0  0  0
   -2.3408   -0.3020    0.1298 C   0  0  0  0  0  0  0  0  0  0  0  0
   -3.7629   -0.6748   -0.3052 C   0  0  0  0  0  0  0  0  0  0  0  0
   -1.6199    0.4498   -1.0113 C   0  0  0  0  0  0  0  0  0  0  0  0
   -0.2254    0.7494   -0.6689 N   0  0  0  0  0  0  0  0  0  0  0  0
    0.2828    1.9869   -0.4579 C   0  0  0  0  0  0  0  0  0  0  0  0
    1.6341    1.9072   -0.1493 C   0  0  0  0  0  0  0  0  0  0  0  0
    1.9506    0.5634   -0.1893 C   0  0  0  0  0  0  0  0  0  0  0  0
    3.1648   -0.1018    0.0268 C   0  0  0  0  0  0  0  0  0  0  0  0
    4.3507    0.5986    0.3609 N   0  0  0  0  0  0  0  0  0  0  0  0
    3.1728   -1.5056   -0.1041 C   0  0  0  0  0  0  0  0  0  0  0  0
    1.9936   -2.2017   -0.4438 C   0  0  0  0  0  0  0  0  0  0  0  0
    0.7899   -1.5071   -0.6521 C   0  0  0  0  0  0  0  0  0  0  0  0
    0.8001   -0.1161   -0.5114 C   0  0  0  0  0  0  0  0  0  0  0  0
   -2.9073    0.0027    2.2174 H   0  0  0  0  0  0  0  0  0  0  0  0
   -2.9361    1.5047    1.2155 H   0  0  0  0  0  0  0  0  0  0  0  0
   -1.3645    0.7954    1.7528 H   0  0  0  0  0  0  0  0  0  0  0  0
   -1.8033   -1.2434    0.3635 H   0  0  0  0  0  0  0  0  0  0  0  0
   -4.3540    0.2353   -0.5449 H   0  0  0  0  0  0  0  0  0  0  0  0
   -4.2782   -1.2330    0.5057 H   0  0  0  0  0  0  0  0  0  0  0  0
   -3.7280   -1.3266   -1.2041 H   0  0  0  0  0  0  0  0  0  0  0  0
   -2.1712    1.3973   -1.2050 H   0  0  0  0  0  0  0  0  0  0  0  0
   -1.6353   -0.1457   -1.9500 H   0  0  0  0  0  0  0  0  0  0  0  0
   -0.2928    2.9021   -0.5155 H   0  0  0  0  0  0  0  0  0  0  0  0
    2.2939    2.7356    0.0695 H   0  0  0  0  0  0  0  0  0  0  0  0
    4.3543    1.6236    0.4588 H   0  0  0  0  0  0  0  0  0  0  0  0
    5.2331    0.0888    0.5137 H   0  0  0  0  0  0  0  0  0  0  0  0
    4.0893   -2.0609    0.0514 H   0  0  0  0  0  0  0  0  0  0  0  0
    2.0167   -3.2783   -0.5466 H   0  0  0  0  0  0  0  0  0  0  0  0
   -0.1072   -2.0467   -0.9212 H   0  0  0  0  0  0  0  0  0  0  0  0
  1  2  1  0  0  0  0
  1 15  1  0  0  0  0
  1 16  1  0  0  0  0
  1 17  1  0  0  0  0
  2  3  1  0  0  0  0
  2  4  1  0  0  0  0
  2 18  1  0  0  0  0
  3 19  1  0  0  0  0
  3 20  1  0  0  0  0
  3 21  1  0  0  0  0
  4  5  1  0  0  0  0
  4 22  1  0  0  0  0
  4 23  1  0  0  0  0
  5  6  1  0  0  0  0
  6  7  2  0  0  0  0
  6 24  1  0  0  0  0
  7  8  1  0  0  0  0
  7 25  1  0  0  0  0
  8  9  2  0  0  0  0
  9 10  1  0  0  0  0
  9 11  1  0  0  0  0
 10 26  1  0  0  0  0
 10 27  1  0  0  0  0
 11 12  2  0  0  0  0
 11 28  1  0  0  0  0
 12 13  1  0  0  0  0
 12 29  1  0  0  0  0
 13 14  2  0  0  0  0
 13 30  1  0  0  0  0
 14  5  1  0  0  0  0
 14  8  1  0  0  0  0
M  END
>  <IDENTIFIER>
CNP0398700.0

>  <Energy>
240.45

$$$$
