
 OpenBabel09072519332D

136135  0  0  0  0  0  0  0  0999 V2000
   21.5346   10.7010    0.0000 C   0  0  0  0  0  0  0  0  0  0  0  0
   20.7846   12.0000    0.0000 C   0  0  0  0  0  0  0  0  0  0  0  0
   20.0346   13.2990    0.0000 C   0  0  0  0  0  0  0  0  0  0  0  0
   19.4282   11.2169    0.8110 C   0  0  0  0  0  0  0  0  0  0  0  0
   18.1865   10.5000    0.0000 C   0  0  0  0  0  0  0  0  0  0  0  0
   16.8875    9.7500    0.0000 C   0  0  0  0  0  2  0  0  0  0  0  0
   15.5885    9.0000    0.0000 C   0  0  0  0  0  0  0  0  0  0  0  0
   13.9460    8.6504   -0.0728 C   0  0  0  0  0  0  0  0  0  0  0  0
   13.3386    7.0687    0.0835 C   0  0  0  0  0  0  0  0  0  0  0  0
   11.6913    6.7500    0.0000 C   0  0  0  0  0  0  0  0  0  0  0  0
   10.3923    6.0000    0.0000 C   0  0  0  0  0  0  0  0  0  0  0  0
    9.0933    5.2500    0.0000 C   0  0  0  0  0  0  0  0  0  0  0  0
    7.7942    4.5000    0.0000 C   0  0  0  0  0  0  0  0  0  0  0  0
    6.4952    3.7500    0.0000 C   0  0  0  0  0  0  0  0  0  0  0  0
    5.1962    3.0000    0.0000 C   0  0  0  0  0  0  0  0  0  0  0  0
    3.5469    3.0797   -0.1659 C   0  0  0  0  0  0  0  0  0  0  0  0
    2.6769    1.6599    0.0404 C   0  0  0  0  0  0  0  0  0  0  0  0
    1.0213    1.5095   -0.1216 C   0  0  0  0  0  0  0  0  0  0  0  0
    0.2568    0.0841    0.1420 C   0  0  0  0  0  0  0  0  0  0  0  0
    0.9729   -0.8414    0.4912 O   0  0  0  0  0  0  0  0  0  0  0  0
   -1.1578   -0.1815    0.0035 O   0  0  0  0  0  0  0  0  0  0  0  0
   -1.8534   -1.4360    0.3251 C   0  0  0  0  0  0  0  0  0  0  0  0
   -3.4930   -1.6663    0.0695 C   0  0  2  0  0  0  0  0  0  0  0  0
   -4.1480   -3.1090    0.5365 C   0  0  0  0  0  0  0  0  0  0  0  0
   -5.5975   -3.2975    0.6722 O   0  0  0  0  0  0  0  0  0  0  0  0
   -6.4074   -4.3864    0.2208 C   0  0  0  0  0  0  0  0  0  0  0  0
   -5.9815   -5.0464   -0.7135 O   0  0  0  0  0  0  0  0  0  0  0  0
   -7.7715   -4.9673    0.9253 C   0  0  0  0  0  0  0  0  0  0  0  0
   -9.0933   -5.2500    0.0000 C   0  0  0  0  0  0  0  0  0  0  0  0
  -10.3923   -6.0000    0.0000 C   0  0  0  0  0  0  0  0  0  0  0  0
  -11.6913   -6.7500    0.0000 C   0  0  0  0  0  0  0  0  0  0  0  0
  -13.3402   -7.0677   -0.0464 C   0  0  0  0  0  0  0  0  0  0  0  0
  -13.9439   -8.6557    0.0409 C   0  0  0  0  0  0  0  0  0  0  0  0
  -15.5885   -9.0000    0.0000 C   0  0  0  0  0  0  0  0  0  0  0  0
  -16.8875   -9.7500    0.0000 C   0  0  0  0  0  2  0  0  0  0  0  0
  -18.1865  -10.5000    0.0000 C   0  0  0  0  0  0  0  0  0  0  0  0
  -19.4856  -11.2500    0.0000 C   0  0  0  0  0  0  0  0  0  0  0  0
  -18.9365   -9.2010    0.0000 C   0  0  0  0  0  0  0  0  0  0  0  0
   -4.2186   -0.7003    0.7331 O   0  0  0  0  0  0  0  0  0  0  0  0
   -5.1435    0.1146    0.1606 C   0  0  0  0  0  0  0  0  0  0  0  0
   -5.2921    0.1602   -1.0554 O   0  0  0  0  0  0  0  0  0  0  0  0
   -5.9887    0.9553    1.0667 C   0  0  0  0  0  0  0  0  0  0  0  0
   -6.9335    1.9473    0.3504 C   0  0  0  0  0  0  0  0  0  0  0  0
   -7.5743    2.8651    1.4072 C   0  0  0  0  0  0  0  0  0  0  0  0
   -8.0109    4.2413    0.8970 C   0  0  0  0  0  0  0  0  0  0  0  0
   -9.4529    4.5865    0.3674 C   0  0  0  0  0  0  0  0  0  0  0  0
   -9.3481    6.0933    0.0000 C   0  0  0  0  0  0  0  0  0  0  0  0
  -10.0981    7.3923    0.0000 C   0  0  0  0  0  0  0  0  0  0  0  0
  -10.8481    8.6913    0.0000 C   0  0  0  0  0  0  0  0  0  0  0  0
  -11.5981    9.9904    0.0000 C   0  0  0  0  0  0  0  0  0  0  0  0
  -11.4087   10.8675   -1.2616 C   0  0  0  0  0  0  0  0  0  0  0  0
  -12.8971    9.2404    0.0000 C   0  0  0  0  0  0  0  0  0  0  0  0
   20.9775   10.0822   -0.7559 H   0  0  0  0  0  0  0  0  0  0  0  0
   22.5012   11.1001   -0.3924 H   0  0  0  0  0  0  0  0  0  0  0  0
   22.0696    9.7744    0.0000 H   0  0  0  0  0  0  0  0  0  0  0  0
   20.7917   12.0041   -1.1361 H   0  0  0  0  0  0  0  0  0  0  0  0
   20.8635   13.9366   -0.3923 H   0  0  0  0  0  0  0  0  0  0  0  0
   19.2202   13.1259   -0.7560 H   0  0  0  0  0  0  0  0  0  0  0  0
   19.4996   14.2256    0.0000 H   0  0  0  0  0  0  0  0  0  0  0  0
   19.7814   10.4446    1.5385 H   0  0  0  0  0  0  0  0  0  0  0  0
   18.9360   11.9088    1.5386 H   0  0  0  0  0  0  0  0  0  0  0  0
   18.7536    9.8172   -0.6616 H   0  0  0  0  0  0  0  0  0  0  0  0
   17.8790   11.3324   -0.6619 H   0  0  0  0  0  0  0  0  0  0  0  0
   15.7700    8.4906    0.9694 H   0  0  0  0  0  0  0  0  0  0  0  0
   15.8937    8.2754   -0.7835 H   0  0  0  0  0  0  0  0  0  0  0  0
   13.5832    9.0348   -1.0491 H   0  0  0  0  0  0  0  0  0  0  0  0
   13.4576    9.2562    0.7192 H   0  0  0  0  0  0  0  0  0  0  0  0
   13.8246    6.4578   -0.7060 H   0  0  0  0  0  0  0  0  0  0  0  0
   13.6928    6.6835    1.0627 H   0  0  0  0  0  0  0  0  0  0  0  0
   11.4165    7.5241    0.7595 H   0  0  0  0  0  0  0  0  0  0  0  0
   11.5434    7.2928   -0.9686 H   0  0  0  0  0  0  0  0  0  0  0  0
   10.9437    5.3373   -0.7448 H   0  0  0  0  0  0  0  0  0  0  0  0
   10.5914    5.6651    1.0541 H   0  0  0  0  0  0  0  0  0  0  0  0
    8.9647    5.5141   -1.0943 H   0  0  0  0  0  0  0  0  0  0  0  0
    9.5776    4.2157    0.0350 H   0  0  0  0  0  0  0  0  0  0  0  0
    7.3049    5.5312   -0.0465 H   0  0  0  0  0  0  0  0  0  0  0  0
    7.9205    4.2436    1.0959 H   0  0  0  0  0  0  0  0  0  0  0  0
    5.9388    4.4154    0.7364 H   0  0  0  0  0  0  0  0  0  0  0  0
    6.3060    4.0531   -1.0632 H   0  0  0  0  0  0  0  0  0  0  0  0
    5.2549    2.4654    0.9811 H   0  0  0  0  0  0  0  0  0  0  0  0
    5.4118    2.1835   -0.7311 H   0  0  0  0  0  0  0  0  0  0  0  0
    3.3297    3.4707   -1.1818 H   0  0  0  0  0  0  0  0  0  0  0  0
    3.1642    3.8160    0.5716 H   0  0  0  0  0  0  0  0  0  0  0  0
    3.1150    0.9264   -0.6686 H   0  0  0  0  0  0  0  0  0  0  0  0
    2.9171    1.3058    1.0649 H   0  0  0  0  0  0  0  0  0  0  0  0
    0.5617    2.2474    0.5677 H   0  0  0  0  0  0  0  0  0  0  0  0
    0.7772    1.8192   -1.1588 H   0  0  0  0  0  0  0  0  0  0  0  0
   -1.3442   -2.2507   -0.2308 H   0  0  0  0  0  0  0  0  0  0  0  0
   -1.6792   -1.6303    1.4045 H   0  0  0  0  0  0  0  0  0  0  0  0
   -3.6683   -1.5896   -1.0252 H   0  0  0  0  0  0  0  0  0  0  0  0
   -3.7062   -3.9218   -0.0787 H   0  0  0  0  0  0  0  0  0  0  0  0
   -3.7517   -3.2567    1.5623 H   0  0  0  0  0  0  0  0  0  0  0  0
   -8.0508   -4.3327    1.7921 H   0  0  0  0  0  0  0  0  0  0  0  0
   -7.4810   -5.9618    1.3239 H   0  0  0  0  0  0  0  0  0  0  0  0
   -8.5958   -5.7161   -0.8831 H   0  0  0  0  0  0  0  0  0  0  0  0
   -9.3242   -4.1931   -0.3004 H   0  0  0  0  0  0  0  0  0  0  0  0
  -10.7059   -5.5489   -0.9812 H   0  0  0  0  0  0  0  0  0  0  0  0
  -10.7510   -5.3627    0.8453 H   0  0  0  0  0  0  0  0  0  0  0  0
  -11.4371   -7.4781   -0.8101 H   0  0  0  0  0  0  0  0  0  0  0  0
  -11.5111   -7.3269    0.9388 H   0  0  0  0  0  0  0  0  0  0  0  0
  -13.8017   -6.5001    0.7888 H   0  0  0  0  0  0  0  0  0  0  0  0
  -13.7246   -6.6316   -0.9924 H   0  0  0  0  0  0  0  0  0  0  0  0
  -13.5513   -9.0934    0.9826 H   0  0  0  0  0  0  0  0  0  0  0  0
  -13.4815   -9.2165   -0.7984 H   0  0  0  0  0  0  0  0  0  0  0  0
  -15.8004   -8.4365   -0.9325 H   0  0  0  0  0  0  0  0  0  0  0  0
  -15.8673   -8.3207    0.8325 H   0  0  0  0  0  0  0  0  0  0  0  0
  -18.0005  -10.8103    1.0585 H   0  0  0  0  0  0  0  0  0  0  0  0
  -19.7274  -11.1348   -1.0898 H   0  0  0  0  0  0  0  0  0  0  0  0
  -19.0465  -12.2759    0.0715 H   0  0  0  0  0  0  0  0  0  0  0  0
  -20.4123  -11.7850    0.0000 H   0  0  0  0  0  0  0  0  0  0  0  0
  -18.6501   -8.6913    0.9682 H   0  0  0  0  0  0  0  0  0  0  0  0
  -18.7579   -8.8332   -1.0494 H   0  0  0  0  0  0  0  0  0  0  0  0
  -19.4715   -8.2744    0.0000 H   0  0  0  0  0  0  0  0  0  0  0  0
   -5.2610    1.5360    1.6769 H   0  0  0  0  0  0  0  0  0  0  0  0
   -6.5710    0.2954    1.7454 H   0  0  0  0  0  0  0  0  0  0  0  0
   -6.2868    2.5588   -0.3183 H   0  0  0  0  0  0  0  0  0  0  0  0
   -7.7064    1.4438   -0.2690 H   0  0  0  0  0  0  0  0  0  0  0  0
   -8.3331    2.3672    2.0452 H   0  0  0  0  0  0  0  0  0  0  0  0
   -6.7257    3.1280    2.0823 H   0  0  0  0  0  0  0  0  0  0  0  0
   -7.2374    4.5844    0.1709 H   0  0  0  0  0  0  0  0  0  0  0  0
   -7.8900    4.8755    1.8057 H   0  0  0  0  0  0  0  0  0  0  0  0
  -10.1797    4.4217    1.1901 H   0  0  0  0  0  0  0  0  0  0  0  0
   -9.7400    3.9885   -0.5234 H   0  0  0  0  0  0  0  0  0  0  0  0
   -8.5775    6.1577   -0.8092 H   0  0  0  0  0  0  0  0  0  0  0  0
   -8.8085    6.4803    0.8921 H   0  0  0  0  0  0  0  0  0  0  0  0
  -10.9792    6.8294    0.4141 H   0  0  0  0  0  0  0  0  0  0  0  0
  -10.2750    7.3139   -1.1039 H   0  0  0  0  0  0  0  0  0  0  0  0
   -9.8939    9.2110   -0.2657 H   0  0  0  0  0  0  0  0  0  0  0  0
  -10.8074    8.6871    1.1307 H   0  0  0  0  0  0  0  0  0  0  0  0
  -11.4391   10.6280    0.9089 H   0  0  0  0  0  0  0  0  0  0  0  0
  -10.3869   11.3023   -1.2680 H   0  0  0  0  0  0  0  0  0  0  0  0
  -11.5423   10.2811   -2.1962 H   0  0  0  0  0  0  0  0  0  0  0  0
  -12.1403   11.7030   -1.2528 H   0  0  0  0  0  0  0  0  0  0  0  0
  -13.5451   10.1380    0.1089 H   0  0  0  0  0  0  0  0  0  0  0  0
  -12.9437    8.8950   -1.0676 H   0  0  0  0  0  0  0  0  0  0  0  0
  -13.8237    8.7054    0.0000 H   0  0  0  0  0  0  0  0  0  0  0  0
  1  2  1  0  0  0  0
  1 53  1  0  0  0  0
  1 54  1  0  0  0  0
  1 55  1  0  0  0  0
  2  3  1  0  0  0  0
  2  4  1  0  0  0  0
  2 56  1  0  0  0  0
  3 57  1  0  0  0  0
  3 58  1  0  0  0  0
  3 59  1  0  0  0  0
  4  5  1  0  0  0  0
  4 60  1  0  0  0  0
  4 61  1  0  0  0  0
  5  6  1  0  0  0  0
  5 62  1  0  0  0  0
  5 63  1  0  0  0  0
  6  7  1  0  0  0  0
  7  8  1  0  0  0  0
  7 64  1  0  0  0  0
  7 65  1  0  0  0  0
  8  9  1  0  0  0  0
  8 66  1  0  0  0  0
  8 67  1  0  0  0  0
  9 10  1  0  0  0  0
  9 68  1  0  0  0  0
  9 69  1  0  0  0  0
 10 11  1  0  0  0  0
 10 70  1  0  0  0  0
 10 71  1  0  0  0  0
 11 12  1  0  0  0  0
 11 72  1  0  0  0  0
 11 73  1  0  0  0  0
 12 13  1  0  0  0  0
 12 74  1  0  0  0  0
 12 75  1  0  0  0  0
 13 14  1  0  0  0  0
 13 76  1  0  0  0  0
 13 77  1  0  0  0  0
 14 15  1  0  0  0  0
 14 78  1  0  0  0  0
 14 79  1  0  0  0  0
 15 16  1  0  0  0  0
 15 80  1  0  0  0  0
 15 81  1  0  0  0  0
 16 17  1  0  0  0  0
 16 82  1  0  0  0  0
 16 83  1  0  0  0  0
 17 18  1  0  0  0  0
 17 84  1  0  0  0  0
 17 85  1  0  0  0  0
 18 19  1  0  0  0  0
 18 86  1  0  0  0  0
 18 87  1  0  0  0  0
 19 20  2  0  0  0  0
 19 21  1  0  0  0  0
 21 22  1  0  0  0  0
 22 88  1  0  0  0  0
 22 89  1  0  0  0  0
 23 22  1  0  0  0  0
 23 24  1  0  0  0  0
 23 39  1  0  0  0  0
 23 90  1  1  0  0  0
 24 25  1  0  0  0  0
 24 91  1  0  0  0  0
 24 92  1  0  0  0  0
 25 26  1  0  0  0  0
 26 27  2  0  0  0  0
 26 28  1  0  0  0  0
 28 29  1  0  0  0  0
 28 93  1  0  0  0  0
 28 94  1  0  0  0  0
 29 30  1  0  0  0  0
 29 95  1  0  0  0  0
 29 96  1  0  0  0  0
 30 31  1  0  0  0  0
 30 97  1  0  0  0  0
 30 98  1  0  0  0  0
 31 32  1  0  0  0  0
 31 99  1  0  0  0  0
 31100  1  0  0  0  0
 32 33  1  0  0  0  0
 32101  1  0  0  0  0
 32102  1  0  0  0  0
 33 34  1  0  0  0  0
 33103  1  0  0  0  0
 33104  1  0  0  0  0
 34 35  1  0  0  0  0
 34105  1  0  0  0  0
 34106  1  0  0  0  0
 35 36  1  0  0  0  0
 36 37  1  0  0  0  0
 36 38  1  0  0  0  0
 36107  1  0  0  0  0
 37108  1  0  0  0  0
 37109  1  0  0  0  0
 37110  1  0  0  0  0
 38111  1  0  0  0  0
 38112  1  0  0  0  0
 38113  1  0  0  0  0
 39 40  1  0  0  0  0
 40 41  2  0  0  0  0
 40 42  1  0  0  0  0
 42 43  1  0  0  0  0
 42114  1  0  0  0  0
 42115  1  0  0  0  0
 43 44  1  0  0  0  0
 43116  1  0  0  0  0
 43117  1  0  0  0  0
 44 45  1  0  0  0  0
 44118  1  0  0  0  0
 44119  1  0  0  0  0
 45 46  1  0  0  0  0
 45120  1  0  0  0  0
 45121  1  0  0  0  0
 46 47  1  0  0  0  0
 46122  1  0  0  0  0
 46123  1  0  0  0  0
 47 48  1  0  0  0  0
 47124  1  0  0  0  0
 47125  1  0  0  0  0
 48 49  1  0  0  0  0
 48126  1  0  0  0  0
 48127  1  0  0  0  0
 49 50  1  0  0  0  0
 49128  1  0  0  0  0
 49129  1  0  0  0  0
 50 51  1  0  0  0  0
 50 52  1  0  0  0  0
 50130  1  0  0  0  0
 51131  1  0  0  0  0
 51132  1  0  0  0  0
 51133  1  0  0  0  0
 52134  1  0  0  0  0
 52135  1  0  0  0  0
 52136  1  0  0  0  0
M  END
>  <IDENTIFIER>
CNP0480686.2

>  <Energy>
9021.06

$$$$
