
 OpenBabel09062513113D

139146  0  0  0  0  0  0  0  0999 V2000
   -6.6680    4.9743   -0.7183 C   0  0  0  0  0  0  0  0  0  0  0  0
   -7.0049    3.5096   -1.0955 C   0  0  0  0  0  0  0  0  0  0  0  0
   -7.9303    3.5474   -2.3299 C   0  0  0  0  0  0  0  0  0  0  0  0
   -7.7575    2.8086    0.0692 C   0  0  0  0  0  0  0  0  0  0  0  0
   -6.8478    2.5331    1.2865 C   0  0  0  0  0  0  0  0  0  0  0  0
   -5.6380    1.6321    0.8997 C   0  0  2  0  0  0  0  0  0  0  0  0
   -6.1847    0.2873    0.4099 C   0  0  0  0  0  0  0  0  0  0  0  0
   -5.8404   -0.1814   -0.6654 O   0  0  0  0  0  0  0  0  0  0  0  0
   -7.1009   -0.3613    1.1811 O   0  0  0  0  0  0  0  0  0  0  0  0
   -7.9044   -1.4012    0.7517 C   0  0  2  0  0  0  0  0  0  0  0  0
   -9.2492   -0.9690    0.7508 O   0  0  0  0  0  0  0  0  0  0  0  0
  -10.1158   -1.8954    0.0846 C   0  0  1  0  0  0  0  0  0  0  0  0
  -10.3984   -1.3992   -1.3400 C   0  0  0  0  0  0  0  0  0  0  0  0
  -11.3607   -2.1994   -1.9728 O   0  0  0  0  0  0  0  0  0  0  0  0
   -9.6008   -3.3821    0.1185 C   0  0  2  0  0  0  0  0  0  0  0  0
  -10.6239   -4.3040   -0.1584 O   0  0  0  0  0  0  0  0  0  0  0  0
   -8.9323   -3.6401    1.4850 C   0  0  2  0  0  0  0  0  0  0  0  0
   -9.8821   -3.5156    2.5221 O   0  0  0  0  0  0  0  0  0  0  0  0
   -7.7413   -2.6391    1.6743 C   0  0  1  0  0  0  0  0  0  0  0  0
   -6.5025   -3.2522    1.4183 O   0  0  0  0  0  0  0  0  0  0  0  0
   -4.7517    1.3109    2.1566 C   0  0  0  0  0  0  0  0  0  0  0  0
   -3.3812    2.0095    2.1309 C   0  0  0  0  0  0  0  0  0  0  0  0
   -2.5323    1.7908    0.8038 C   0  0  2  0  0  0  0  0  0  0  0  0
   -1.7057    3.1245    0.6840 C   0  0  0  0  0  0  0  0  0  0  0  0
   -3.4680    1.7914   -0.4131 C   0  0  0  0  0  0  0  0  0  0  0  0
   -3.0926    1.2418   -1.5935 C   0  0  0  0  0  0  0  0  0  0  0  0
   -1.7967    0.4863   -1.8189 C   0  0  0  0  0  0  0  0  0  0  0  0
   -0.8058    0.4794   -0.6178 C   0  0  2  0  0  0  0  0  0  0  0  0
    0.4557   -0.5051   -0.7789 C   0  0  1  0  0  0  0  0  0  0  0  0
    0.0217   -1.9868   -1.0271 C   0  0  0  0  0  0  0  0  0  0  0  0
    1.3066   -0.0644   -2.0158 C   0  0  0  0  0  0  0  0  0  0  0  0
    2.6782   -0.7827   -2.1028 C   0  0  0  0  0  0  0  0  0  0  0  0
    3.5324   -0.5095   -0.8526 C   0  0  2  0  0  0  0  0  0  0  0  0
    4.7788   -1.2031   -0.9866 O   0  0  0  0  0  0  0  0  0  0  0  0
    5.9281   -0.3705   -0.9008 C   0  0  2  0  0  0  0  0  0  0  0  0
    6.4643   -0.2633   -2.2279 O   0  0  0  0  0  0  0  0  0  0  0  0
    7.8060    0.1937   -2.2271 C   0  0  2  0  0  0  0  0  0  0  0  0
    8.2478    0.5257   -3.6341 C   0  0  0  0  0  0  0  0  0  0  0  0
    7.4965    0.3232   -4.5753 O   0  0  0  0  0  0  0  0  0  0  0  0
    9.4720    1.0415   -3.8736 O   0  0  0  0  0  0  0  0  0  0  0  0
    8.7788   -0.8468   -1.5814 C   0  0  1  0  0  0  0  0  0  0  0  0
    9.7363   -0.0968   -0.8416 O   0  0  0  0  0  0  0  0  0  0  0  0
   11.0568   -0.6158   -0.8901 C   0  0  2  0  0  0  0  0  0  0  0  0
   11.2835   -1.4260    0.2601 O   0  0  0  0  0  0  0  0  0  0  0  0
   12.1720   -0.6984    1.0935 C   0  0  2  0  0  0  0  0  0  0  0  0
   11.9320   -0.9502    2.5893 C   0  0  0  0  0  0  0  0  0  0  0  0
   12.1626   -2.2985    2.8960 O   0  0  0  0  0  0  0  0  0  0  0  0
   12.0741    0.7797    0.6730 C   0  0  2  0  0  0  0  0  0  0  0  0
   10.8930    1.4348    1.0960 O   0  0  0  0  0  0  0  0  0  0  0  0
   12.0497    0.5660   -0.8188 C   0  0  1  0  0  0  0  0  0  0  0  0
   13.3537    0.1972   -1.2222 O   0  0  0  0  0  0  0  0  0  0  0  0
    8.0034   -1.8107   -0.6403 C   0  0  2  0  0  0  0  0  0  0  0  0
    7.3916   -2.8745   -1.3422 O   0  0  0  0  0  0  0  0  0  0  0  0
    6.9324   -1.0273    0.1165 C   0  0  1  0  0  0  0  0  0  0  0  0
    7.5319   -0.0891    0.9839 O   0  0  0  0  0  0  0  0  0  0  0  0
    2.8177   -0.9320    0.4786 C   0  0  0  0  0  0  0  0  0  0  0  0
    2.8341   -2.4695    0.6740 C   0  0  0  0  0  0  0  0  0  0  0  0
    3.6413   -0.3329    1.6572 C   0  0  0  0  0  0  0  0  0  0  0  0
    1.3654   -0.2866    0.4996 C   0  0  2  0  0  0  0  0  0  0  0  0
    0.5485   -0.5646    1.7950 C   0  0  0  0  0  0  0  0  0  0  0  0
   -0.5717    0.4765    1.9296 C   0  0  0  0  0  0  0  0  0  0  0  0
   -1.5985    0.4627    0.7601 C   0  0  1  0  0  0  0  0  0  0  0  0
   -2.4723   -0.8139    0.9182 C   0  0  0  0  0  0  0  0  0  0  0  0
   -4.8340    2.4307   -0.2001 C   0  0  1  0  0  0  0  0  0  0  0  0
   -5.7136    2.7108   -1.4555 C   0  0  0  0  0  0  0  0  0  0  0  0
   -7.6002    5.5395   -0.5025 H   0  0  0  0  0  0  0  0  0  0  0  0
   -6.1488    5.4781   -1.5620 H   0  0  0  0  0  0  0  0  0  0  0  0
   -6.0219    5.0631    0.1743 H   0  0  0  0  0  0  0  0  0  0  0  0
   -8.8655    4.1046   -2.1047 H   0  0  0  0  0  0  0  0  0  0  0  0
   -8.2130    2.5171   -2.6390 H   0  0  0  0  0  0  0  0  0  0  0  0
   -7.4239    4.0383   -3.1883 H   0  0  0  0  0  0  0  0  0  0  0  0
   -8.1609    1.8359   -0.2868 H   0  0  0  0  0  0  0  0  0  0  0  0
   -8.6309    3.4210    0.3842 H   0  0  0  0  0  0  0  0  0  0  0  0
   -7.4564    2.0384    2.0759 H   0  0  0  0  0  0  0  0  0  0  0  0
   -6.4853    3.4886    1.7215 H   0  0  0  0  0  0  0  0  0  0  0  0
   -7.6339   -1.6743   -0.2947 H   0  0  0  0  0  0  0  0  0  0  0  0
  -11.0678   -1.8661    0.6574 H   0  0  0  0  0  0  0  0  0  0  0  0
   -9.4552   -1.3592   -1.9335 H   0  0  0  0  0  0  0  0  0  0  0  0
  -10.7861   -0.3587   -1.2959 H   0  0  0  0  0  0  0  0  0  0  0  0
  -10.8683   -2.8531   -2.5346 H   0  0  0  0  0  0  0  0  0  0  0  0
   -8.8126   -3.5239   -0.6535 H   0  0  0  0  0  0  0  0  0  0  0  0
  -11.3374   -4.1779    0.5201 H   0  0  0  0  0  0  0  0  0  0  0  0
   -8.5411   -4.6787    1.5487 H   0  0  0  0  0  0  0  0  0  0  0  0
  -10.0529   -2.5535    2.6918 H   0  0  0  0  0  0  0  0  0  0  0  0
   -7.7350   -2.3329    2.7432 H   0  0  0  0  0  0  0  0  0  0  0  0
   -6.5366   -3.6300    0.5010 H   0  0  0  0  0  0  0  0  0  0  0  0
   -4.5958    0.2280    2.2452 H   0  0  0  0  0  0  0  0  0  0  0  0
   -5.2911    1.5599    3.0968 H   0  0  0  0  0  0  0  0  0  0  0  0
   -2.7861    1.7921    3.0396 H   0  0  0  0  0  0  0  0  0  0  0  0
   -3.6659    3.0806    2.2303 H   0  0  0  0  0  0  0  0  0  0  0  0
   -2.3785    4.0087    0.6935 H   0  0  0  0  0  0  0  0  0  0  0  0
   -1.1611    3.2553   -0.2680 H   0  0  0  0  0  0  0  0  0  0  0  0
   -1.0113    3.2780    1.5313 H   0  0  0  0  0  0  0  0  0  0  0  0
   -3.7766    1.2479   -2.4340 H   0  0  0  0  0  0  0  0  0  0  0  0
   -1.2846    0.8843   -2.7192 H   0  0  0  0  0  0  0  0  0  0  0  0
   -2.1403   -0.5396   -2.0399 H   0  0  0  0  0  0  0  0  0  0  0  0
   -0.3103    1.4571   -0.6367 H   0  0  0  0  0  0  0  0  0  0  0  0
   -0.6899   -2.0687   -1.8675 H   0  0  0  0  0  0  0  0  0  0  0  0
   -0.3824   -2.5062   -0.1554 H   0  0  0  0  0  0  0  0  0  0  0  0
    0.8278   -2.6397   -1.3631 H   0  0  0  0  0  0  0  0  0  0  0  0
    1.5166    1.0273   -1.9532 H   0  0  0  0  0  0  0  0  0  0  0  0
    0.7444   -0.2366   -2.9590 H   0  0  0  0  0  0  0  0  0  0  0  0
    3.2205   -0.3945   -2.9930 H   0  0  0  0  0  0  0  0  0  0  0  0
    2.5679   -1.8702   -2.2626 H   0  0  0  0  0  0  0  0  0  0  0  0
    3.6382    0.5995   -0.8434 H   0  0  0  0  0  0  0  0  0  0  0  0
    5.6781    0.6430   -0.5123 H   0  0  0  0  0  0  0  0  0  0  0  0
    7.8291    1.1544   -1.6646 H   0  0  0  0  0  0  0  0  0  0  0  0
   10.0993    1.2182   -3.1608 H   0  0  0  0  0  0  0  0  0  0  0  0
    9.2351   -1.4919   -2.3687 H   0  0  0  0  0  0  0  0  0  0  0  0
   11.2482   -1.1761   -1.8330 H   0  0  0  0  0  0  0  0  0  0  0  0
   13.2046   -1.0592    0.8744 H   0  0  0  0  0  0  0  0  0  0  0  0
   10.9116   -0.6570    2.9165 H   0  0  0  0  0  0  0  0  0  0  0  0
   12.6503   -0.3383    3.1753 H   0  0  0  0  0  0  0  0  0  0  0  0
   11.3562   -2.7986    2.6068 H   0  0  0  0  0  0  0  0  0  0  0  0
   12.9355    1.3847    1.0291 H   0  0  0  0  0  0  0  0  0  0  0  0
   10.2185    0.7792    1.4035 H   0  0  0  0  0  0  0  0  0  0  0  0
   11.7463    1.4581   -1.4091 H   0  0  0  0  0  0  0  0  0  0  0  0
   13.2973   -0.4587   -1.9626 H   0  0  0  0  0  0  0  0  0  0  0  0
    8.7247   -2.2847    0.0593 H   0  0  0  0  0  0  0  0  0  0  0  0
    7.1671   -2.5923   -2.2656 H   0  0  0  0  0  0  0  0  0  0  0  0
    6.3822   -1.7313    0.7744 H   0  0  0  0  0  0  0  0  0  0  0  0
    7.6825    0.7635    0.5064 H   0  0  0  0  0  0  0  0  0  0  0  0
    3.8804   -2.8333    0.7558 H   0  0  0  0  0  0  0  0  0  0  0  0
    2.4039   -3.0425   -0.1511 H   0  0  0  0  0  0  0  0  0  0  0  0
    2.3148   -2.7547    1.6134 H   0  0  0  0  0  0  0  0  0  0  0  0
    4.6820   -0.6907    1.6476 H   0  0  0  0  0  0  0  0  0  0  0  0
    3.2544   -0.6266    2.6508 H   0  0  0  0  0  0  0  0  0  0  0  0
    3.6718    0.7762    1.6014 H   0  0  0  0  0  0  0  0  0  0  0  0
    1.5915    0.8037    0.5121 H   0  0  0  0  0  0  0  0  0  0  0  0
    1.1665   -0.4217    2.6977 H   0  0  0  0  0  0  0  0  0  0  0  0
    0.1716   -1.6032    1.8308 H   0  0  0  0  0  0  0  0  0  0  0  0
   -0.0513    1.4488    1.9804 H   0  0  0  0  0  0  0  0  0  0  0  0
   -1.0850    0.3336    2.9039 H   0  0  0  0  0  0  0  0  0  0  0  0
   -2.9050   -0.8617    1.9284 H   0  0  0  0  0  0  0  0  0  0  0  0
   -1.9191   -1.7484    0.8817 H   0  0  0  0  0  0  0  0  0  0  0  0
   -3.2776   -0.8743    0.1599 H   0  0  0  0  0  0  0  0  0  0  0  0
   -4.5837    3.4351    0.1902 H   0  0  0  0  0  0  0  0  0  0  0  0
   -6.0053    1.7589   -1.9365 H   0  0  0  0  0  0  0  0  0  0  0  0
   -5.1307    3.2819   -2.2115 H   0  0  0  0  0  0  0  0  0  0  0  0
  1  2  1  0  0  0  0
  1 66  1  0  0  0  0
  1 67  1  0  0  0  0
  1 68  1  0  0  0  0
  2  3  1  0  0  0  0
  2  4  1  0  0  0  0
  3 69  1  0  0  0  0
  3 70  1  0  0  0  0
  3 71  1  0  0  0  0
  4  5  1  0  0  0  0
  4 72  1  0  0  0  0
  4 73  1  0  0  0  0
  5  6  1  0  0  0  0
  5 74  1  0  0  0  0
  5 75  1  0  0  0  0
  6  7  1  6  0  0  0
  6 21  1  0  0  0  0
  7  8  2  0  0  0  0
  7  9  1  0  0  0  0
 10  9  1  0  0  0  0
 10 11  1  0  0  0  0
 10 76  1  6  0  0  0
 11 12  1  0  0  0  0
 12 13  1  0  0  0  0
 12 15  1  0  0  0  0
 12 77  1  1  0  0  0
 13 14  1  0  0  0  0
 13 78  1  0  0  0  0
 13 79  1  0  0  0  0
 14 80  1  0  0  0  0
 15 16  1  0  0  0  0
 15 17  1  0  0  0  0
 15 81  1  6  0  0  0
 16 82  1  0  0  0  0
 17 18  1  0  0  0  0
 17 19  1  0  0  0  0
 17 83  1  1  0  0  0
 18 84  1  0  0  0  0
 19 20  1  0  0  0  0
 19 10  1  0  0  0  0
 19 85  1  1  0  0  0
 20 86  1  0  0  0  0
 21 22  1  0  0  0  0
 21 87  1  0  0  0  0
 21 88  1  0  0  0  0
 22 23  1  0  0  0  0
 22 89  1  0  0  0  0
 22 90  1  0  0  0  0
 23 24  1  6  0  0  0
 23 25  1  0  0  0  0
 24 91  1  0  0  0  0
 24 92  1  0  0  0  0
 24 93  1  0  0  0  0
 25 26  2  0  0  0  0
 25 64  1  0  0  0  0
 26 27  1  0  0  0  0
 26 94  1  0  0  0  0
 27 95  1  0  0  0  0
 27 96  1  0  0  0  0
 28 27  1  0  0  0  0
 28 29  1  0  0  0  0
 28 97  1  6  0  0  0
 29 30  1  6  0  0  0
 29 31  1  0  0  0  0
 30 98  1  0  0  0  0
 30 99  1  0  0  0  0
 30100  1  0  0  0  0
 31 32  1  0  0  0  0
 31101  1  0  0  0  0
 31102  1  0  0  0  0
 32 33  1  0  0  0  0
 32103  1  0  0  0  0
 32104  1  0  0  0  0
 33 34  1  0  0  0  0
 33 56  1  0  0  0  0
 33105  1  1  0  0  0
 35 34  1  0  0  0  0
 35 36  1  0  0  0  0
 35106  1  1  0  0  0
 36 37  1  0  0  0  0
 37 38  1  0  0  0  0
 37 41  1  0  0  0  0
 37107  1  1  0  0  0
 38 39  2  0  0  0  0
 38 40  1  0  0  0  0
 40108  1  0  0  0  0
 41 42  1  0  0  0  0
 41 52  1  0  0  0  0
 41109  1  6  0  0  0
 43 42  1  0  0  0  0
 43 44  1  0  0  0  0
 43110  1  6  0  0  0
 44 45  1  0  0  0  0
 45 46  1  0  0  0  0
 45 48  1  0  0  0  0
 45111  1  6  0  0  0
 46 47  1  0  0  0  0
 46112  1  0  0  0  0
 46113  1  0  0  0  0
 47114  1  0  0  0  0
 48 49  1  0  0  0  0
 48 50  1  0  0  0  0
 48115  1  1  0  0  0
 49116  1  0  0  0  0
 50 51  1  0  0  0  0
 50 43  1  0  0  0  0
 50117  1  6  0  0  0
 51118  1  0  0  0  0
 52 53  1  0  0  0  0
 52 54  1  0  0  0  0
 52119  1  1  0  0  0
 53120  1  0  0  0  0
 54 55  1  0  0  0  0
 54 35  1  0  0  0  0
 54121  1  1  0  0  0
 55122  1  0  0  0  0
 56 57  1  0  0  0  0
 56 58  1  0  0  0  0
 56 59  1  0  0  0  0
 57123  1  0  0  0  0
 57124  1  0  0  0  0
 57125  1  0  0  0  0
 58126  1  0  0  0  0
 58127  1  0  0  0  0
 58128  1  0  0  0  0
 59 60  1  0  0  0  0
 59 29  1  0  0  0  0
 59129  1  1  0  0  0
 60 61  1  0  0  0  0
 60130  1  0  0  0  0
 60131  1  0  0  0  0
 61 62  1  0  0  0  0
 61132  1  0  0  0  0
 61133  1  0  0  0  0
 62 63  1  1  0  0  0
 62 23  1  0  0  0  0
 62 28  1  0  0  0  0
 63134  1  0  0  0  0
 63135  1  0  0  0  0
 63136  1  0  0  0  0
 64 65  1  0  0  0  0
 64  6  1  0  0  0  0
 64137  1  1  0  0  0
 65  2  1  0  0  0  0
 65138  1  0  0  0  0
 65139  1  0  0  0  0
M  END
>  <IDENTIFIER>
CNP0221991.2

>  <Energy>
1770.55

$$$$
