
 OpenBabel09092503443D

 68 73  0  0  0  0  0  0  0  0999 V2000
    4.6698   -0.3177    3.1308 C   0  0  0  0  0  0  0  0  0  0  0  0
    4.6162    0.0440    1.8002 O   0  0  0  0  0  0  0  0  0  0  0  0
    3.4947    0.1961    1.0456 C   0  0  0  0  0  0  0  0  0  0  0  0
    2.2188   -0.0840    1.5758 C   0  0  0  0  0  0  0  0  0  0  0  0
    1.0523    0.0744    0.8092 C   0  0  0  0  0  0  0  0  0  0  0  0
   -0.3091   -0.2480    1.4443 C   0  0  1  0  0  0  0  0  0  0  0  0
   -1.2366    0.9936    1.3778 C   0  0  2  0  0  0  0  0  0  0  0  0
   -2.1377    1.1030    2.6045 C   0  0  0  0  0  0  0  0  0  0  0  0
   -3.6400    1.1969    2.5449 C   0  0  0  0  0  0  0  0  0  0  0  0
   -1.6108    1.1715    3.7049 O   0  0  0  0  0  0  0  0  0  0  0  0
   -1.9995    0.7488    0.1662 N   0  0  0  0  0  0  0  0  0  0  0  0
   -2.1119    1.6389   -0.9517 C   0  0  0  0  0  0  0  0  0  0  0  0
   -1.8000    3.0102   -0.8541 C   0  0  0  0  0  0  0  0  0  0  0  0
   -1.9290    3.8521   -1.9711 C   0  0  0  0  0  0  0  0  0  0  0  0
   -1.6095    5.3148   -1.8747 C   0  0  0  0  0  0  0  0  0  0  0  0
   -2.3665    3.3218   -3.1910 C   0  0  0  0  0  0  0  0  0  0  0  0
   -2.6771    1.9673   -3.2981 C   0  0  0  0  0  0  0  0  0  0  0  0
   -2.5553    1.1253   -2.1860 C   0  0  0  0  0  0  0  0  0  0  0  0
   -2.8863   -0.3067   -2.3125 C   0  0  0  0  0  0  0  0  0  0  0  0
   -2.7964   -1.1345   -1.2663 C   0  0  0  0  0  0  0  0  0  0  0  0
   -2.3482   -0.6575    0.0968 C   0  0  1  0  0  0  0  0  0  0  0  0
   -1.1305   -1.3867    0.7278 C   0  0  0  0  0  0  0  0  0  0  0  0
   -1.5940   -2.4461    1.7209 C   0  0  0  0  0  0  0  0  0  0  0  0
   -2.2727   -2.2218    2.7122 O   0  0  0  0  0  0  0  0  0  0  0  0
   -1.1323   -3.7739    1.3345 C   0  0  0  0  0  0  0  0  0  0  0  0
   -1.3514   -5.0052    1.9549 C   0  0  0  0  0  0  0  0  0  0  0  0
   -0.8028   -6.1559    1.3629 C   0  0  0  0  0  0  0  0  0  0  0  0
   -0.0527   -6.0549    0.1737 C   0  0  0  0  0  0  0  0  0  0  0  0
    0.1534   -4.8029   -0.4288 C   0  0  0  0  0  0  0  0  0  0  0  0
   -0.4017   -3.6764    0.1807 C   0  0  0  0  0  0  0  0  0  0  0  0
   -0.3506   -2.2830   -0.2402 C   0  0  0  0  0  0  0  0  0  0  0  0
    0.1864   -1.9173   -1.2736 O   0  0  0  0  0  0  0  0  0  0  0  0
    1.1789    0.5437   -0.5061 C   0  0  0  0  0  0  0  0  0  0  0  0
    2.4394    0.8263   -1.0627 C   0  0  0  0  0  0  0  0  0  0  0  0
    2.5741    1.2711   -2.3415 O   0  0  0  0  0  0  0  0  0  0  0  0
    1.5455    1.5158   -3.2289 C   0  0  0  0  0  0  0  0  0  0  0  0
    3.6021    0.6479   -0.2956 C   0  0  0  0  0  0  0  0  0  0  0  0
    4.7894    0.9280   -0.9068 O   0  0  0  0  0  0  0  0  0  0  0  0
    6.0637    0.7875   -0.3980 C   0  0  0  0  0  0  0  0  0  0  0  0
    5.7297   -0.3434    3.4558 H   0  0  0  0  0  0  0  0  0  0  0  0
    4.2308   -1.3276    3.2757 H   0  0  0  0  0  0  0  0  0  0  0  0
    4.1295    0.4292    3.7513 H   0  0  0  0  0  0  0  0  0  0  0  0
    2.1284   -0.4328    2.5951 H   0  0  0  0  0  0  0  0  0  0  0  0
   -0.0942   -0.5231    2.5013 H   0  0  0  0  0  0  0  0  0  0  0  0
   -0.6381    1.9273    1.3697 H   0  0  0  0  0  0  0  0  0  0  0  0
   -4.0355    1.2006    1.5108 H   0  0  0  0  0  0  0  0  0  0  0  0
   -3.9633    2.1455    3.0226 H   0  0  0  0  0  0  0  0  0  0  0  0
   -4.0864    0.3448    3.0988 H   0  0  0  0  0  0  0  0  0  0  0  0
   -1.4711    3.4385    0.0805 H   0  0  0  0  0  0  0  0  0  0  0  0
   -1.2785    5.5953   -0.8524 H   0  0  0  0  0  0  0  0  0  0  0  0
   -2.5133    5.9095   -2.1258 H   0  0  0  0  0  0  0  0  0  0  0  0
   -0.7984    5.5674   -2.5895 H   0  0  0  0  0  0  0  0  0  0  0  0
   -2.4696    3.9610   -4.0595 H   0  0  0  0  0  0  0  0  0  0  0  0
   -3.0153    1.5751   -4.2495 H   0  0  0  0  0  0  0  0  0  0  0  0
   -3.2213   -0.7011   -3.2677 H   0  0  0  0  0  0  0  0  0  0  0  0
   -3.0666   -2.1786   -1.3917 H   0  0  0  0  0  0  0  0  0  0  0  0
   -3.2177   -0.8021    0.7715 H   0  0  0  0  0  0  0  0  0  0  0  0
   -1.9325   -5.0750    2.8652 H   0  0  0  0  0  0  0  0  0  0  0  0
   -0.9596   -7.1242    1.8199 H   0  0  0  0  0  0  0  0  0  0  0  0
    0.3641   -6.9452   -0.2789 H   0  0  0  0  0  0  0  0  0  0  0  0
    0.7249   -4.7165   -1.3440 H   0  0  0  0  0  0  0  0  0  0  0  0
    0.2956    0.6764   -1.1031 H   0  0  0  0  0  0  0  0  0  0  0  0
    1.9724    1.8697   -4.1893 H   0  0  0  0  0  0  0  0  0  0  0  0
    0.8727    2.3042   -2.8284 H   0  0  0  0  0  0  0  0  0  0  0  0
    0.9711    0.5839   -3.4187 H   0  0  0  0  0  0  0  0  0  0  0  0
    6.7957    1.0894   -1.1749 H   0  0  0  0  0  0  0  0  0  0  0  0
    6.2571   -0.2746   -0.1349 H   0  0  0  0  0  0  0  0  0  0  0  0
    6.2052    1.4460    0.4842 H   0  0  0  0  0  0  0  0  0  0  0  0
  1  2  1  0  0  0  0
  1 40  1  0  0  0  0
  1 41  1  0  0  0  0
  1 42  1  0  0  0  0
  2  3  1  0  0  0  0
  3  4  2  0  0  0  0
  4  5  1  0  0  0  0
  4 43  1  0  0  0  0
  5 33  2  0  0  0  0
  6  5  1  0  0  0  0
  6  7  1  0  0  0  0
  6 44  1  1  0  0  0
  7  8  1  0  0  0  0
  7 11  1  0  0  0  0
  7 45  1  6  0  0  0
  8  9  1  0  0  0  0
  8 10  2  0  0  0  0
  9 46  1  0  0  0  0
  9 47  1  0  0  0  0
  9 48  1  0  0  0  0
 11 12  1  0  0  0  0
 12 13  2  0  0  0  0
 13 14  1  0  0  0  0
 13 49  1  0  0  0  0
 14 15  1  0  0  0  0
 14 16  2  0  0  0  0
 15 50  1  0  0  0  0
 15 51  1  0  0  0  0
 15 52  1  0  0  0  0
 16 17  1  0  0  0  0
 16 53  1  0  0  0  0
 17 18  2  0  0  0  0
 17 54  1  0  0  0  0
 18 19  1  0  0  0  0
 18 12  1  0  0  0  0
 19 20  2  0  0  0  0
 19 55  1  0  0  0  0
 20 21  1  0  0  0  0
 20 56  1  0  0  0  0
 21 22  1  0  0  0  0
 21 11  1  0  0  0  0
 21 57  1  1  0  0  0
 22 23  1  0  0  0  0
 22  6  1  0  0  0  0
 23 24  2  0  0  0  0
 23 25  1  0  0  0  0
 25 26  2  0  0  0  0
 26 27  1  0  0  0  0
 26 58  1  0  0  0  0
 27 28  2  0  0  0  0
 27 59  1  0  0  0  0
 28 29  1  0  0  0  0
 28 60  1  0  0  0  0
 29 30  2  0  0  0  0
 29 61  1  0  0  0  0
 30 31  1  0  0  0  0
 30 25  1  0  0  0  0
 31 32  2  0  0  0  0
 31 22  1  0  0  0  0
 33 34  1  0  0  0  0
 33 62  1  0  0  0  0
 34 35  1  0  0  0  0
 34 37  2  0  0  0  0
 35 36  1  0  0  0  0
 36 63  1  0  0  0  0
 36 64  1  0  0  0  0
 36 65  1  0  0  0  0
 37 38  1  0  0  0  0
 37  3  1  0  0  0  0
 38 39  1  0  0  0  0
 39 66  1  0  0  0  0
 39 67  1  0  0  0  0
 39 68  1  0  0  0  0
M  END
>  <IDENTIFIER>
CNP0381293.3

>  <Energy>
692.543

$$$$
