
 OpenBabel09112503363D

 89 94  0  0  0  0  0  0  0  0999 V2000
    5.8930    7.5557   -0.6170 C   0  0  0  0  0  0  0  0  0  0  0  0
    5.8178    6.2495   -0.1801 O   0  0  0  0  0  0  0  0  0  0  0  0
    4.7200    5.4522   -0.2476 C   0  0  0  0  0  0  0  0  0  0  0  0
    4.8045    4.1623    0.2766 C   0  0  0  0  0  0  0  0  0  0  0  0
    3.7037    3.3019    0.2449 C   0  0  0  0  0  0  0  0  0  0  0  0
    2.4792    3.7041   -0.3203 C   0  0  0  0  0  0  0  0  0  0  0  0
    1.2422    2.8547   -0.3790 C   0  0  0  0  0  0  0  0  0  0  0  0
    0.9560    1.5403    0.0343 C   0  0  0  0  0  0  0  0  0  0  0  0
    1.9075    0.5036    0.6047 C   0  0  0  0  0  0  0  0  0  0  0  0
    2.6261   -0.1653   -0.5447 C   0  0  0  0  0  0  0  0  0  0  0  0
    1.9557   -0.7608   -1.3794 O   0  0  0  0  0  0  0  0  0  0  0  0
    3.9788   -0.1042   -0.6760 N   0  0  0  0  0  0  0  0  0  0  0  0
    4.6868   -0.7167   -1.7871 C   0  0  0  0  0  0  0  0  0  0  0  0
    4.6706   -2.2552   -1.7276 C   0  0  0  0  0  0  0  0  0  0  0  0
    5.4103   -2.7716   -0.5200 C   0  0  0  0  0  0  0  0  0  0  0  0
    4.9145   -2.5871    0.7817 C   0  0  0  0  0  0  0  0  0  0  0  0
    5.6491   -3.0603    1.8697 C   0  0  0  0  0  0  0  0  0  0  0  0
    6.8637   -3.7123    1.6572 C   0  0  0  0  0  0  0  0  0  0  0  0
    7.3235   -3.8899    0.3513 C   0  0  0  0  0  0  0  0  0  0  0  0
    6.5935   -3.4237   -0.6969 N   0  0  0  0  0  0  0  0  0  0  0  0
   -0.4010    1.3252   -0.2758 C   0  0  0  0  0  0  0  0  0  0  0  0
   -0.8297    2.4793   -0.8719 C   0  0  0  0  0  0  0  0  0  0  0  0
    0.1472    3.3546   -0.8987 O   0  0  0  0  0  0  0  0  0  0  0  0
   -2.0505    2.7771   -1.4310 C   0  0  0  0  0  0  0  0  0  0  0  0
   -2.1746    3.8927   -1.9140 O   0  0  0  0  0  0  0  0  0  0  0  0
   -3.1360    1.9127   -1.5468 C   0  0  0  0  0  0  0  0  0  0  0  0
   -3.3716    0.5762   -1.1047 C   0  0  0  0  0  0  0  0  0  0  0  0
   -2.4686   -0.2101   -0.3102 C   0  0  0  0  0  0  0  0  0  0  0  0
   -1.1275    0.1621   -0.0156 C   0  0  0  0  0  0  0  0  0  0  0  0
   -2.8563   -1.5581    0.3281 C   0  0  0  0  0  0  0  0  0  0  0  0
   -3.6033   -2.5987   -0.3117 C   0  0  0  0  0  0  0  0  0  0  0  0
   -3.7937   -3.8304    0.3401 C   0  0  0  0  0  0  0  0  0  0  0  0
   -3.3165   -4.0781    1.6238 C   0  0  0  0  0  0  0  0  0  0  0  0
   -3.5004   -5.2735    2.2497 O   0  0  0  0  0  0  0  0  0  0  0  0
   -4.1276   -6.3850    1.7259 C   0  0  0  0  0  0  0  0  0  0  0  0
   -2.6593   -3.0711    2.3164 C   0  0  0  0  0  0  0  0  0  0  0  0
   -2.2924   -3.3765    3.5961 O   0  0  0  0  0  0  0  0  0  0  0  0
   -1.8542   -2.5425    4.6027 C   0  0  0  0  0  0  0  0  0  0  0  0
   -2.4320   -1.8145    1.6941 C   0  0  0  0  0  0  0  0  0  0  0  0
   -1.8199   -0.8594    2.4407 O   0  0  0  0  0  0  0  0  0  0  0  0
   -2.4146    0.3251    2.8359 C   0  0  0  0  0  0  0  0  0  0  0  0
   -4.2768   -2.5672   -1.6578 C   0  0  0  0  0  0  0  0  0  0  0  0
   -4.3060   -1.2801   -2.4418 C   0  0  0  0  0  0  0  0  0  0  0  0
   -4.6940   -0.0689   -1.5757 C   0  0  2  0  0  0  0  0  0  0  0  0
   -5.4935    0.8034   -2.4391 N   0  0  0  0  0  0  0  0  0  0  0  0
   -6.7522    1.2300   -2.1417 C   0  0  0  0  0  0  0  0  0  0  0  0
   -7.4962    2.1147   -3.1019 C   0  0  0  0  0  0  0  0  0  0  0  0
   -7.2937    0.9080   -1.0947 O   0  0  0  0  0  0  0  0  0  0  0  0
    2.4062    5.0111   -0.8501 C   0  0  0  0  0  0  0  0  0  0  0  0
    3.5057    5.8737   -0.8157 C   0  0  0  0  0  0  0  0  0  0  0  0
    6.9147    7.9431   -0.4253 H   0  0  0  0  0  0  0  0  0  0  0  0
    5.1658    8.1868   -0.0627 H   0  0  0  0  0  0  0  0  0  0  0  0
    5.6922    7.6089   -1.7080 H   0  0  0  0  0  0  0  0  0  0  0  0
    5.7327    3.8226    0.7208 H   0  0  0  0  0  0  0  0  0  0  0  0
    3.8475    2.3451    0.6771 H   0  0  0  0  0  0  0  0  0  0  0  0
    1.3753   -0.2952    1.1503 H   0  0  0  0  0  0  0  0  0  0  0  0
    2.5492    0.9322    1.3916 H   0  0  0  0  0  0  0  0  0  0  0  0
    4.5376    0.4147    0.0135 H   0  0  0  0  0  0  0  0  0  0  0  0
    5.7507   -0.3916   -1.7676 H   0  0  0  0  0  0  0  0  0  0  0  0
    4.2470   -0.3609   -2.7442 H   0  0  0  0  0  0  0  0  0  0  0  0
    5.1938   -2.6143   -2.6413 H   0  0  0  0  0  0  0  0  0  0  0  0
    3.6393   -2.6656   -1.7529 H   0  0  0  0  0  0  0  0  0  0  0  0
    3.9734   -2.0869    0.9598 H   0  0  0  0  0  0  0  0  0  0  0  0
    5.2770   -2.9192    2.8762 H   0  0  0  0  0  0  0  0  0  0  0  0
    7.4415   -4.0784    2.4956 H   0  0  0  0  0  0  0  0  0  0  0  0
    8.2627   -4.3945    0.1700 H   0  0  0  0  0  0  0  0  0  0  0  0
   -3.9267    2.4095   -2.0826 H   0  0  0  0  0  0  0  0  0  0  0  0
   -0.5569   -0.5937    0.4864 H   0  0  0  0  0  0  0  0  0  0  0  0
   -4.3413   -4.6139   -0.1703 H   0  0  0  0  0  0  0  0  0  0  0  0
   -4.1035   -7.2007    2.4775 H   0  0  0  0  0  0  0  0  0  0  0  0
   -3.5969   -6.7307    0.8132 H   0  0  0  0  0  0  0  0  0  0  0  0
   -5.1876   -6.1525    1.4903 H   0  0  0  0  0  0  0  0  0  0  0  0
   -1.6757   -3.1495    5.5140 H   0  0  0  0  0  0  0  0  0  0  0  0
   -2.6408   -1.7964    4.8427 H   0  0  0  0  0  0  0  0  0  0  0  0
   -0.8992   -2.0501    4.3306 H   0  0  0  0  0  0  0  0  0  0  0  0
   -1.6839    0.9091    3.4325 H   0  0  0  0  0  0  0  0  0  0  0  0
   -3.2988    0.1095    3.4708 H   0  0  0  0  0  0  0  0  0  0  0  0
   -2.7374    0.9436    1.9781 H   0  0  0  0  0  0  0  0  0  0  0  0
   -5.3478   -2.7986   -1.4471 H   0  0  0  0  0  0  0  0  0  0  0  0
   -3.8834   -3.3764   -2.3120 H   0  0  0  0  0  0  0  0  0  0  0  0
   -5.0743   -1.4609   -3.2291 H   0  0  0  0  0  0  0  0  0  0  0  0
   -3.3520   -1.0901   -2.9841 H   0  0  0  0  0  0  0  0  0  0  0  0
   -5.3067   -0.3736   -0.6984 H   0  0  0  0  0  0  0  0  0  0  0  0
   -5.0818    1.0933   -3.3416 H   0  0  0  0  0  0  0  0  0  0  0  0
   -6.8909    2.3303   -4.0081 H   0  0  0  0  0  0  0  0  0  0  0  0
   -7.7412    3.0780   -2.6078 H   0  0  0  0  0  0  0  0  0  0  0  0
   -8.4357    1.6157   -3.4180 H   0  0  0  0  0  0  0  0  0  0  0  0
    1.4891    5.3791   -1.2929 H   0  0  0  0  0  0  0  0  0  0  0  0
    3.3981    6.8669   -1.2304 H   0  0  0  0  0  0  0  0  0  0  0  0
  1  2  1  0  0  0  0
  1 51  1  0  0  0  0
  1 52  1  0  0  0  0
  1 53  1  0  0  0  0
  2  3  1  0  0  0  0
  3  4  2  0  0  0  0
  4  5  1  0  0  0  0
  4 54  1  0  0  0  0
  5  6  2  0  0  0  0
  5 55  1  0  0  0  0
  6  7  1  0  0  0  0
  6 49  1  0  0  0  0
  7  8  2  0  0  0  0
  8  9  1  0  0  0  0
  8 21  1  0  0  0  0
  9 10  1  0  0  0  0
  9 56  1  0  0  0  0
  9 57  1  0  0  0  0
 10 11  2  0  0  0  0
 10 12  1  0  0  0  0
 12 13  1  0  0  0  0
 12 58  1  0  0  0  0
 13 14  1  0  0  0  0
 13 59  1  0  0  0  0
 13 60  1  0  0  0  0
 14 15  1  0  0  0  0
 14 61  1  0  0  0  0
 14 62  1  0  0  0  0
 15 16  2  0  0  0  0
 16 17  1  0  0  0  0
 16 63  1  0  0  0  0
 17 18  2  0  0  0  0
 17 64  1  0  0  0  0
 18 19  1  0  0  0  0
 18 65  1  0  0  0  0
 19 20  2  0  0  0  0
 19 66  1  0  0  0  0
 20 15  1  0  0  0  0
 21 22  2  0  0  0  0
 22 23  1  0  0  0  0
 22 24  1  0  0  0  0
 23  7  1  0  0  0  0
 24 25  2  0  0  0  0
 24 26  1  0  0  0  0
 26 27  2  0  0  0  0
 26 67  1  0  0  0  0
 27 28  1  0  0  0  0
 28 29  2  0  0  0  0
 28 30  1  0  0  0  0
 29 21  1  0  0  0  0
 29 68  1  0  0  0  0
 30 31  2  0  0  0  0
 31 32  1  0  0  0  0
 31 42  1  0  0  0  0
 32 33  2  0  0  0  0
 32 69  1  0  0  0  0
 33 34  1  0  0  0  0
 33 36  1  0  0  0  0
 34 35  1  0  0  0  0
 35 70  1  0  0  0  0
 35 71  1  0  0  0  0
 35 72  1  0  0  0  0
 36 37  1  0  0  0  0
 36 39  2  0  0  0  0
 37 38  1  0  0  0  0
 38 73  1  0  0  0  0
 38 74  1  0  0  0  0
 38 75  1  0  0  0  0
 39 40  1  0  0  0  0
 39 30  1  0  0  0  0
 40 41  1  0  0  0  0
 41 76  1  0  0  0  0
 41 77  1  0  0  0  0
 41 78  1  0  0  0  0
 42 43  1  0  0  0  0
 42 79  1  0  0  0  0
 42 80  1  0  0  0  0
 43 44  1  0  0  0  0
 43 81  1  0  0  0  0
 43 82  1  0  0  0  0
 44 45  1  0  0  0  0
 44 27  1  0  0  0  0
 44 83  1  1  0  0  0
 45 46  1  0  0  0  0
 45 84  1  0  0  0  0
 46 47  1  0  0  0  0
 46 48  2  0  0  0  0
 47 85  1  0  0  0  0
 47 86  1  0  0  0  0
 47 87  1  0  0  0  0
 49 50  2  0  0  0  0
 49 88  1  0  0  0  0
 50  3  1  0  0  0  0
 50 89  1  0  0  0  0
M  END
>  <IDENTIFIER>
CNP0527324.1

>  <Energy>
1053.97

$$$$
