
 OpenBabel09042517053D

 63 66  0  0  0  0  0  0  0  0999 V2000
    5.5403    1.3922   -0.0136 C   0  0  0  0  0  0  0  0  0  0  0  0
    4.0688    1.5839   -0.4219 C   0  0  2  0  0  0  0  0  0  0  0  0
    3.8147    2.9393   -0.7072 O   0  0  0  0  0  0  0  0  0  0  0  0
    3.0606    1.0573    0.6595 C   0  0  1  0  0  0  0  0  0  0  0  0
    3.2527    1.7779    1.8556 O   0  0  0  0  0  0  0  0  0  0  0  0
    1.5903    1.1156    0.1911 C   0  0  0  0  0  0  0  0  0  0  0  0
    1.4827   -0.0596   -0.7934 C   0  0  2  0  0  0  0  0  0  0  0  0
    0.0601   -0.5267   -1.1785 C   0  0  2  0  0  0  0  0  0  0  0  0
   -0.7649    0.5450   -1.9134 C   0  0  0  0  0  0  0  0  0  0  0  0
   -2.1611   -0.0118   -2.1555 C   0  0  0  0  0  0  0  0  0  0  0  0
   -2.9849   -0.1477   -0.8266 C   0  0  2  0  0  0  0  0  0  0  0  0
   -4.1154   -1.1628   -1.1686 C   0  0  0  0  0  0  0  0  0  0  0  0
   -3.6527    1.2600   -0.5576 C   0  0  0  0  0  0  0  0  0  0  0  0
   -4.1988    1.3571    0.8700 C   0  0  2  0  0  0  0  0  0  0  0  0
   -4.9756    2.5105    1.0685 O   0  0  0  0  0  0  0  0  0  0  0  0
   -3.0491    1.2864    1.9039 C   0  0  0  0  0  0  0  0  0  0  0  0
   -1.7753    0.5975    1.3522 C   0  0  0  0  0  0  0  0  0  0  0  0
   -2.0778   -0.6325    0.4441 C   0  0  1  0  0  0  0  0  0  0  0  0
   -2.8192   -1.6711    1.3505 C   0  0  0  0  0  0  0  0  0  0  0  0
   -0.7408   -1.3120   -0.0685 C   0  0  2  0  0  0  0  0  0  0  0  0
    0.2049   -1.8888    1.0334 C   0  0  0  0  0  0  0  0  0  0  0  0
    1.5186   -2.3738    0.4087 C   0  0  0  0  0  0  0  0  0  0  0  0
    2.3684   -1.1921   -0.1685 C   0  0  1  0  0  0  0  0  0  0  0  0
    3.3414   -1.8022   -1.2045 C   0  0  0  0  0  0  0  0  0  0  0  0
    3.1599   -0.4549    0.9548 C   0  0  0  0  0  0  0  0  0  0  0  0
    6.2029    1.7910   -0.8109 H   0  0  0  0  0  0  0  0  0  0  0  0
    5.7795    0.3172    0.1154 H   0  0  0  0  0  0  0  0  0  0  0  0
    5.7631    1.9279    0.9331 H   0  0  0  0  0  0  0  0  0  0  0  0
    3.9560    1.0498   -1.3763 H   0  0  0  0  0  0  0  0  0  0  0  0
    4.1583    3.4869    0.0455 H   0  0  0  0  0  0  0  0  0  0  0  0
    2.7965    2.6548    1.7625 H   0  0  0  0  0  0  0  0  0  0  0  0
    1.2755    2.0947   -0.2288 H   0  0  0  0  0  0  0  0  0  0  0  0
    0.9584    0.9113    1.0759 H   0  0  0  0  0  0  0  0  0  0  0  0
    1.9714    0.3014   -1.7237 H   0  0  0  0  0  0  0  0  0  0  0  0
    0.2766   -1.3087   -1.9465 H   0  0  0  0  0  0  0  0  0  0  0  0
   -0.2628    0.7686   -2.8803 H   0  0  0  0  0  0  0  0  0  0  0  0
   -0.8284    1.4994   -1.3614 H   0  0  0  0  0  0  0  0  0  0  0  0
   -2.0171   -1.0030   -2.6442 H   0  0  0  0  0  0  0  0  0  0  0  0
   -2.7204    0.6124   -2.8874 H   0  0  0  0  0  0  0  0  0  0  0  0
   -4.6968   -0.8208   -2.0524 H   0  0  0  0  0  0  0  0  0  0  0  0
   -4.8414   -1.2972   -0.3435 H   0  0  0  0  0  0  0  0  0  0  0  0
   -3.6862   -2.1574   -1.4156 H   0  0  0  0  0  0  0  0  0  0  0  0
   -4.4557    1.4466   -1.3047 H   0  0  0  0  0  0  0  0  0  0  0  0
   -2.9205    2.0873   -0.6760 H   0  0  0  0  0  0  0  0  0  0  0  0
   -4.8746    0.4924    1.0023 H   0  0  0  0  0  0  0  0  0  0  0  0
   -4.4121    3.2938    0.8358 H   0  0  0  0  0  0  0  0  0  0  0  0
   -3.4432    0.7819    2.8126 H   0  0  0  0  0  0  0  0  0  0  0  0
   -2.7259    2.3036    2.2165 H   0  0  0  0  0  0  0  0  0  0  0  0
   -1.1221    0.3601    2.2155 H   0  0  0  0  0  0  0  0  0  0  0  0
   -1.2392    1.3477    0.7473 H   0  0  0  0  0  0  0  0  0  0  0  0
   -2.2268   -1.9146    2.2557 H   0  0  0  0  0  0  0  0  0  0  0  0
   -3.0020   -2.6215    0.8067 H   0  0  0  0  0  0  0  0  0  0  0  0
   -3.7945   -1.3083    1.7218 H   0  0  0  0  0  0  0  0  0  0  0  0
   -1.1189   -2.2046   -0.6221 H   0  0  0  0  0  0  0  0  0  0  0  0
   -0.2910   -2.7456    1.5338 H   0  0  0  0  0  0  0  0  0  0  0  0
    0.4406   -1.1459    1.8144 H   0  0  0  0  0  0  0  0  0  0  0  0
    1.2233   -3.0787   -0.4009 H   0  0  0  0  0  0  0  0  0  0  0  0
    2.1313   -2.9518    1.1349 H   0  0  0  0  0  0  0  0  0  0  0  0
    3.9740   -2.5787   -0.7222 H   0  0  0  0  0  0  0  0  0  0  0  0
    4.0228   -1.0599   -1.6534 H   0  0  0  0  0  0  0  0  0  0  0  0
    2.7738   -2.2785   -2.0325 H   0  0  0  0  0  0  0  0  0  0  0  0
    4.1614   -0.8694    1.1913 H   0  0  0  0  0  0  0  0  0  0  0  0
    2.5896   -0.5862    1.9008 H   0  0  0  0  0  0  0  0  0  0  0  0
  1 26  1  0  0  0  0
  1 27  1  0  0  0  0
  1 28  1  0  0  0  0
  2  1  1  0  0  0  0
  2  3  1  0  0  0  0
  2  4  1  0  0  0  0
  2 29  1  6  0  0  0
  3 30  1  0  0  0  0
  4  5  1  1  0  0  0
  4  6  1  0  0  0  0
  5 31  1  0  0  0  0
  6 32  1  0  0  0  0
  6 33  1  0  0  0  0
  7  6  1  0  0  0  0
  7  8  1  0  0  0  0
  7 34  1  6  0  0  0
  8  9  1  0  0  0  0
  8 35  1  6  0  0  0
  9 10  1  0  0  0  0
  9 36  1  0  0  0  0
  9 37  1  0  0  0  0
 10 11  1  0  0  0  0
 10 38  1  0  0  0  0
 10 39  1  0  0  0  0
 11 12  1  6  0  0  0
 11 13  1  0  0  0  0
 12 40  1  0  0  0  0
 12 41  1  0  0  0  0
 12 42  1  0  0  0  0
 13 14  1  0  0  0  0
 13 43  1  0  0  0  0
 13 44  1  0  0  0  0
 14 15  1  0  0  0  0
 14 16  1  0  0  0  0
 14 45  1  1  0  0  0
 15 46  1  0  0  0  0
 16 17  1  0  0  0  0
 16 47  1  0  0  0  0
 16 48  1  0  0  0  0
 17 18  1  0  0  0  0
 17 49  1  0  0  0  0
 17 50  1  0  0  0  0
 18 19  1  1  0  0  0
 18 20  1  0  0  0  0
 18 11  1  0  0  0  0
 19 51  1  0  0  0  0
 19 52  1  0  0  0  0
 19 53  1  0  0  0  0
 20 21  1  0  0  0  0
 20  8  1  0  0  0  0
 20 54  1  6  0  0  0
 21 22  1  0  0  0  0
 21 55  1  0  0  0  0
 21 56  1  0  0  0  0
 22 23  1  0  0  0  0
 22 57  1  0  0  0  0
 22 58  1  0  0  0  0
 23 24  1  6  0  0  0
 23 25  1  0  0  0  0
 23  7  1  0  0  0  0
 24 59  1  0  0  0  0
 24 60  1  0  0  0  0
 24 61  1  0  0  0  0
 25  4  1  0  0  0  0
 25 62  1  0  0  0  0
 25 63  1  0  0  0  0
M  END
>  <IDENTIFIER>
CNP0068441.2

>  <Energy>
893.843

$$$$
