
 OpenBabel09132500223D

 58 61  0  0  0  0  0  0  0  0999 V2000
    8.8065    1.9934    0.2089 C   0  0  0  0  0  0  0  0  0  0  0  0
    7.5621    1.1972    0.4885 C   0  0  0  0  0  0  0  0  0  0  0  0
    7.6074    0.1083    1.3707 C   0  0  0  0  0  0  0  0  0  0  0  0
    6.4535   -0.6286    1.6476 C   0  0  0  0  0  0  0  0  0  0  0  0
    5.2258   -0.3072    1.0448 C   0  0  0  0  0  0  0  0  0  0  0  0
    4.0699   -1.0835    1.3935 N   0  0  0  0  0  0  0  0  0  0  0  0
    2.7891   -1.0315    0.7645 C   0  0  0  0  0  0  0  0  0  0  0  0
    2.5886   -0.4693   -0.3714 N   0  0  0  0  0  0  0  0  0  0  0  0
    1.2188   -0.5138   -0.8017 C   0  0  1  0  0  0  0  0  0  0  0  0
    0.9621   -1.7797   -1.7038 C   0  0  1  0  0  0  0  0  0  0  0  0
    2.0924   -2.6101   -1.8309 O   0  0  0  0  0  0  0  0  0  0  0  0
   -0.2832   -2.6154   -1.2809 C   0  0  2  0  0  0  0  0  0  0  0  0
   -0.6397   -3.5178   -2.2990 O   0  0  0  0  0  0  0  0  0  0  0  0
   -1.4303   -1.6681   -0.9429 C   0  0  0  0  0  0  0  0  0  0  0  0
   -1.1129   -0.7812    0.3047 C   0  0  2  0  0  0  0  0  0  0  0  0
   -1.8703    0.5488    0.1465 C   0  0  0  0  0  0  0  0  0  0  0  0
   -1.2070    1.5687   -0.0041 O   0  0  0  0  0  0  0  0  0  0  0  0
   -3.2438    0.6495    0.1253 N   0  0  0  0  0  0  0  0  0  0  0  0
   -3.8432    1.9755   -0.0893 C   0  0  0  0  0  0  0  0  0  0  0  0
   -5.3643    1.8884   -0.2136 C   0  0  0  0  0  0  0  0  0  0  0  0
   -6.0235    1.1453    0.9774 C   0  0  1  0  0  0  0  0  0  0  0  0
   -7.4098    0.6929    0.5389 C   0  0  0  0  0  0  0  0  0  0  0  0
   -8.3388    1.6048    0.1647 N   0  0  0  0  0  0  0  0  0  0  0  0
   -7.6995   -0.4949    0.5174 O   0  0  0  0  0  0  0  0  0  0  0  0
   -5.1248   -0.0260    1.4841 C   0  0  0  0  0  0  0  0  0  0  0  0
   -4.1380   -0.4830    0.4068 C   0  0  0  0  0  0  0  0  0  0  0  0
    0.4251   -0.5481    0.5051 C   0  0  1  0  0  0  0  0  0  0  0  0
    1.3259   -1.7754    1.5162 S   0  0  0  0  0  0  0  0  0  0  0  0
    5.1874    0.7920    0.1569 C   0  0  0  0  0  0  0  0  0  0  0  0
    6.3398    1.5363   -0.1184 C   0  0  0  0  0  0  0  0  0  0  0  0
    6.2133    2.9034   -1.2227 Cl  0  0  0  0  0  0  0  0  0  0  0  0
    9.6813    1.5975    0.7667 H   0  0  0  0  0  0  0  0  0  0  0  0
    8.6498    3.0498    0.5146 H   0  0  0  0  0  0  0  0  0  0  0  0
    9.0392    1.9583   -0.8761 H   0  0  0  0  0  0  0  0  0  0  0  0
    8.5366   -0.1694    1.8527 H   0  0  0  0  0  0  0  0  0  0  0  0
    6.5184   -1.4602    2.3395 H   0  0  0  0  0  0  0  0  0  0  0  0
    4.1531   -1.7282    2.1936 H   0  0  0  0  0  0  0  0  0  0  0  0
    0.9359    0.4109   -1.3503 H   0  0  0  0  0  0  0  0  0  0  0  0
    0.7677   -1.3689   -2.7192 H   0  0  0  0  0  0  0  0  0  0  0  0
    2.1978   -3.1133   -0.9824 H   0  0  0  0  0  0  0  0  0  0  0  0
   -0.0776   -3.2141   -0.3691 H   0  0  0  0  0  0  0  0  0  0  0  0
   -0.9332   -2.9885   -3.0862 H   0  0  0  0  0  0  0  0  0  0  0  0
   -2.3764   -2.2258   -0.7994 H   0  0  0  0  0  0  0  0  0  0  0  0
   -1.5613   -1.0235   -1.8427 H   0  0  0  0  0  0  0  0  0  0  0  0
   -1.4353   -1.2627    1.2519 H   0  0  0  0  0  0  0  0  0  0  0  0
   -3.4577    2.4166   -1.0354 H   0  0  0  0  0  0  0  0  0  0  0  0
   -3.5679    2.6447    0.7558 H   0  0  0  0  0  0  0  0  0  0  0  0
   -5.5431    1.2974   -1.1408 H   0  0  0  0  0  0  0  0  0  0  0  0
   -5.8215    2.8882   -0.3724 H   0  0  0  0  0  0  0  0  0  0  0  0
   -6.1577    1.8273    1.8460 H   0  0  0  0  0  0  0  0  0  0  0  0
   -8.1275    2.6129    0.1775 H   0  0  0  0  0  0  0  0  0  0  0  0
   -9.2767    1.3015   -0.1369 H   0  0  0  0  0  0  0  0  0  0  0  0
   -5.7263   -0.8540    1.9158 H   0  0  0  0  0  0  0  0  0  0  0  0
   -4.4879    0.3509    2.3167 H   0  0  0  0  0  0  0  0  0  0  0  0
   -4.6944   -0.7896   -0.5049 H   0  0  0  0  0  0  0  0  0  0  0  0
   -3.5977   -1.3624    0.7981 H   0  0  0  0  0  0  0  0  0  0  0  0
    0.5681    0.3806    1.1045 H   0  0  0  0  0  0  0  0  0  0  0  0
    4.2802    1.1173   -0.3192 H   0  0  0  0  0  0  0  0  0  0  0  0
  1  2  1  0  0  0  0
  1 32  1  0  0  0  0
  1 33  1  0  0  0  0
  1 34  1  0  0  0  0
  2  3  2  0  0  0  0
  3  4  1  0  0  0  0
  3 35  1  0  0  0  0
  4  5  2  0  0  0  0
  4 36  1  0  0  0  0
  5  6  1  0  0  0  0
  5 29  1  0  0  0  0
  6  7  1  0  0  0  0
  6 37  1  0  0  0  0
  7  8  2  0  0  0  0
  9  8  1  0  0  0  0
  9 10  1  0  0  0  0
  9 38  1  6  0  0  0
 10 11  1  0  0  0  0
 10 12  1  0  0  0  0
 10 39  1  6  0  0  0
 11 40  1  0  0  0  0
 12 13  1  0  0  0  0
 12 14  1  0  0  0  0
 12 41  1  1  0  0  0
 13 42  1  0  0  0  0
 14 15  1  0  0  0  0
 14 43  1  0  0  0  0
 14 44  1  0  0  0  0
 15 16  1  0  0  0  0
 15 27  1  0  0  0  0
 15 45  1  1  0  0  0
 16 17  2  0  0  0  0
 16 18  1  0  0  0  0
 18 19  1  0  0  0  0
 19 20  1  0  0  0  0
 19 46  1  0  0  0  0
 19 47  1  0  0  0  0
 20 21  1  0  0  0  0
 20 48  1  0  0  0  0
 20 49  1  0  0  0  0
 21 22  1  0  0  0  0
 21 25  1  0  0  0  0
 21 50  1  1  0  0  0
 22 23  1  0  0  0  0
 22 24  2  0  0  0  0
 23 51  1  0  0  0  0
 23 52  1  0  0  0  0
 25 26  1  0  0  0  0
 25 53  1  0  0  0  0
 25 54  1  0  0  0  0
 26 18  1  0  0  0  0
 26 55  1  0  0  0  0
 26 56  1  0  0  0  0
 27 28  1  0  0  0  0
 27  9  1  0  0  0  0
 27 57  1  1  0  0  0
 28  7  1  0  0  0  0
 29 30  2  0  0  0  0
 29 58  1  0  0  0  0
 30 31  1  0  0  0  0
 30  2  1  0  0  0  0
M  END
>  <IDENTIFIER>
CNP0476464.1

>  <Energy>
697.264

$$$$
