
 OpenBabel09112519073D

 80 85  0  0  0  0  0  0  0  0999 V2000
   -3.2588    3.7677   -3.3247 O   0  0  0  0  0  0  0  0  0  0  0  0
   -3.7603    2.8453   -2.7024 C   0  0  0  0  0  0  0  0  0  0  0  0
   -5.2474    2.6726   -2.6452 C   0  0  0  0  0  0  0  0  0  0  0  0
   -5.6126    2.4852   -1.1660 C   0  0  1  0  0  0  0  0  0  0  0  0
   -7.1191    2.5028   -1.0167 C   0  0  0  0  0  0  0  0  0  0  0  0
   -7.9284    1.5216   -1.6166 C   0  0  0  0  0  0  0  0  0  0  0  0
   -9.3176    1.5657   -1.4643 C   0  0  0  0  0  0  0  0  0  0  0  0
   -9.9186    2.5899   -0.7163 C   0  0  0  0  0  0  0  0  0  0  0  0
  -11.2592    2.6307   -0.5690 O   0  0  0  0  0  0  0  0  0  0  0  0
   -9.1163    3.5777   -0.1188 C   0  0  0  0  0  0  0  0  0  0  0  0
   -9.6576    4.5803    0.6053 O   0  0  0  0  0  0  0  0  0  0  0  0
   -7.7280    3.5295   -0.2718 C   0  0  0  0  0  0  0  0  0  0  0  0
   -4.8374    1.2652   -0.6077 C   0  0  0  0  0  0  0  0  0  0  0  0
   -5.3140    0.3022    0.3426 C   0  0  0  0  0  0  0  0  0  0  0  0
   -6.5367    0.3251    0.9171 O   0  0  0  0  0  0  0  0  0  0  0  0
   -4.4711   -0.7342    0.7668 C   0  0  0  0  0  0  0  0  0  0  0  0
   -3.1557   -0.8284    0.3248 C   0  0  0  0  0  0  0  0  0  0  0  0
   -2.3567   -1.8316    0.7887 O   0  0  0  0  0  0  0  0  0  0  0  0
   -1.0632   -2.0489    0.3258 C   0  0  2  0  0  0  0  0  0  0  0  0
   -0.3014   -2.9064    1.3108 C   0  0  0  0  0  0  0  0  0  0  0  0
   -0.1024   -2.4817    2.6350 C   0  0  0  0  0  0  0  0  0  0  0  0
    0.6108   -3.2800    3.5330 C   0  0  0  0  0  0  0  0  0  0  0  0
    1.1335   -4.5156    3.1235 C   0  0  0  0  0  0  0  0  0  0  0  0
    1.8232   -5.2851    3.9914 O   0  0  0  0  0  0  0  0  0  0  0  0
    0.9355   -4.9504    1.8005 C   0  0  0  0  0  0  0  0  0  0  0  0
    1.4222   -6.1340    1.3710 O   0  0  0  0  0  0  0  0  0  0  0  0
    0.2219   -4.1463    0.9046 C   0  0  0  0  0  0  0  0  0  0  0  0
   -0.3992   -0.6818    0.0996 C   0  0  1  0  0  0  0  0  0  0  0  0
    0.9374   -0.7804   -0.2635 O   0  0  0  0  0  0  0  0  0  0  0  0
    1.9302   -0.0885    0.3691 C   0  0  0  0  0  0  0  0  0  0  0  0
    1.6564    0.6986    1.2678 O   0  0  0  0  0  0  0  0  0  0  0  0
    3.3676   -0.2434   -0.0737 C   0  0  0  0  0  0  0  0  0  0  0  0
    4.3086    0.7336    0.6824 C   0  0  1  0  0  0  0  0  0  0  0  0
    4.2720    0.5310    2.0761 O   0  0  0  0  0  0  0  0  0  0  0  0
    5.7615    0.7430    0.1755 C   0  0  0  0  0  0  0  0  0  0  0  0
    6.5526   -0.5415    0.4705 C   0  0  0  0  0  0  0  0  0  0  0  0
    7.9895   -0.3735    0.0380 C   0  0  0  0  0  0  0  0  0  0  0  0
    9.0203   -0.3677    0.9923 C   0  0  0  0  0  0  0  0  0  0  0  0
   10.3476   -0.1857    0.5974 C   0  0  0  0  0  0  0  0  0  0  0  0
   10.6663   -0.0131   -0.7572 C   0  0  0  0  0  0  0  0  0  0  0  0
   11.9487    0.1678   -1.1363 O   0  0  0  0  0  0  0  0  0  0  0  0
    9.6407   -0.0270   -1.7207 C   0  0  0  0  0  0  0  0  0  0  0  0
    9.9105    0.1334   -3.0334 O   0  0  0  0  0  0  0  0  0  0  0  0
    8.3114   -0.2057   -1.3192 C   0  0  0  0  0  0  0  0  0  0  0  0
   -1.1965    0.0647   -0.9789 C   0  0  0  0  0  0  0  0  0  0  0  0
   -2.6531    0.1278   -0.5752 C   0  0  0  0  0  0  0  0  0  0  0  0
   -3.4885    1.1402   -1.0662 C   0  0  0  0  0  0  0  0  0  0  0  0
   -2.9793    2.0066   -1.9844 O   0  0  0  0  0  0  0  0  0  0  0  0
   -5.5319    1.7571   -3.2087 H   0  0  0  0  0  0  0  0  0  0  0  0
   -5.7555    3.5497   -3.1038 H   0  0  0  0  0  0  0  0  0  0  0  0
   -5.1989    3.3756   -0.6378 H   0  0  0  0  0  0  0  0  0  0  0  0
   -7.4841    0.7217   -2.1948 H   0  0  0  0  0  0  0  0  0  0  0  0
   -9.9276    0.8006   -1.9276 H   0  0  0  0  0  0  0  0  0  0  0  0
  -11.8421    1.9671   -0.9643 H   0  0  0  0  0  0  0  0  0  0  0  0
  -10.6103    4.6697    0.7470 H   0  0  0  0  0  0  0  0  0  0  0  0
   -7.1237    4.2985    0.1947 H   0  0  0  0  0  0  0  0  0  0  0  0
   -7.1808    1.0340    0.8724 H   0  0  0  0  0  0  0  0  0  0  0  0
   -4.8376   -1.4612    1.4818 H   0  0  0  0  0  0  0  0  0  0  0  0
   -1.1140   -2.5703   -0.6575 H   0  0  0  0  0  0  0  0  0  0  0  0
   -0.4975   -1.5325    2.9730 H   0  0  0  0  0  0  0  0  0  0  0  0
    0.7572   -2.9364    4.5491 H   0  0  0  0  0  0  0  0  0  0  0  0
    1.9795   -5.0158    4.9078 H   0  0  0  0  0  0  0  0  0  0  0  0
    1.9220   -6.7333    1.9429 H   0  0  0  0  0  0  0  0  0  0  0  0
    0.0785   -4.4927   -0.1120 H   0  0  0  0  0  0  0  0  0  0  0  0
   -0.5098   -0.1055    1.0475 H   0  0  0  0  0  0  0  0  0  0  0  0
    3.4176   -0.0108   -1.1592 H   0  0  0  0  0  0  0  0  0  0  0  0
    3.6846   -1.2972    0.0764 H   0  0  0  0  0  0  0  0  0  0  0  0
    3.9142    1.7552    0.4833 H   0  0  0  0  0  0  0  0  0  0  0  0
    4.3340   -0.4447    2.2465 H   0  0  0  0  0  0  0  0  0  0  0  0
    6.2811    1.5846    0.6858 H   0  0  0  0  0  0  0  0  0  0  0  0
    5.7606    0.9555   -0.9156 H   0  0  0  0  0  0  0  0  0  0  0  0
    6.1043   -1.4168   -0.0451 H   0  0  0  0  0  0  0  0  0  0  0  0
    6.5215   -0.7315    1.5646 H   0  0  0  0  0  0  0  0  0  0  0  0
    8.7982   -0.4912    2.0450 H   0  0  0  0  0  0  0  0  0  0  0  0
   11.1285   -0.1750    1.3476 H   0  0  0  0  0  0  0  0  0  0  0  0
   12.6763    0.1908   -0.4983 H   0  0  0  0  0  0  0  0  0  0  0  0
   10.8081    0.2617   -3.3707 H   0  0  0  0  0  0  0  0  0  0  0  0
    7.5283   -0.2118   -2.0675 H   0  0  0  0  0  0  0  0  0  0  0  0
   -1.1072   -0.4103   -1.9801 H   0  0  0  0  0  0  0  0  0  0  0  0
   -0.7711    1.0908   -1.0329 H   0  0  0  0  0  0  0  0  0  0  0  0
  1  2  2  0  0  0  0
  2  3  1  0  0  0  0
  3  4  1  0  0  0  0
  3 49  1  0  0  0  0
  3 50  1  0  0  0  0
  4  5  1  0  0  0  0
  4 13  1  0  0  0  0
  4 51  1  1  0  0  0
  5  6  2  0  0  0  0
  6  7  1  0  0  0  0
  6 52  1  0  0  0  0
  7  8  2  0  0  0  0
  7 53  1  0  0  0  0
  8  9  1  0  0  0  0
  8 10  1  0  0  0  0
  9 54  1  0  0  0  0
 10 11  1  0  0  0  0
 10 12  2  0  0  0  0
 11 55  1  0  0  0  0
 12  5  1  0  0  0  0
 12 56  1  0  0  0  0
 13 14  2  0  0  0  0
 14 15  1  0  0  0  0
 14 16  1  0  0  0  0
 15 57  1  0  0  0  0
 16 17  2  0  0  0  0
 16 58  1  0  0  0  0
 17 18  1  0  0  0  0
 18 19  1  0  0  0  0
 19 20  1  0  0  0  0
 19 28  1  0  0  0  0
 19 59  1  6  0  0  0
 20 21  2  0  0  0  0
 21 22  1  0  0  0  0
 21 60  1  0  0  0  0
 22 23  2  0  0  0  0
 22 61  1  0  0  0  0
 23 24  1  0  0  0  0
 23 25  1  0  0  0  0
 24 62  1  0  0  0  0
 25 26  1  0  0  0  0
 25 27  2  0  0  0  0
 26 63  1  0  0  0  0
 27 20  1  0  0  0  0
 27 64  1  0  0  0  0
 28 29  1  0  0  0  0
 28 45  1  0  0  0  0
 28 65  1  1  0  0  0
 29 30  1  0  0  0  0
 30 31  2  0  0  0  0
 30 32  1  0  0  0  0
 32 33  1  0  0  0  0
 32 66  1  0  0  0  0
 32 67  1  0  0  0  0
 33 34  1  0  0  0  0
 33 35  1  0  0  0  0
 33 68  1  6  0  0  0
 34 69  1  0  0  0  0
 35 36  1  0  0  0  0
 35 70  1  0  0  0  0
 35 71  1  0  0  0  0
 36 37  1  0  0  0  0
 36 72  1  0  0  0  0
 36 73  1  0  0  0  0
 37 38  2  0  0  0  0
 38 39  1  0  0  0  0
 38 74  1  0  0  0  0
 39 40  2  0  0  0  0
 39 75  1  0  0  0  0
 40 41  1  0  0  0  0
 40 42  1  0  0  0  0
 41 76  1  0  0  0  0
 42 43  1  0  0  0  0
 42 44  2  0  0  0  0
 43 77  1  0  0  0  0
 44 37  1  0  0  0  0
 44 78  1  0  0  0  0
 45 46  1  0  0  0  0
 45 79  1  0  0  0  0
 45 80  1  0  0  0  0
 46 47  2  0  0  0  0
 46 17  1  0  0  0  0
 47 48  1  0  0  0  0
 47 13  1  0  0  0  0
 48  2  1  0  0  0  0
M  END
>  <IDENTIFIER>
CNP0417372.1

>  <Energy>
525.308

$$$$
