
 OpenBabel09052504532D

187201  0  0  0  0  0  0  0  0999 V2000
   -6.0085   12.0380    0.0000 C   0  0  0  0  0  0  0  0  0  0  0  0
   -4.9089   11.0177    0.0000 C   0  0  0  0  0  0  0  0  0  0  0  0
   -3.5315   10.6192    0.5693 C   0  0  0  0  0  0  0  0  0  0  0  0
   -3.2652    9.0378    0.3265 C   0  0  2  0  0  0  0  0  0  0  0  0
   -4.4638    8.0536    0.6995 C   0  0  0  0  0  0  0  0  0  0  0  0
   -4.5400    6.6737   -0.0197 C   0  0  0  0  0  0  0  0  0  0  0  0
   -3.2048    6.0285   -0.3675 C   0  0  1  0  0  0  0  0  0  0  0  0
   -3.1640    4.5864   -1.0048 C   0  0  1  0  0  0  0  0  0  0  0  0
   -2.3156    3.7245    0.1160 C   0  0  1  0  0  0  0  0  0  0  0  0
   -1.4397    4.7670    0.5930 O   0  0  0  0  0  0  0  0  0  0  0  0
   -2.2444    5.9398    0.8225 C   0  0  2  0  0  0  0  0  0  0  0  0
   -1.3684    7.2092    0.9466 C   0  0  0  0  0  0  0  0  0  0  0  0
   -2.0353    8.5997    1.1937 C   0  0  0  0  0  0  0  0  0  0  0  0
   -1.5861    1.9737    0.0000 C   0  0  1  0  0  0  0  0  0  0  0  0
   -1.8367    1.4101    1.3250 O   0  0  0  0  0  0  0  0  0  0  0  0
   -0.2158    2.5838    0.0000 C   0  0  2  0  0  0  0  0  0  0  0  0
    1.1545    3.1939    0.0000 C   0  0  0  0  0  0  0  0  0  0  0  0
    0.0006    2.5663    1.4421 O   0  0  0  0  0  0  0  0  0  0  0  0
    0.4545    1.4785   -0.7244 C   0  0  1  0  0  0  0  0  0  0  0  0
    1.0429    0.2992    0.1635 C   0  0  0  0  0  0  0  0  0  0  0  0
    0.9947   -0.8357   -0.7434 C   0  0  0  0  0  0  0  0  0  0  0  0
   -0.3935   -0.5851   -1.2277 C   0  0  1  0  0  0  0  0  0  0  0  0
   -0.5093   -1.4672   -2.3268 O   0  0  0  0  0  0  0  0  0  0  0  0
   -1.5792   -1.2121    0.2095 C   0  0  0  0  0  0  0  0  0  0  0  0
   -1.6494   -2.8621    0.5887 C   0  0  0  0  0  0  0  0  0  0  0  0
   -1.0323   -3.7500    0.0000 N   0  0  0  0  0  0  0  0  0  0  0  0
   -1.0323   -5.2500    0.0000 C   0  0  0  0  0  2  0  0  0  0  0  0
   -1.0323   -6.7500    0.0000 C   0  0  2  0  0  3  0  0  0  0  0  0
   -1.0323   -8.2500    0.0000 C   0  0  0  0  0  0  0  0  0  0  0  0
    0.1558   -6.7359    0.7602 O   0  0  0  0  0  0  0  0  0  0  0  0
   -3.6304   -3.7500    0.0000 C   0  0  0  0  0  0  0  0  0  0  0  0
   -3.0311   -3.9562   -1.9098 O   0  0  0  0  0  0  0  0  0  0  0  0
   -4.9294   -3.0000    0.0000 C   0  0  2  0  0  0  0  0  0  0  0  0
   -5.9692   -3.9539    1.9280 C   0  0  1  0  0  0  0  0  0  0  0  0
   -7.1248   -2.7671    2.1245 C   0  0  0  0  0  0  0  0  0  0  0  0
   -6.8981   -1.2423    1.5316 C   0  0  0  0  0  0  0  0  0  0  0  0
   -6.2284   -0.7500    0.0000 C   0  0  2  0  0  0  0  0  0  0  0  0
   -7.2200    0.0710   -0.5854 C   0  0  1  0  0  0  0  0  0  0  0  0
   -8.4404   -0.8721   -0.8216 C   0  0  0  0  0  0  0  0  0  0  0  0
   -9.6628   -0.1962   -0.9658 C   0  0  0  0  0  0  0  0  0  0  0  0
  -10.8534   -0.8804   -0.9519 C   0  0  0  0  0  0  0  0  0  0  0  0
  -10.8493   -2.2633   -0.8217 C   0  0  0  0  0  0  0  0  0  0  0  0
  -12.0829   -2.9435   -0.7109 N   0  0  0  0  0  0  0  0  0  0  0  0
   -9.6716   -2.9539   -0.7442 N   0  0  0  0  0  0  0  0  0  0  0  0
   -8.4300   -2.3775   -0.7268 C   0  0  0  0  0  0  0  0  0  0  0  0
   -7.2121   -3.4995   -0.5178 C   0  0  0  0  0  0  0  0  0  0  0  0
   -5.3715   -3.0666   -0.0000 C   0  0  0  0  0  0  0  0  0  0  0  0
   -4.0725   -3.8166    0.0000 C   0  0  0  0  0  0  0  0  0  0  0  0
   -2.7735   -4.5666   -0.0000 O   0  0  0  0  0  0  0  0  0  0  0  0
   -6.7664    1.5120   -0.5200 C   0  0  0  0  0  0  0  0  0  0  0  0
   -5.4926    1.9825   -0.3099 C   0  0  0  0  0  0  0  0  0  0  0  0
   -3.9228    1.5702   -0.1969 C   0  0  1  0  0  0  0  0  0  0  0  0
   -3.9589    2.0702    1.1376 O   0  0  0  0  0  0  0  0  0  0  0  0
   -2.1894    2.4219   -2.0885 C   0  0  0  0  0  0  0  0  0  0  0  0
   -0.3852    1.3158   -1.9816 C   0  0  2  0  0  0  0  0  0  0  0  0
    0.5219    2.2802   -3.1157 C   0  0  1  0  0  0  0  0  0  0  0  0
    2.0962    2.2714   -3.3670 C   0  0  0  0  0  0  0  0  0  0  0  0
    3.0210    3.2106   -2.4877 C   0  0  0  0  0  0  0  0  0  0  0  0
    2.7045    4.7735   -2.4976 C   0  0  1  0  0  0  0  0  0  0  0  0
    3.3397    5.6124   -1.2821 C   0  0  0  0  0  0  0  0  0  0  0  0
    3.5692    7.1493   -1.4719 C   0  0  2  0  0  0  0  0  0  0  0  0
    4.3103    7.7231   -0.3831 O   0  0  0  0  0  0  0  0  0  0  0  0
    4.7954    9.0381   -0.7365 C   0  0  2  0  0  0  0  0  0  0  0  0
    5.5667    9.6812    0.4422 C   0  0  0  0  0  0  0  0  0  0  0  0
    5.1501   11.1501    0.4245 C   0  0  0  0  0  0  0  0  0  0  0  0
    3.6507   11.0106    0.1687 C   0  0  0  0  0  0  0  0  0  0  0  0
    3.6741   10.0777   -1.0485 C   0  0  2  0  0  0  0  0  0  0  0  0
    2.3991    9.4079   -1.4649 C   0  0  0  0  0  0  0  0  0  0  0  0
    1.2218    9.9607   -1.6992 C   0  0  0  0  0  0  0  0  0  0  0  0
    0.2372    8.8882   -2.0458 C   0  0  0  0  0  0  0  0  0  0  0  0
    1.0814    7.6258   -1.9478 C   0  0  0  0  0  0  0  0  0  0  0  0
    2.3261    7.9702   -1.6456 C   0  0  0  0  0  0  0  0  0  0  0  0
    0.5323    6.2240   -2.0882 C   0  0  0  0  0  0  0  0  0  0  0  0
    1.2271    5.0920   -2.9409 C   0  0  2  0  0  0  0  0  0  0  0  0
    0.2215    3.8553   -2.9331 C   0  0  0  0  0  0  0  0  0  0  0  0
   -3.5321   -0.3546    0.4616 C   0  0  2  0  0  0  0  0  0  0  0  0
   -4.9294   -1.5000    0.0000 C   0  0  1  0  0  0  0  0  0  0  0  0
   -3.6304   -2.2500    0.0000 C   0  0  0  0  0  0  0  0  0  0  0  0
   -3.6304   -3.7500    0.0000 C   0  0  2  0  0  0  0  0  0  0  0  0
   -4.0637   -5.7474   -0.9229 O   0  0  0  0  0  0  0  0  0  0  0  0
   -4.5264   -4.6058    2.0719 C   0  0  2  0  0  0  0  0  0  0  0  0
   -4.6977   -6.0113    1.9313 O   0  0  0  0  0  0  0  0  0  0  0  0
   -2.6188    0.3350   -1.6123 C   0  0  0  0  0  0  0  0  0  0  0  0
   -4.1104    0.8656   -2.5219 C   0  0  0  0  0  0  0  0  0  0  0  0
   -4.5959    2.5348   -2.8280 C   0  0  0  0  0  0  0  0  0  0  0  0
   -4.4521    4.0278   -1.9415 C   0  0  2  0  0  0  0  0  0  0  0  0
   -4.7417    5.0439   -2.8745 O   0  0  0  0  0  0  0  0  0  0  0  0
   -5.9631   12.3096    1.0830 H   0  0  0  0  0  0  0  0  0  0  0  0
   -6.8723   11.3873   -0.2968 H   0  0  0  0  0  0  0  0  0  0  0  0
   -6.7929   12.7658    0.0000 H   0  0  0  0  0  0  0  0  0  0  0  0
   -5.4494   10.3565    0.6954 H   0  0  0  0  0  0  0  0  0  0  0  0
   -4.9273   10.5995   -1.0322 H   0  0  0  0  0  0  0  0  0  0  0  0
   -2.7261   11.2130    0.0807 H   0  0  0  0  0  0  0  0  0  0  0  0
   -3.5196   10.8524    1.6563 H   0  0  0  0  0  0  0  0  0  0  0  0
   -3.0705    8.9568   -0.7639 H   0  0  0  0  0  0  0  0  0  0  0  0
   -5.4696    8.4203    0.4438 H   0  0  0  0  0  0  0  0  0  0  0  0
   -4.4717    7.9263    1.8040 H   0  0  0  0  0  0  0  0  0  0  0  0
   -5.1885    6.0014    0.5828 H   0  0  0  0  0  0  0  0  0  0  0  0
   -5.0437    6.8308   -0.9994 H   0  0  0  0  0  0  0  0  0  0  0  0
   -2.7711    6.7434   -1.1135 H   0  0  0  0  0  0  0  0  0  0  0  0
   -2.3952    4.9009   -1.7216 H   0  0  0  0  0  0  0  0  0  0  0  0
   -2.9702    3.7703    0.9654 H   0  0  0  0  0  0  0  0  0  0  0  0
   -2.8024    5.7910    1.7792 H   0  0  0  0  0  0  0  0  0  0  0  0
   -0.7973    7.2730    0.0222 H   0  0  0  0  0  0  0  0  0  0  0  0
   -0.6314    7.0489    1.7650 H   0  0  0  0  0  0  0  0  0  0  0  0
   -1.2240    9.3521    1.0803 H   0  0  0  0  0  0  0  0  0  0  0  0
   -2.3518    8.6507    2.2598 H   0  0  0  0  0  0  0  0  0  0  0  0
   -1.2626    0.6717    1.5929 H   0  0  0  0  0  0  0  0  0  0  0  0
    1.9210    2.6556    0.6671 H   0  0  0  0  0  0  0  0  0  0  0  0
    0.9121    4.2324    0.3254 H   0  0  0  0  0  0  0  0  0  0  0  0
    2.1320    3.6291    0.0000 H   0  0  0  0  0  0  0  0  0  0  0  0
   -0.4073    3.3299    1.9302 H   0  0  0  0  0  0  0  0  0  0  0  0
    1.4660    1.4509   -1.2239 H   0  0  0  0  0  0  0  0  0  0  0  0
    0.4983    0.0164    1.0641 H   0  0  0  0  0  0  0  0  0  0  0  0
    2.0769    0.4650    0.5506 H   0  0  0  0  0  0  0  0  0  0  0  0
    1.7194   -0.7091   -1.5819 H   0  0  0  0  0  0  0  0  0  0  0  0
    1.1941   -1.8042   -0.2451 H   0  0  0  0  0  0  0  0  0  0  0  0
   -1.2534   -2.0894   -2.1566 H   0  0  0  0  0  0  0  0  0  0  0  0
   -0.2167   -3.4093   -0.5167 H   0  0  0  0  0  0  0  0  0  0  0  0
   -2.0949   -8.3278   -0.3104 H   0  0  0  0  0  0  0  0  0  0  0  0
   -0.4039   -8.3587   -0.9138 H   0  0  0  0  0  0  0  0  0  0  0  0
   -1.0323   -9.3200    0.0000 H   0  0  0  0  0  0  0  0  0  0  0  0
    0.9322   -6.7206    0.1281 H   0  0  0  0  0  0  0  0  0  0  0  0
   -4.9294   -4.0700    0.0000 H   0  0  0  0  0  0  0  0  0  0  0  0
   -5.7781   -3.6968    2.9907 H   0  0  0  0  0  0  0  0  0  0  0  0
   -7.4758   -2.6672    3.1850 H   0  0  0  0  0  0  0  0  0  0  0  0
   -8.0840   -3.1407    1.7309 H   0  0  0  0  0  0  0  0  0  0  0  0
   -6.2763   -0.7064    2.2806 H   0  0  0  0  0  0  0  0  0  0  0  0
   -7.9063   -0.8298    1.7582 H   0  0  0  0  0  0  0  0  0  0  0  0
   -6.1662   -0.8604   -1.0842 H   0  0  0  0  0  0  0  0  0  0  0  0
   -7.7567    0.4686    0.2916 H   0  0  0  0  0  0  0  0  0  0  0  0
   -9.6917    0.8891   -1.0074 H   0  0  0  0  0  0  0  0  0  0  0  0
  -11.7818   -0.3216   -0.9969 H   0  0  0  0  0  0  0  0  0  0  0  0
  -12.9696   -2.4150   -0.6897 H   0  0  0  0  0  0  0  0  0  0  0  0
  -12.1059   -3.9601   -0.5601 H   0  0  0  0  0  0  0  0  0  0  0  0
   -7.3064   -4.2066   -1.4138 H   0  0  0  0  0  0  0  0  0  0  0  0
   -7.5972   -4.2999    0.1389 H   0  0  0  0  0  0  0  0  0  0  0  0
   -6.1782   -2.6937   -1.4095 H   0  0  0  0  0  0  0  0  0  0  0  0
   -4.9502   -2.2795    1.7838 H   0  0  0  0  0  0  0  0  0  0  0  0
   -4.9076   -4.1569   -1.6765 H   0  0  0  0  0  0  0  0  0  0  0  0
   -4.9076   -4.1569   -1.6765 H   0  0  0  0  0  0  0  0  0  0  0  0
   -2.8856   -5.5307    0.7516 H   0  0  0  0  0  0  0  0  0  0  0  0
   -7.5552    2.2875   -0.4634 H   0  0  0  0  0  0  0  0  0  0  0  0
   -5.6519    2.9692    0.0914 H   0  0  0  0  0  0  0  0  0  0  0  0
   -4.4973    1.5177    1.7717 H   0  0  0  0  0  0  0  0  0  0  0  0
   -2.1313    3.3144   -2.6267 H   0  0  0  0  0  0  0  0  0  0  0  0
   -2.2943    2.0890   -3.1506 H   0  0  0  0  0  0  0  0  0  0  0  0
    0.1123    1.9610   -4.0968 H   0  0  0  0  0  0  0  0  0  0  0  0
    2.2539    2.6575   -4.3965 H   0  0  0  0  0  0  0  0  0  0  0  0
    2.4731    1.2269   -3.3530 H   0  0  0  0  0  0  0  0  0  0  0  0
    4.0742    3.1021   -2.8284 H   0  0  0  0  0  0  0  0  0  0  0  0
    3.1201    2.7809   -1.4939 H   0  0  0  0  0  0  0  0  0  0  0  0
    3.3037    5.1328   -3.3637 H   0  0  0  0  0  0  0  0  0  0  0  0
    2.7736    5.5206   -0.3406 H   0  0  0  0  0  0  0  0  0  0  0  0
    4.3510    5.1921   -1.0946 H   0  0  0  0  0  0  0  0  0  0  0  0
    4.1770    7.2575   -2.3957 H   0  0  0  0  0  0  0  0  0  0  0  0
    5.4601    8.9875   -1.6267 H   0  0  0  0  0  0  0  0  0  0  0  0
    5.1630    9.2773    1.3989 H   0  0  0  0  0  0  0  0  0  0  0  0
    6.6625    9.4990    0.4342 H   0  0  0  0  0  0  0  0  0  0  0  0
    5.6331   11.6747   -0.4345 H   0  0  0  0  0  0  0  0  0  0  0  0
    5.4101   11.7022    1.3549 H   0  0  0  0  0  0  0  0  0  0  0  0
    3.1424   11.9829   -0.0188 H   0  0  0  0  0  0  0  0  0  0  0  0
    3.1766   10.5238    1.0519 H   0  0  0  0  0  0  0  0  0  0  0  0
    4.0155   10.7274   -1.8866 H   0  0  0  0  0  0  0  0  0  0  0  0
    1.0047   11.0200   -1.6218 H   0  0  0  0  0  0  0  0  0  0  0  0
   -0.1799    9.0296   -3.0610 H   0  0  0  0  0  0  0  0  0  0  0  0
   -0.5852    8.9143   -1.3079 H   0  0  0  0  0  0  0  0  0  0  0  0
   -0.5243    6.3364   -2.4120 H   0  0  0  0  0  0  0  0  0  0  0  0
    0.5019    5.8465   -1.0524 H   0  0  0  0  0  0  0  0  0  0  0  0
    1.2857    5.4193   -4.0023 H   0  0  0  0  0  0  0  0  0  0  0  0
   -0.5892    4.1555   -3.6263 H   0  0  0  0  0  0  0  0  0  0  0  0
   -0.1960    3.9322   -1.9421 H   0  0  0  0  0  0  0  0  0  0  0  0
   -3.6268   -0.3476    1.5753 H   0  0  0  0  0  0  0  0  0  0  0  0
   -3.2825   -1.8850   -1.1403 H   0  0  0  0  0  0  0  0  0  0  0  0
   -3.2825   -1.8850   -1.1403 H   0  0  0  0  0  0  0  0  0  0  0  0
   -3.1586   -3.6448    1.8362 H   0  0  0  0  0  0  0  0  0  0  0  0
   -4.7857   -6.2276   -0.4371 H   0  0  0  0  0  0  0  0  0  0  0  0
   -4.0769   -4.5961    3.1431 H   0  0  0  0  0  0  0  0  0  0  0  0
   -5.6586   -6.2707    1.9379 H   0  0  0  0  0  0  0  0  0  0  0  0
   -2.0522    0.6659   -0.7473 H   0  0  0  0  0  0  0  0  0  0  0  0
   -2.1430    0.0210   -2.5681 H   0  0  0  0  0  0  0  0  0  0  0  0
   -4.9453    0.3966   -2.0449 H   0  0  0  0  0  0  0  0  0  0  0  0
   -4.1803    0.3042   -3.4757 H   0  0  0  0  0  0  0  0  0  0  0  0
   -4.1157    2.7912   -3.7920 H   0  0  0  0  0  0  0  0  0  0  0  0
   -5.6622    2.4798   -3.1386 H   0  0  0  0  0  0  0  0  0  0  0  0
   -5.2600    4.1745   -1.2518 H   0  0  0  0  0  0  0  0  0  0  0  0
   -5.7340    5.1743   -2.9098 H   0  0  0  0  0  0  0  0  0  0  0  0
  1  2  1  0  0  0  0
  1 88  1  0  0  0  0
  1 89  1  0  0  0  0
  1 90  1  0  0  0  0
  2  3  1  0  0  0  0
  2 91  1  0  0  0  0
  2 92  1  0  0  0  0
  3 93  1  0  0  0  0
  3 94  1  0  0  0  0
  4  3  1  0  0  0  0
  4  5  1  0  0  0  0
  4 95  1  6  0  0  0
  5  6  1  0  0  0  0
  5 96  1  0  0  0  0
  5 97  1  0  0  0  0
  6 98  1  0  0  0  0
  6 99  1  0  0  0  0
  7  6  1  0  0  0  0
  7  8  1  0  0  0  0
  7100  1  1  0  0  0
  8  9  1  0  0  0  0
  8 86  1  0  0  0  0
  8101  1  6  0  0  0
  9 10  1  0  0  0  0
  9 14  1  0  0  0  0
  9102  1  6  0  0  0
 10 11  1  0  0  0  0
 11 12  1  0  0  0  0
 11  7  1  0  0  0  0
 11103  1  6  0  0  0
 12 13  1  0  0  0  0
 12104  1  0  0  0  0
 12105  1  0  0  0  0
 13  4  1  0  0  0  0
 13106  1  0  0  0  0
 13107  1  0  0  0  0
 14 15  1  6  0  0  0
 14 16  1  0  0  0  0
 14 83  1  0  0  0  0
 15108  1  0  0  0  0
 16 17  1  0  0  0  0
 16 18  1  6  0  0  0
 16 19  1  0  0  0  0
 17109  1  0  0  0  0
 17110  1  0  0  0  0
 17111  1  0  0  0  0
 18112  1  0  0  0  0
 19 20  1  0  0  0  0
 19113  1  6  0  0  0
 20 21  1  0  0  0  0
 20114  1  0  0  0  0
 20115  1  0  0  0  0
 21 22  1  0  0  0  0
 21116  1  0  0  0  0
 21117  1  0  0  0  0
 22 23  1  6  0  0  0
 22 24  1  0  0  0  0
 23118  1  0  0  0  0
 24 25  2  0  0  0  0
 25 26  1  0  0  0  0
 25 31  1  0  0  0  0
 26 27  1  0  0  0  0
 26119  1  0  0  0  0
 28 27  1  1  0  0  0
 28 29  1  0  0  0  0
 28 30  1  0  0  0  0
 29120  1  0  0  0  0
 29121  1  0  0  0  0
 29122  1  0  0  0  0
 30123  1  0  0  0  0
 31 32  2  0  0  0  0
 33 31  1  0  0  0  0
 33 34  1  0  0  0  0
 33124  1  1  0  0  0
 34 35  1  0  0  0  0
 34125  1  1  0  0  0
 35 36  1  0  0  0  0
 35126  1  0  0  0  0
 35127  1  0  0  0  0
 36128  1  0  0  0  0
 36129  1  0  0  0  0
 37 36  1  0  0  0  0
 37 38  1  0  0  0  0
 37130  1  1  0  0  0
 38 39  1  0  0  0  0
 38 50  1  0  0  0  0
 38131  1  6  0  0  0
 39 40  2  0  0  0  0
 40 41  1  0  0  0  0
 40132  1  0  0  0  0
 41 42  2  0  0  0  0
 41133  1  0  0  0  0
 42 43  1  0  0  0  0
 42 44  1  0  0  0  0
 43134  1  0  0  0  0
 43135  1  0  0  0  0
 44 45  2  0  0  0  0
 45 46  1  0  0  0  0
 45 39  1  0  0  0  0
 46 47  1  0  0  0  0
 46136  1  0  0  0  0
 46137  1  0  0  0  0
 47 48  1  0  0  0  0
 47138  1  0  0  0  0
 47139  1  0  0  0  0
 48 49  1  0  0  0  0
 48140  1  0  0  0  0
 48141  1  0  0  0  0
 49142  1  0  0  0  0
 50 51  2  0  0  0  0
 50143  1  0  0  0  0
 51 52  1  0  0  0  0
 51144  1  0  0  0  0
 52 53  1  6  0  0  0
 52 54  1  0  0  0  0
 52 76  1  0  0  0  0
 53145  1  0  0  0  0
 54146  1  0  0  0  0
 54147  1  0  0  0  0
 55 54  1  6  0  0  0
 55 56  1  0  0  0  0
 55 19  1  0  0  0  0
 55 22  1  0  0  0  0
 56 57  1  0  0  0  0
 56148  1  1  0  0  0
 57 58  1  0  0  0  0
 57149  1  0  0  0  0
 57150  1  0  0  0  0
 58151  1  0  0  0  0
 58152  1  0  0  0  0
 59 58  1  0  0  0  0
 59 60  1  0  0  0  0
 59153  1  1  0  0  0
 60154  1  0  0  0  0
 60155  1  0  0  0  0
 61 60  1  0  0  0  0
 61 62  1  0  0  0  0
 61156  1  6  0  0  0
 62 63  1  0  0  0  0
 63 64  1  0  0  0  0
 63157  1  6  0  0  0
 64 65  1  0  0  0  0
 64158  1  0  0  0  0
 64159  1  0  0  0  0
 65 66  1  0  0  0  0
 65160  1  0  0  0  0
 65161  1  0  0  0  0
 66162  1  0  0  0  0
 66163  1  0  0  0  0
 67 66  1  0  0  0  0
 67 68  1  0  0  0  0
 67 63  1  0  0  0  0
 67164  1  6  0  0  0
 68 69  2  0  0  0  0
 69 70  1  0  0  0  0
 69165  1  0  0  0  0
 70 71  1  0  0  0  0
 70166  1  0  0  0  0
 70167  1  0  0  0  0
 71 72  2  0  0  0  0
 71 73  1  0  0  0  0
 72 61  1  0  0  0  0
 72 68  1  0  0  0  0
 73168  1  0  0  0  0
 73169  1  0  0  0  0
 74 73  1  0  0  0  0
 74 75  1  0  0  0  0
 74 59  1  0  0  0  0
 74170  1  6  0  0  0
 75 56  1  0  0  0  0
 75171  1  0  0  0  0
 75172  1  0  0  0  0
 76 77  1  0  0  0  0
 76 24  1  0  0  0  0
 76173  1  6  0  0  0
 77 78  1  6  0  0  0
 77 33  1  0  0  0  0
 77 37  1  0  0  0  0
 78 79  1  0  0  0  0
 78174  1  0  0  0  0
 78175  1  0  0  0  0
 79 80  1  0  0  0  0
 79 81  1  0  0  0  0
 79176  1  1  0  0  0
 80177  1  0  0  0  0
 81 82  1  0  0  0  0
 81 34  1  0  0  0  0
 81178  1  1  0  0  0
 82179  1  0  0  0  0
 83 84  1  0  0  0  0
 83180  1  0  0  0  0
 83181  1  0  0  0  0
 84 85  1  0  0  0  0
 84182  1  0  0  0  0
 84183  1  0  0  0  0
 85 86  1  0  0  0  0
 85184  1  0  0  0  0
 85185  1  0  0  0  0
 86 87  1  0  0  0  0
 86186  1  1  0  0  0
 87187  1  0  0  0  0
M  END
>  <IDENTIFIER>
CNP0595406.1

>  <Energy>
4.67685e+36

$$$$
