
 OpenBabel09042519213D

 55 58  0  0  0  0  0  0  0  0999 V2000
   -2.9946    0.8850    1.6192 C   0  0  0  0  0  0  0  0  0  0  0  0
   -2.8160    0.7824    0.0640 C   0  0  2  0  0  0  0  0  0  0  0  0
   -4.2360    0.8029   -0.5293 C   0  0  0  0  0  0  0  0  0  0  0  0
   -4.7243   -0.6580   -0.3366 C   0  0  0  0  0  0  0  0  0  0  0  0
   -3.4395   -1.5227   -0.2487 C   0  0  0  0  0  0  0  0  0  0  0  0
   -2.3340   -0.5384   -0.5950 C   0  0  2  0  0  0  0  0  0  0  0  0
   -0.8430   -0.9581   -0.3972 C   0  0  1  0  0  0  0  0  0  0  0  0
   -0.1064   -1.1298   -1.7458 C   0  0  0  0  0  0  0  0  0  0  0  0
    1.2929   -1.7135   -1.5160 C   0  0  0  0  0  0  0  0  0  0  0  0
    2.2170   -0.8408   -0.6090 C   0  0  1  0  0  0  0  0  0  0  0  0
    3.4723   -1.7270   -0.3218 C   0  0  0  0  0  0  0  0  0  0  0  0
    2.7110    0.4139   -1.4025 C   0  0  0  0  0  0  0  0  0  0  0  0
    3.5936    1.3434   -0.5372 C   0  0  1  0  0  0  0  0  0  0  0  0
    4.0805    2.4236   -1.2918 O   0  0  0  0  0  0  0  0  0  0  0  0
    2.8128    1.8392    0.6875 C   0  0  0  0  0  0  0  0  0  0  0  0
    2.2944    0.6506    1.5215 C   0  0  0  0  0  0  0  0  0  0  0  0
    1.4501   -0.4147    0.7311 C   0  0  2  0  0  0  0  0  0  0  0  0
    1.3415   -1.6403    1.7053 C   0  0  0  0  0  0  0  0  0  0  0  0
   -0.0557    0.0675    0.4572 C   0  0  1  0  0  0  0  0  0  0  0  0
   -0.3584    1.5568    0.0151 C   0  0  0  0  0  0  0  0  0  0  0  0
   -1.8327    1.8563   -0.4322 C   0  0  0  0  0  0  0  0  0  0  0  0
   -3.6263    0.0766    2.0357 H   0  0  0  0  0  0  0  0  0  0  0  0
   -3.5095    1.8432    1.8467 H   0  0  0  0  0  0  0  0  0  0  0  0
   -2.0874    0.9342    2.2333 H   0  0  0  0  0  0  0  0  0  0  0  0
   -4.1476    0.9710   -1.6278 H   0  0  0  0  0  0  0  0  0  0  0  0
   -4.9341    1.5829   -0.1558 H   0  0  0  0  0  0  0  0  0  0  0  0
   -5.3998   -0.9426   -1.1713 H   0  0  0  0  0  0  0  0  0  0  0  0
   -5.2773   -0.7803    0.6205 H   0  0  0  0  0  0  0  0  0  0  0  0
   -3.4599   -2.4415   -0.8708 H   0  0  0  0  0  0  0  0  0  0  0  0
   -3.2853   -1.8261    0.8109 H   0  0  0  0  0  0  0  0  0  0  0  0
   -2.4339   -0.3976   -1.7016 H   0  0  0  0  0  0  0  0  0  0  0  0
   -0.8627   -1.9452    0.1025 H   0  0  0  0  0  0  0  0  0  0  0  0
   -0.0486   -0.1625   -2.2896 H   0  0  0  0  0  0  0  0  0  0  0  0
   -0.6708   -1.8416   -2.3871 H   0  0  0  0  0  0  0  0  0  0  0  0
    1.7858   -1.8961   -2.4967 H   0  0  0  0  0  0  0  0  0  0  0  0
    1.1385   -2.7092   -1.0458 H   0  0  0  0  0  0  0  0  0  0  0  0
    4.0127   -1.9585   -1.2645 H   0  0  0  0  0  0  0  0  0  0  0  0
    3.1864   -2.7086    0.1119 H   0  0  0  0  0  0  0  0  0  0  0  0
    4.1872   -1.2651    0.3828 H   0  0  0  0  0  0  0  0  0  0  0  0
    1.8675    0.9941   -1.8037 H   0  0  0  0  0  0  0  0  0  0  0  0
    3.2987    0.0868   -2.2887 H   0  0  0  0  0  0  0  0  0  0  0  0
    4.4841    0.7889   -0.1814 H   0  0  0  0  0  0  0  0  0  0  0  0
    3.2997    2.9376   -1.6270 H   0  0  0  0  0  0  0  0  0  0  0  0
    2.0002    2.5017    0.3587 H   0  0  0  0  0  0  0  0  0  0  0  0
    3.4777    2.4637    1.3228 H   0  0  0  0  0  0  0  0  0  0  0  0
    1.7257    1.0219    2.4022 H   0  0  0  0  0  0  0  0  0  0  0  0
    3.2090    0.1584    1.9160 H   0  0  0  0  0  0  0  0  0  0  0  0
    0.7900   -1.3647    2.6308 H   0  0  0  0  0  0  0  0  0  0  0  0
    2.3363   -1.9869    2.0504 H   0  0  0  0  0  0  0  0  0  0  0  0
    0.8400   -2.5169    1.2572 H   0  0  0  0  0  0  0  0  0  0  0  0
   -0.5166    0.0047    1.4440 H   0  0  0  0  0  0  0  0  0  0  0  0
    0.2654    1.9178   -0.8163 H   0  0  0  0  0  0  0  0  0  0  0  0
   -0.1407    2.1861    0.9047 H   0  0  0  0  0  0  0  0  0  0  0  0
   -1.8492    1.8061   -1.5455 H   0  0  0  0  0  0  0  0  0  0  0  0
   -2.1333    2.8953   -0.1773 H   0  0  0  0  0  0  0  0  0  0  0  0
  1 22  1  0  0  0  0
  1 23  1  0  0  0  0
  1 24  1  0  0  0  0
  2  1  1  1  0  0  0
  2  3  1  0  0  0  0
  3  4  1  0  0  0  0
  3 25  1  0  0  0  0
  3 26  1  0  0  0  0
  4  5  1  0  0  0  0
  4 27  1  0  0  0  0
  4 28  1  0  0  0  0
  5 29  1  0  0  0  0
  5 30  1  0  0  0  0
  6  5  1  0  0  0  0
  6  7  1  0  0  0  0
  6  2  1  0  0  0  0
  6 31  1  6  0  0  0
  7  8  1  0  0  0  0
  7 32  1  1  0  0  0
  8  9  1  0  0  0  0
  8 33  1  0  0  0  0
  8 34  1  0  0  0  0
  9 10  1  0  0  0  0
  9 35  1  0  0  0  0
  9 36  1  0  0  0  0
 10 11  1  1  0  0  0
 10 12  1  0  0  0  0
 11 37  1  0  0  0  0
 11 38  1  0  0  0  0
 11 39  1  0  0  0  0
 12 13  1  0  0  0  0
 12 40  1  0  0  0  0
 12 41  1  0  0  0  0
 13 14  1  0  0  0  0
 13 15  1  0  0  0  0
 13 42  1  1  0  0  0
 14 43  1  0  0  0  0
 15 16  1  0  0  0  0
 15 44  1  0  0  0  0
 15 45  1  0  0  0  0
 16 17  1  0  0  0  0
 16 46  1  0  0  0  0
 16 47  1  0  0  0  0
 17 18  1  1  0  0  0
 17 19  1  0  0  0  0
 17 10  1  0  0  0  0
 18 48  1  0  0  0  0
 18 49  1  0  0  0  0
 18 50  1  0  0  0  0
 19 20  1  0  0  0  0
 19  7  1  0  0  0  0
 19 51  1  1  0  0  0
 20 21  1  0  0  0  0
 20 52  1  0  0  0  0
 20 53  1  0  0  0  0
 21  2  1  0  0  0  0
 21 54  1  0  0  0  0
 21 55  1  0  0  0  0
M  END
>  <IDENTIFIER>
CNP0290834.2

>  <Energy>
792.579

$$$$
