
 OpenBabel09112502243D

116118  0  0  0  0  0  0  0  0999 V2000
   12.3123    0.9876   -0.6678 C   0  0  0  0  0  0  0  0  0  0  0  0
   11.4319    1.2097    0.5605 C   0  0  0  0  0  0  0  0  0  0  0  0
   10.4478    0.0878    0.7116 C   0  0  0  0  0  0  0  0  0  0  0  0
   10.8515   -1.0512    0.8930 O   0  0  0  0  0  0  0  0  0  0  0  0
    9.1176    0.3544    0.5989 O   0  0  0  0  0  0  0  0  0  0  0  0
    8.1076   -0.5958    0.5790 C   0  0  1  0  0  0  0  0  0  0  0  0
    7.0732   -0.2492    1.6924 C   0  0  2  0  0  0  0  0  0  0  0  0
    7.6514   -0.5129    3.0831 C   0  0  0  0  0  0  0  0  0  0  0  0
    5.8841   -1.0010    1.5229 O   0  0  0  0  0  0  0  0  0  0  0  0
    5.1820   -0.6789    0.3152 C   0  0  1  0  0  0  0  0  0  0  0  0
    4.0092    0.0485    0.6503 O   0  0  0  0  0  0  0  0  0  0  0  0
    3.0156    0.0511   -0.3742 C   0  0  1  0  0  0  0  0  0  0  0  0
    2.1391   -1.2429   -0.2872 C   0  0  2  0  0  0  0  0  0  0  0  0
    2.8227   -2.3752   -0.9706 N   0  0  0  0  0  0  0  0  0  0  0  0
    2.6969   -2.3985   -2.4372 C   0  0  0  0  0  0  0  0  0  0  0  0
    2.5275   -3.6910   -0.3840 C   0  0  0  0  0  0  0  0  0  0  0  0
    0.7070   -0.9279   -0.7838 C   0  0  1  0  0  0  0  0  0  0  0  0
   -0.1279   -2.0584   -0.8113 O   0  0  0  0  0  0  0  0  0  0  0  0
    0.1176    0.1616    0.1729 C   0  0  2  0  0  0  0  0  0  0  0  0
   -0.9618    0.8812   -0.4120 O   0  0  0  0  0  0  0  0  0  0  0  0
   -2.2992    0.3716   -0.3308 C   0  0  1  0  0  0  0  0  0  0  0  0
   -2.6787   -0.1400    1.1355 C   0  0  1  0  0  0  0  0  0  0  0  0
   -2.3592    0.9536    2.1999 C   0  0  0  0  0  0  0  0  0  0  0  0
   -2.4431    0.4335    3.6067 C   0  0  0  0  0  0  0  0  0  0  0  0
   -1.7141   -0.4738    3.9752 O   0  0  0  0  0  0  0  0  0  0  0  0
   -4.1247   -0.6562    1.3776 C   0  0  0  0  0  0  0  0  0  0  0  0
   -4.6548   -1.7736    0.4256 C   0  0  1  0  0  0  0  0  0  0  0  0
   -3.9000   -3.0962    0.6461 C   0  0  0  0  0  0  0  0  0  0  0  0
   -6.2002   -1.9130    0.6013 C   0  0  1  0  0  0  0  0  0  0  0  0
   -6.7289   -2.9293   -0.2143 O   0  0  0  0  0  0  0  0  0  0  0  0
   -6.5967   -2.0987    2.0570 C   0  0  0  0  0  0  0  0  0  0  0  0
   -7.3331   -1.2447    2.8028 C   0  0  0  0  0  0  0  0  0  0  0  0
   -8.0527   -0.0045    2.3876 C   0  0  0  0  0  0  0  0  0  0  0  0
   -8.6538    0.1977    1.1965 C   0  0  0  0  0  0  0  0  0  0  0  0
   -9.4475    1.4530    0.9225 C   0  0  0  0  0  0  0  0  0  0  0  0
   -9.1476    2.0809   -0.4548 C   0  0  1  0  0  0  0  0  0  0  0  0
  -10.0273    3.3137   -0.6646 C   0  0  0  0  0  0  0  0  0  0  0  0
   -7.8180    2.4633   -0.5542 O   0  0  0  0  0  0  0  0  0  0  0  0
   -6.9672    2.0879   -1.5528 C   0  0  0  0  0  0  0  0  0  0  0  0
   -7.3598    1.4213   -2.4989 O   0  0  0  0  0  0  0  0  0  0  0  0
   -5.5164    2.4786   -1.4647 C   0  0  0  0  0  0  0  0  0  0  0  0
   -4.6392    1.2205   -1.2912 C   0  0  1  0  0  0  0  0  0  0  0  0
   -4.6795    0.3839   -2.4214 O   0  0  0  0  0  0  0  0  0  0  0  0
   -3.1774    1.5583   -0.8893 C   0  0  2  0  0  0  0  0  0  0  0  0
   -2.5446    2.0856   -2.0523 O   0  0  0  0  0  0  0  0  0  0  0  0
   -2.1043    3.4101   -1.8481 C   0  0  0  0  0  0  0  0  0  0  0  0
    1.0592    1.1192    0.6616 O   0  0  0  0  0  0  0  0  0  0  0  0
    2.1603    1.3421   -0.1943 C   0  0  2  0  0  0  0  0  0  0  0  0
    1.7370    2.0656   -1.4935 C   0  0  0  0  0  0  0  0  0  0  0  0
    6.0565    0.0524   -0.7556 C   0  0  0  0  0  0  0  0  0  0  0  0
    7.4387   -0.6311   -0.8417 C   0  0  2  0  0  0  0  0  0  0  0  0
    7.3068   -2.0980   -1.3269 C   0  0  0  0  0  0  0  0  0  0  0  0
    8.2545    0.0576   -1.7633 O   0  0  0  0  0  0  0  0  0  0  0  0
   13.0279    1.8296   -0.7723 H   0  0  0  0  0  0  0  0  0  0  0  0
   11.6840    0.9399   -1.5840 H   0  0  0  0  0  0  0  0  0  0  0  0
   12.8868    0.0415   -0.5730 H   0  0  0  0  0  0  0  0  0  0  0  0
   10.8861    2.1690    0.4338 H   0  0  0  0  0  0  0  0  0  0  0  0
   12.0618    1.2756    1.4727 H   0  0  0  0  0  0  0  0  0  0  0  0
    8.5238   -1.6082    0.7840 H   0  0  0  0  0  0  0  0  0  0  0  0
    6.8184    0.8356    1.6641 H   0  0  0  0  0  0  0  0  0  0  0  0
    7.9081   -1.5877    3.1986 H   0  0  0  0  0  0  0  0  0  0  0  0
    6.9053   -0.2401    3.8589 H   0  0  0  0  0  0  0  0  0  0  0  0
    8.5656    0.0969    3.2453 H   0  0  0  0  0  0  0  0  0  0  0  0
    4.9127   -1.6609   -0.1011 H   0  0  0  0  0  0  0  0  0  0  0  0
    3.4695    0.1735   -1.3744 H   0  0  0  0  0  0  0  0  0  0  0  0
    2.0348   -1.4797    0.7980 H   0  0  0  0  0  0  0  0  0  0  0  0
    2.9618   -1.4158   -2.8763 H   0  0  0  0  0  0  0  0  0  0  0  0
    1.6663   -2.6730   -2.7469 H   0  0  0  0  0  0  0  0  0  0  0  0
    3.4032   -3.1442   -2.8613 H   0  0  0  0  0  0  0  0  0  0  0  0
    2.7143   -3.6761    0.7115 H   0  0  0  0  0  0  0  0  0  0  0  0
    3.2104   -4.4555   -0.8132 H   0  0  0  0  0  0  0  0  0  0  0  0
    1.4821   -4.0022   -0.5799 H   0  0  0  0  0  0  0  0  0  0  0  0
    0.7865   -0.5610   -1.8218 H   0  0  0  0  0  0  0  0  0  0  0  0
   -0.1569   -2.4360    0.1062 H   0  0  0  0  0  0  0  0  0  0  0  0
   -0.1418   -0.3676    1.0997 H   0  0  0  0  0  0  0  0  0  0  0  0
   -2.3843   -0.4675   -1.0544 H   0  0  0  0  0  0  0  0  0  0  0  0
   -2.0490   -1.0248    1.3367 H   0  0  0  0  0  0  0  0  0  0  0  0
   -3.0647    1.8035    2.0956 H   0  0  0  0  0  0  0  0  0  0  0  0
   -1.3356    1.3547    2.0704 H   0  0  0  0  0  0  0  0  0  0  0  0
   -3.1525    0.8677    4.3031 H   0  0  0  0  0  0  0  0  0  0  0  0
   -4.8026    0.2146    1.4076 H   0  0  0  0  0  0  0  0  0  0  0  0
   -4.1923   -1.0551    2.4125 H   0  0  0  0  0  0  0  0  0  0  0  0
   -4.4891   -1.4880   -0.6326 H   0  0  0  0  0  0  0  0  0  0  0  0
   -4.0226   -3.4594    1.6872 H   0  0  0  0  0  0  0  0  0  0  0  0
   -2.8188   -2.9673    0.4377 H   0  0  0  0  0  0  0  0  0  0  0  0
   -4.2691   -3.8747   -0.0534 H   0  0  0  0  0  0  0  0  0  0  0  0
   -6.6033   -0.9602    0.2316 H   0  0  0  0  0  0  0  0  0  0  0  0
   -6.5780   -3.8004    0.2369 H   0  0  0  0  0  0  0  0  0  0  0  0
   -6.1750   -2.9591    2.5682 H   0  0  0  0  0  0  0  0  0  0  0  0
   -7.3901   -1.4697    3.8639 H   0  0  0  0  0  0  0  0  0  0  0  0
   -8.1847    0.7475    3.1604 H   0  0  0  0  0  0  0  0  0  0  0  0
   -8.6651   -0.5779    0.4403 H   0  0  0  0  0  0  0  0  0  0  0  0
   -9.2965    2.2004    1.7333 H   0  0  0  0  0  0  0  0  0  0  0  0
  -10.5215    1.1632    0.9262 H   0  0  0  0  0  0  0  0  0  0  0  0
   -9.4133    1.3381   -1.2386 H   0  0  0  0  0  0  0  0  0  0  0  0
   -9.8088    4.0849    0.1046 H   0  0  0  0  0  0  0  0  0  0  0  0
  -11.1019    3.0369   -0.6050 H   0  0  0  0  0  0  0  0  0  0  0  0
   -9.8319    3.7463   -1.6691 H   0  0  0  0  0  0  0  0  0  0  0  0
   -5.4000    3.1131   -0.5585 H   0  0  0  0  0  0  0  0  0  0  0  0
   -5.2092    3.0765   -2.3480 H   0  0  0  0  0  0  0  0  0  0  0  0
   -5.1400    0.7020   -0.4911 H   0  0  0  0  0  0  0  0  0  0  0  0
   -4.4749    0.9408   -3.2175 H   0  0  0  0  0  0  0  0  0  0  0  0
   -3.2235    2.3065   -0.0643 H   0  0  0  0  0  0  0  0  0  0  0  0
   -1.5847    3.7515   -2.7669 H   0  0  0  0  0  0  0  0  0  0  0  0
   -1.3689    3.4676   -1.0159 H   0  0  0  0  0  0  0  0  0  0  0  0
   -2.9640    4.0935   -1.6778 H   0  0  0  0  0  0  0  0  0  0  0  0
    2.8199    2.0978    0.2894 H   0  0  0  0  0  0  0  0  0  0  0  0
    1.0545    1.4925   -2.1409 H   0  0  0  0  0  0  0  0  0  0  0  0
    2.6374    2.3228   -2.0911 H   0  0  0  0  0  0  0  0  0  0  0  0
    1.2198    3.0132   -1.2304 H   0  0  0  0  0  0  0  0  0  0  0  0
    6.2034    1.1156   -0.4613 H   0  0  0  0  0  0  0  0  0  0  0  0
    5.5698    0.0573   -1.7514 H   0  0  0  0  0  0  0  0  0  0  0  0
    6.7949   -2.1373   -2.3122 H   0  0  0  0  0  0  0  0  0  0  0  0
    6.7497   -2.7340   -0.6095 H   0  0  0  0  0  0  0  0  0  0  0  0
    8.3162   -2.5472   -1.4434 H   0  0  0  0  0  0  0  0  0  0  0  0
    7.7920    0.0630   -2.6426 H   0  0  0  0  0  0  0  0  0  0  0  0
  1  2  1  0  0  0  0
  1 54  1  0  0  0  0
  1 55  1  0  0  0  0
  1 56  1  0  0  0  0
  2  3  1  0  0  0  0
  2 57  1  0  0  0  0
  2 58  1  0  0  0  0
  3  4  2  0  0  0  0
  3  5  1  0  0  0  0
  6  5  1  0  0  0  0
  6  7  1  0  0  0  0
  6 59  1  1  0  0  0
  7  8  1  0  0  0  0
  7  9  1  0  0  0  0
  7 60  1  6  0  0  0
  8 61  1  0  0  0  0
  8 62  1  0  0  0  0
  8 63  1  0  0  0  0
  9 10  1  0  0  0  0
 10 11  1  0  0  0  0
 10 50  1  0  0  0  0
 10 64  1  6  0  0  0
 12 11  1  0  0  0  0
 12 13  1  0  0  0  0
 12 65  1  6  0  0  0
 13 14  1  0  0  0  0
 13 17  1  0  0  0  0
 13 66  1  1  0  0  0
 14 15  1  0  0  0  0
 14 16  1  0  0  0  0
 15 67  1  0  0  0  0
 15 68  1  0  0  0  0
 15 69  1  0  0  0  0
 16 70  1  0  0  0  0
 16 71  1  0  0  0  0
 16 72  1  0  0  0  0
 17 18  1  0  0  0  0
 17 19  1  0  0  0  0
 17 73  1  6  0  0  0
 18 74  1  0  0  0  0
 19 20  1  0  0  0  0
 19 47  1  0  0  0  0
 19 75  1  1  0  0  0
 21 20  1  0  0  0  0
 21 22  1  0  0  0  0
 21 76  1  6  0  0  0
 22 23  1  0  0  0  0
 22 26  1  0  0  0  0
 22 77  1  1  0  0  0
 23 24  1  0  0  0  0
 23 78  1  0  0  0  0
 23 79  1  0  0  0  0
 24 25  2  0  0  0  0
 24 80  1  0  0  0  0
 26 27  1  0  0  0  0
 26 81  1  0  0  0  0
 26 82  1  0  0  0  0
 27 28  1  0  0  0  0
 27 29  1  0  0  0  0
 27 83  1  6  0  0  0
 28 84  1  0  0  0  0
 28 85  1  0  0  0  0
 28 86  1  0  0  0  0
 29 30  1  0  0  0  0
 29 31  1  0  0  0  0
 29 87  1  6  0  0  0
 30 88  1  0  0  0  0
 31 32  2  0  0  0  0
 31 89  1  0  0  0  0
 32 33  1  0  0  0  0
 32 90  1  0  0  0  0
 33 34  2  3  0  0  0
 33 91  1  0  0  0  0
 34 35  1  0  0  0  0
 34 92  1  0  0  0  0
 35 36  1  0  0  0  0
 35 93  1  0  0  0  0
 35 94  1  0  0  0  0
 36 37  1  0  0  0  0
 36 38  1  0  0  0  0
 36 95  1  6  0  0  0
 37 96  1  0  0  0  0
 37 97  1  0  0  0  0
 37 98  1  0  0  0  0
 38 39  1  0  0  0  0
 39 40  2  0  0  0  0
 39 41  1  0  0  0  0
 41 42  1  0  0  0  0
 41 99  1  0  0  0  0
 41100  1  0  0  0  0
 42 43  1  0  0  0  0
 42 44  1  0  0  0  0
 42101  1  1  0  0  0
 43102  1  0  0  0  0
 44 45  1  0  0  0  0
 44 21  1  0  0  0  0
 44103  1  1  0  0  0
 45 46  1  0  0  0  0
 46104  1  0  0  0  0
 46105  1  0  0  0  0
 46106  1  0  0  0  0
 47 48  1  0  0  0  0
 48 49  1  0  0  0  0
 48 12  1  0  0  0  0
 48107  1  1  0  0  0
 49108  1  0  0  0  0
 49109  1  0  0  0  0
 49110  1  0  0  0  0
 50 51  1  0  0  0  0
 50111  1  0  0  0  0
 50112  1  0  0  0  0
 51 52  1  0  0  0  0
 51 53  1  6  0  0  0
 51  6  1  0  0  0  0
 52113  1  0  0  0  0
 52114  1  0  0  0  0
 52115  1  0  0  0  0
 53116  1  0  0  0  0
M  END
>  <IDENTIFIER>
CNP0342088.1

>  <Energy>
1193.79

$$$$
