
 OpenBabel09122506473D

 84 86  0  0  0  0  0  0  0  0999 V2000
   -7.0134    1.8029    0.4089 C   0  0  0  0  0  0  0  0  0  0  0  0
   -5.9659    2.2720   -0.6018 C   0  0  0  0  0  0  0  0  0  0  0  0
   -5.1457    1.1224   -1.2119 C   0  0  0  0  0  0  0  0  0  0  0  0
   -4.2318    0.3989   -0.2456 C   0  0  0  0  0  0  0  0  0  0  0  0
   -4.2124    0.7038    0.9389 O   0  0  0  0  0  0  0  0  0  0  0  0
   -3.4100   -0.5803   -0.7197 N   0  0  0  0  0  0  0  0  0  0  0  0
   -2.5477   -1.3919    0.1312 C   0  0  1  0  0  0  0  0  0  0  0  0
   -3.0211   -2.8578   -0.0119 C   0  0  0  0  0  0  0  0  0  0  0  0
   -4.4254   -3.0170    0.5198 C   0  0  0  0  0  0  0  0  0  0  0  0
   -4.6602   -2.9218    1.9022 C   0  0  0  0  0  0  0  0  0  0  0  0
   -5.9525   -3.0633    2.4116 C   0  0  0  0  0  0  0  0  0  0  0  0
   -7.0294   -3.2917    1.5442 C   0  0  0  0  0  0  0  0  0  0  0  0
   -8.2831   -3.4240    2.0229 O   0  0  0  0  0  0  0  0  0  0  0  0
   -6.8017   -3.3841    0.1663 C   0  0  0  0  0  0  0  0  0  0  0  0
   -5.5056   -3.2549   -0.3453 C   0  0  0  0  0  0  0  0  0  0  0  0
   -1.0260   -1.2984   -0.1102 C   0  0  0  0  0  0  0  0  0  0  0  0
   -0.3707   -2.0187    0.6337 O   0  0  0  0  0  0  0  0  0  0  0  0
   -0.3290   -0.5246   -1.0281 N   0  0  0  0  0  0  0  0  0  0  0  0
    1.1331   -0.6238   -1.1286 C   0  0  2  0  0  0  0  0  0  0  0  0
    1.8306   -0.2190    0.1668 C   0  0  0  0  0  0  0  0  0  0  0  0
    1.1550    0.1772    1.1081 O   0  0  0  0  0  0  0  0  0  0  0  0
    3.1882   -0.2638    0.2772 N   0  0  0  0  0  0  0  0  0  0  0  0
    3.8749    0.2129    1.4764 C   0  0  2  0  0  0  0  0  0  0  0  0
    3.7076    1.7558    1.5684 C   0  0  0  0  0  0  0  0  0  0  0  0
    4.1833    2.2724    2.7795 O   0  0  0  0  0  0  0  0  0  0  0  0
    5.3588   -0.2364    1.4447 C   0  0  0  0  0  0  0  0  0  0  0  0
    6.1270    0.0688    2.7464 C   0  0  0  0  0  0  0  0  0  0  0  0
    7.5335   -0.5325    2.7564 C   0  0  0  0  0  0  0  0  0  0  0  0
    8.3420    0.0717    1.7128 N   0  0  0  0  0  0  0  0  0  0  0  0
    9.0222   -0.5206    0.7818 C   0  0  0  0  0  0  0  0  0  0  0  0
    9.7239    0.2815   -0.1513 N   0  0  0  0  0  0  0  0  0  0  0  0
    9.1082   -1.9391    0.6668 N   0  0  0  0  0  0  0  0  0  0  0  0
    1.5449    0.3501   -2.2385 C   0  0  0  0  0  0  0  0  0  0  0  0
    0.2763    0.5161   -3.0647 C   0  0  2  0  0  0  0  0  0  0  0  0
    0.1717    1.8562   -3.8037 C   0  0  0  0  0  0  0  0  0  0  0  0
    0.1951    3.0726   -2.8309 C   0  0  0  0  0  0  0  0  0  0  0  0
   -0.5050    2.8254   -1.4563 C   0  0  2  0  0  0  0  0  0  0  0  0
    0.4135    2.5278   -0.4389 O   0  0  0  0  0  0  0  0  0  0  0  0
   -1.5050    1.6766   -1.5590 C   0  0  0  0  0  0  0  0  0  0  0  0
   -0.8890    0.3286   -2.0644 C   0  0  2  0  0  0  0  0  0  0  0  0
   -7.5868    2.6817    0.7721 H   0  0  0  0  0  0  0  0  0  0  0  0
   -6.5500    1.3118    1.2869 H   0  0  0  0  0  0  0  0  0  0  0  0
   -7.7182    1.0929   -0.0727 H   0  0  0  0  0  0  0  0  0  0  0  0
   -5.2811    3.0092   -0.1276 H   0  0  0  0  0  0  0  0  0  0  0  0
   -6.5035    2.7847   -1.4281 H   0  0  0  0  0  0  0  0  0  0  0  0
   -4.5115    1.5587   -2.0106 H   0  0  0  0  0  0  0  0  0  0  0  0
   -5.8324    0.3884   -1.6867 H   0  0  0  0  0  0  0  0  0  0  0  0
   -3.4681   -0.8133   -1.7211 H   0  0  0  0  0  0  0  0  0  0  0  0
   -2.6663   -1.0932    1.1956 H   0  0  0  0  0  0  0  0  0  0  0  0
   -2.3701   -3.5661    0.5455 H   0  0  0  0  0  0  0  0  0  0  0  0
   -2.9655   -3.1354   -1.0882 H   0  0  0  0  0  0  0  0  0  0  0  0
   -3.8389   -2.7471    2.5863 H   0  0  0  0  0  0  0  0  0  0  0  0
   -6.1146   -2.9950    3.4803 H   0  0  0  0  0  0  0  0  0  0  0  0
   -8.4794   -3.3692    2.9694 H   0  0  0  0  0  0  0  0  0  0  0  0
   -7.6302   -3.5558   -0.5089 H   0  0  0  0  0  0  0  0  0  0  0  0
   -5.3482   -3.3251   -1.4143 H   0  0  0  0  0  0  0  0  0  0  0  0
    1.3798   -1.6707   -1.4149 H   0  0  0  0  0  0  0  0  0  0  0  0
    3.7365   -0.6491   -0.5075 H   0  0  0  0  0  0  0  0  0  0  0  0
    3.4008   -0.2746    2.3581 H   0  0  0  0  0  0  0  0  0  0  0  0
    2.6456    2.0625    1.4606 H   0  0  0  0  0  0  0  0  0  0  0  0
    4.2476    2.2393    0.7269 H   0  0  0  0  0  0  0  0  0  0  0  0
    3.5208    2.0201    3.4747 H   0  0  0  0  0  0  0  0  0  0  0  0
    5.8786    0.2209    0.5746 H   0  0  0  0  0  0  0  0  0  0  0  0
    5.3633   -1.3409    1.3092 H   0  0  0  0  0  0  0  0  0  0  0  0
    5.5649   -0.3595    3.6053 H   0  0  0  0  0  0  0  0  0  0  0  0
    6.2337    1.1606    2.8949 H   0  0  0  0  0  0  0  0  0  0  0  0
    7.4508   -1.6302    2.6831 H   0  0  0  0  0  0  0  0  0  0  0  0
    8.0006   -0.2961    3.7360 H   0  0  0  0  0  0  0  0  0  0  0  0
    9.6833    1.3096   -0.0921 H   0  0  0  0  0  0  0  0  0  0  0  0
   10.2815   -0.1531   -0.9013 H   0  0  0  0  0  0  0  0  0  0  0  0
    8.6588   -2.5949    1.3153 H   0  0  0  0  0  0  0  0  0  0  0  0
    9.6726   -2.3499   -0.0906 H   0  0  0  0  0  0  0  0  0  0  0  0
    2.4548    0.0643   -2.8083 H   0  0  0  0  0  0  0  0  0  0  0  0
    1.7978    1.3156   -1.7798 H   0  0  0  0  0  0  0  0  0  0  0  0
    0.2509   -0.3510   -3.7640 H   0  0  0  0  0  0  0  0  0  0  0  0
   -0.8149    1.8364   -4.3181 H   0  0  0  0  0  0  0  0  0  0  0  0
    0.9494    1.9796   -4.5870 H   0  0  0  0  0  0  0  0  0  0  0  0
   -0.3089    3.9016   -3.3736 H   0  0  0  0  0  0  0  0  0  0  0  0
    1.2321    3.4197   -2.6329 H   0  0  0  0  0  0  0  0  0  0  0  0
   -1.0442    3.7535   -1.1526 H   0  0  0  0  0  0  0  0  0  0  0  0
    0.8934    3.3701   -0.2242 H   0  0  0  0  0  0  0  0  0  0  0  0
   -2.2450    2.0104   -2.3180 H   0  0  0  0  0  0  0  0  0  0  0  0
   -2.0249    1.5515   -0.5955 H   0  0  0  0  0  0  0  0  0  0  0  0
   -1.6729   -0.2212   -2.6164 H   0  0  0  0  0  0  0  0  0  0  0  0
  1  2  1  0  0  0  0
  1 41  1  0  0  0  0
  1 42  1  0  0  0  0
  1 43  1  0  0  0  0
  2  3  1  0  0  0  0
  2 44  1  0  0  0  0
  2 45  1  0  0  0  0
  3  4  1  0  0  0  0
  3 46  1  0  0  0  0
  3 47  1  0  0  0  0
  4  5  2  0  0  0  0
  4  6  1  0  0  0  0
  6  7  1  0  0  0  0
  6 48  1  0  0  0  0
  7  8  1  0  0  0  0
  7 16  1  0  0  0  0
  7 49  1  1  0  0  0
  8  9  1  0  0  0  0
  8 50  1  0  0  0  0
  8 51  1  0  0  0  0
  9 10  2  0  0  0  0
 10 11  1  0  0  0  0
 10 52  1  0  0  0  0
 11 12  2  0  0  0  0
 11 53  1  0  0  0  0
 12 13  1  0  0  0  0
 12 14  1  0  0  0  0
 13 54  1  0  0  0  0
 14 15  2  0  0  0  0
 14 55  1  0  0  0  0
 15  9  1  0  0  0  0
 15 56  1  0  0  0  0
 16 17  2  0  0  0  0
 16 18  1  0  0  0  0
 18 19  1  0  0  0  0
 19 20  1  0  0  0  0
 19 33  1  0  0  0  0
 19 57  1  6  0  0  0
 20 21  2  0  0  0  0
 20 22  1  0  0  0  0
 22 23  1  0  0  0  0
 22 58  1  0  0  0  0
 23 24  1  0  0  0  0
 23 26  1  0  0  0  0
 23 59  1  1  0  0  0
 24 25  1  0  0  0  0
 24 60  1  0  0  0  0
 24 61  1  0  0  0  0
 25 62  1  0  0  0  0
 26 27  1  0  0  0  0
 26 63  1  0  0  0  0
 26 64  1  0  0  0  0
 27 28  1  0  0  0  0
 27 65  1  0  0  0  0
 27 66  1  0  0  0  0
 28 29  1  0  0  0  0
 28 67  1  0  0  0  0
 28 68  1  0  0  0  0
 29 30  2  0  0  0  0
 30 31  1  0  0  0  0
 30 32  1  0  0  0  0
 31 69  1  0  0  0  0
 31 70  1  0  0  0  0
 32 71  1  0  0  0  0
 32 72  1  0  0  0  0
 33 73  1  0  0  0  0
 33 74  1  0  0  0  0
 34 33  1  0  0  0  0
 34 35  1  0  0  0  0
 34 75  1  6  0  0  0
 35 36  1  0  0  0  0
 35 76  1  0  0  0  0
 35 77  1  0  0  0  0
 36 37  1  0  0  0  0
 36 78  1  0  0  0  0
 36 79  1  0  0  0  0
 37 38  1  0  0  0  0
 37 39  1  0  0  0  0
 37 80  1  1  0  0  0
 38 81  1  0  0  0  0
 39 82  1  0  0  0  0
 39 83  1  0  0  0  0
 40 39  1  0  0  0  0
 40 18  1  0  0  0  0
 40 34  1  0  0  0  0
 40 84  1  6  0  0  0
M  END
>  <IDENTIFIER>
CNP0565688.1

>  <Energy>
702.821

$$$$
