
 OpenBabel09072504143D

 81 82  0  0  0  0  0  0  0  0999 V2000
    9.8985    1.7374   -1.0038 C   0  0  0  0  0  0  0  0  0  0  0  0
    9.4298    0.9468    0.1939 C   0  0  0  0  0  0  0  0  0  0  0  0
   10.4195    0.1174    0.9700 C   0  0  0  0  0  0  0  0  0  0  0  0
    8.1409    0.9551    0.5992 C   0  0  0  0  0  0  0  0  0  0  0  0
    7.0289    1.7224   -0.0714 C   0  0  0  0  0  0  0  0  0  0  0  0
    5.9953    0.7378   -0.5630 C   0  0  0  0  0  0  0  0  0  0  0  0
    4.6909    0.6592   -0.1980 C   0  0  0  0  0  0  0  0  0  0  0  0
    4.0384    1.5998    0.8029 C   0  0  0  0  0  0  0  0  0  0  0  0
    3.8702   -0.4282   -0.8204 C   0  0  0  0  0  0  0  0  0  0  0  0
    2.5675   -0.6140   -0.5447 C   0  0  0  0  0  0  0  0  0  0  0  0
    1.7887   -1.7173   -1.1774 C   0  0  0  0  0  0  0  0  0  0  0  0
    0.4787   -2.0192   -0.9309 C   0  0  0  0  0  0  0  0  0  0  0  0
   -0.1849   -3.1823   -1.6731 C   0  0  0  0  0  0  0  0  0  0  0  0
    0.6831   -3.8481   -2.5532 O   0  0  0  0  0  0  0  0  0  0  0  0
   -0.3524   -1.2574    0.1156 C   0  0  2  0  0  0  0  0  0  0  0  0
   -1.0735   -2.1223    1.1343 C   0  0  0  0  0  0  0  0  0  0  0  0
   -1.7845   -1.0493    1.9477 C   0  0  0  0  0  0  0  0  0  0  0  0
   -2.4008   -0.0820    0.8836 C   0  0  1  0  0  0  0  0  0  0  0  0
   -3.9783   -0.4141    0.7690 C   0  0  2  0  0  0  0  0  0  0  0  0
   -4.4854   -1.8612    0.3728 C   0  0  0  0  0  0  0  0  0  0  0  0
   -4.3612   -2.4687   -1.0417 C   0  0  0  0  0  0  0  0  0  0  0  0
   -5.0330   -1.6558   -2.1549 C   0  0  0  0  0  0  0  0  0  0  0  0
   -6.3966   -1.4680   -1.8875 O   0  0  0  0  0  0  0  0  0  0  0  0
   -4.8028    0.7724    0.2053 C   0  0  0  0  0  0  0  0  0  0  0  0
   -6.1223    1.0046    0.5498 C   0  0  0  0  0  0  0  0  0  0  0  0
   -6.9295    2.1951    0.0582 C   0  0  0  0  0  0  0  0  0  0  0  0
   -6.8686    0.1358    1.5182 C   0  0  0  0  0  0  0  0  0  0  0  0
   -8.0387    0.3660    1.7840 O   0  0  0  0  0  0  0  0  0  0  0  0
   -3.9882    1.7313   -0.6369 C   0  0  0  0  0  0  0  0  0  0  0  0
   -2.8573    2.3648    0.2030 C   0  0  0  0  0  0  0  0  0  0  0  0
   -2.2707    1.4388    1.3328 C   0  0  1  0  0  0  0  0  0  0  0  0
   -3.0004    1.7323    2.6769 C   0  0  0  0  0  0  0  0  0  0  0  0
   -0.9094    1.7569    1.5310 O   0  0  0  0  0  0  0  0  0  0  0  0
   -1.4529   -0.2951   -0.3804 C   0  0  2  0  0  0  0  0  0  0  0  0
   -2.1451   -0.8098   -1.4717 O   0  0  0  0  0  0  0  0  0  0  0  0
   10.9857    1.6050   -1.1810 H   0  0  0  0  0  0  0  0  0  0  0  0
    9.7091    2.8190   -0.8381 H   0  0  0  0  0  0  0  0  0  0  0  0
    9.3599    1.3998   -1.9144 H   0  0  0  0  0  0  0  0  0  0  0  0
   11.4412    0.1899    0.5434 H   0  0  0  0  0  0  0  0  0  0  0  0
   10.1102   -0.9495    0.9499 H   0  0  0  0  0  0  0  0  0  0  0  0
   10.4567    0.4646    2.0241 H   0  0  0  0  0  0  0  0  0  0  0  0
    7.8646    0.3683    1.4724 H   0  0  0  0  0  0  0  0  0  0  0  0
    7.3798    2.3032   -0.9474 H   0  0  0  0  0  0  0  0  0  0  0  0
    6.6549    2.4550    0.6585 H   0  0  0  0  0  0  0  0  0  0  0  0
    6.3693    0.0181   -1.2895 H   0  0  0  0  0  0  0  0  0  0  0  0
    4.6883    2.3763    1.2313 H   0  0  0  0  0  0  0  0  0  0  0  0
    3.6461    1.0092    1.6575 H   0  0  0  0  0  0  0  0  0  0  0  0
    3.1962    2.1307    0.3108 H   0  0  0  0  0  0  0  0  0  0  0  0
    4.3505   -1.1054   -1.5232 H   0  0  0  0  0  0  0  0  0  0  0  0
    2.1045    0.0659    0.1465 H   0  0  0  0  0  0  0  0  0  0  0  0
    2.3393   -2.3077   -1.9026 H   0  0  0  0  0  0  0  0  0  0  0  0
   -1.0849   -2.8532   -2.2303 H   0  0  0  0  0  0  0  0  0  0  0  0
   -0.5314   -3.9304   -0.9320 H   0  0  0  0  0  0  0  0  0  0  0  0
    0.6765   -3.3351   -3.4010 H   0  0  0  0  0  0  0  0  0  0  0  0
    0.3159   -0.6349    0.7295 H   0  0  0  0  0  0  0  0  0  0  0  0
   -0.3884   -2.7401    1.7540 H   0  0  0  0  0  0  0  0  0  0  0  0
   -1.8073   -2.7832    0.6326 H   0  0  0  0  0  0  0  0  0  0  0  0
   -0.9835   -0.5221    2.5142 H   0  0  0  0  0  0  0  0  0  0  0  0
   -2.4840   -1.4336    2.7202 H   0  0  0  0  0  0  0  0  0  0  0  0
   -4.2600   -0.3849    1.8365 H   0  0  0  0  0  0  0  0  0  0  0  0
   -5.5652   -1.9209    0.5794 H   0  0  0  0  0  0  0  0  0  0  0  0
   -4.0205   -2.5853    1.0713 H   0  0  0  0  0  0  0  0  0  0  0  0
   -4.8540   -3.4657   -1.0161 H   0  0  0  0  0  0  0  0  0  0  0  0
   -3.3154   -2.6999   -1.2927 H   0  0  0  0  0  0  0  0  0  0  0  0
   -4.9010   -2.1767   -3.1304 H   0  0  0  0  0  0  0  0  0  0  0  0
   -4.5572   -0.6680   -2.2724 H   0  0  0  0  0  0  0  0  0  0  0  0
   -6.8574   -2.3031   -2.1649 H   0  0  0  0  0  0  0  0  0  0  0  0
   -6.4330    2.8887   -0.6341 H   0  0  0  0  0  0  0  0  0  0  0  0
   -7.2379    2.8037    0.9364 H   0  0  0  0  0  0  0  0  0  0  0  0
   -7.8428    1.8325   -0.4568 H   0  0  0  0  0  0  0  0  0  0  0  0
   -6.4028   -0.6758    2.0544 H   0  0  0  0  0  0  0  0  0  0  0  0
   -4.5085    2.5431   -1.1684 H   0  0  0  0  0  0  0  0  0  0  0  0
   -3.5494    1.1358   -1.4524 H   0  0  0  0  0  0  0  0  0  0  0  0
   -3.1966    3.3167    0.6678 H   0  0  0  0  0  0  0  0  0  0  0  0
   -2.0730    2.6551   -0.5295 H   0  0  0  0  0  0  0  0  0  0  0  0
   -2.8227    2.7870    2.9790 H   0  0  0  0  0  0  0  0  0  0  0  0
   -2.6067    1.0871    3.4885 H   0  0  0  0  0  0  0  0  0  0  0  0
   -4.0993    1.6172    2.6242 H   0  0  0  0  0  0  0  0  0  0  0  0
   -0.8319    2.7399    1.6550 H   0  0  0  0  0  0  0  0  0  0  0  0
   -0.9490    0.6431   -0.7131 H   0  0  0  0  0  0  0  0  0  0  0  0
   -1.6486   -0.5522   -2.2929 H   0  0  0  0  0  0  0  0  0  0  0  0
  1  2  1  0  0  0  0
  1 36  1  0  0  0  0
  1 37  1  0  0  0  0
  1 38  1  0  0  0  0
  2  3  1  0  0  0  0
  2  4  2  0  0  0  0
  3 39  1  0  0  0  0
  3 40  1  0  0  0  0
  3 41  1  0  0  0  0
  4  5  1  0  0  0  0
  4 42  1  0  0  0  0
  5  6  1  0  0  0  0
  5 43  1  0  0  0  0
  5 44  1  0  0  0  0
  6  7  2  0  0  0  0
  6 45  1  0  0  0  0
  7  8  1  0  0  0  0
  7  9  1  0  0  0  0
  8 46  1  0  0  0  0
  8 47  1  0  0  0  0
  8 48  1  0  0  0  0
  9 10  2  0  0  0  0
  9 49  1  0  0  0  0
 10 11  1  0  0  0  0
 10 50  1  0  0  0  0
 11 12  2  0  0  0  0
 11 51  1  0  0  0  0
 12 13  1  0  0  0  0
 13 14  1  0  0  0  0
 13 52  1  0  0  0  0
 13 53  1  0  0  0  0
 14 54  1  0  0  0  0
 15 12  1  0  0  0  0
 15 16  1  0  0  0  0
 15 55  1  1  0  0  0
 16 17  1  0  0  0  0
 16 56  1  0  0  0  0
 16 57  1  0  0  0  0
 17 58  1  0  0  0  0
 17 59  1  0  0  0  0
 18 17  1  1  0  0  0
 18 19  1  0  0  0  0
 18 34  1  0  0  0  0
 19 20  1  0  0  0  0
 19 24  1  0  0  0  0
 19 60  1  1  0  0  0
 20 21  1  0  0  0  0
 20 61  1  0  0  0  0
 20 62  1  0  0  0  0
 21 22  1  0  0  0  0
 21 63  1  0  0  0  0
 21 64  1  0  0  0  0
 22 23  1  0  0  0  0
 22 65  1  0  0  0  0
 22 66  1  0  0  0  0
 23 67  1  0  0  0  0
 24 25  2  0  0  0  0
 24 29  1  0  0  0  0
 25 26  1  0  0  0  0
 25 27  1  0  0  0  0
 26 68  1  0  0  0  0
 26 69  1  0  0  0  0
 26 70  1  0  0  0  0
 27 28  2  0  0  0  0
 27 71  1  0  0  0  0
 29 30  1  0  0  0  0
 29 72  1  0  0  0  0
 29 73  1  0  0  0  0
 30 31  1  0  0  0  0
 30 74  1  0  0  0  0
 30 75  1  0  0  0  0
 31 32  1  0  0  0  0
 31 33  1  1  0  0  0
 31 18  1  0  0  0  0
 32 76  1  0  0  0  0
 32 77  1  0  0  0  0
 32 78  1  0  0  0  0
 33 79  1  0  0  0  0
 34 35  1  0  0  0  0
 34 15  1  0  0  0  0
 34 80  1  6  0  0  0
 35 81  1  0  0  0  0
M  END
>  <IDENTIFIER>
CNP0261841.1

>  <Energy>
894.052

$$$$
