
 OpenBabel09062504353D

 72 75  0  0  0  0  0  0  0  0999 V2000
    7.7621   -0.6651   -1.2339 C   0  0  0  0  0  0  0  0  0  0  0  0
    7.9177    0.6091   -0.3894 C   0  0  0  0  0  0  0  0  0  0  0  0
    8.3344    0.2523    1.0456 C   0  0  0  0  0  0  0  0  0  0  0  0
    6.6353    1.4743   -0.4303 C   0  0  0  0  0  0  0  0  0  0  0  0
    5.4336    0.7597    0.1392 C   0  0  0  0  0  0  0  0  0  0  0  0
    4.3527    0.4808   -0.6160 C   0  0  0  0  0  0  0  0  0  0  0  0
    3.1179   -0.2895   -0.1475 C   0  0  1  0  0  0  0  0  0  0  0  0
    3.2796   -0.8351    1.2830 C   0  0  0  0  0  0  0  0  0  0  0  0
    1.8266    0.5846   -0.3101 C   0  0  1  0  0  0  0  0  0  0  0  0
    1.5899    1.0411   -1.7380 C   0  0  0  0  0  0  0  0  0  0  0  0
    0.2388    1.2084   -1.9831 C   0  0  0  0  0  0  0  0  0  0  0  0
   -0.5026    0.9495   -0.7226 C   0  0  1  0  0  0  0  0  0  0  0  0
   -1.9723    0.4867   -0.7632 C   0  0  2  0  0  0  0  0  0  0  0  0
   -2.8856    1.5009   -1.5032 C   0  0  0  0  0  0  0  0  0  0  0  0
   -4.3726    1.0747   -1.4690 C   0  0  0  0  0  0  0  0  0  0  0  0
   -4.7884    0.8760   -0.0045 C   0  0  1  0  0  0  0  0  0  0  0  0
   -6.2623    0.6223    0.3925 C   0  0  1  0  0  0  0  0  0  0  0  0
   -7.1241   -0.0965   -0.6657 C   0  0  0  0  0  0  0  0  0  0  0  0
   -8.4395   -0.2533   -0.2046 O   0  0  0  0  0  0  0  0  0  0  0  0
   -6.1472   -0.1655    1.7313 C   0  0  0  0  0  0  0  0  0  0  0  0
   -4.6534   -0.1153    2.1091 C   0  0  0  0  0  0  0  0  0  0  0  0
   -3.9506   -0.1814    0.7380 C   0  0  1  0  0  0  0  0  0  0  0  0
   -4.0663   -1.6292    0.1403 C   0  0  0  0  0  0  0  0  0  0  0  0
   -2.4600    0.3051    0.7259 C   0  0  1  0  0  0  0  0  0  0  0  0
   -1.5052   -0.5811    1.5786 C   0  0  0  0  0  0  0  0  0  0  0  0
   -0.0341   -0.1097    1.4794 C   0  0  0  0  0  0  0  0  0  0  0  0
    0.4270   -0.0601   -0.0066 C   0  0  2  0  0  0  0  0  0  0  0  0
    0.3736   -1.4892   -0.6593 C   0  0  0  0  0  0  0  0  0  0  0  0
    8.7133   -1.2392   -1.2409 H   0  0  0  0  0  0  0  0  0  0  0  0
    7.5082   -0.4017   -2.2825 H   0  0  0  0  0  0  0  0  0  0  0  0
    6.9613   -1.3190   -0.8258 H   0  0  0  0  0  0  0  0  0  0  0  0
    8.7386    1.2141   -0.8341 H   0  0  0  0  0  0  0  0  0  0  0  0
    7.5764   -0.3887    1.5426 H   0  0  0  0  0  0  0  0  0  0  0  0
    8.4748    1.1770    1.6439 H   0  0  0  0  0  0  0  0  0  0  0  0
    9.2963   -0.3034    1.0344 H   0  0  0  0  0  0  0  0  0  0  0  0
    6.4506    1.7666   -1.4880 H   0  0  0  0  0  0  0  0  0  0  0  0
    6.7978    2.4092    0.1474 H   0  0  0  0  0  0  0  0  0  0  0  0
    5.4811    0.4662    1.1792 H   0  0  0  0  0  0  0  0  0  0  0  0
    4.3695    0.7994   -1.6525 H   0  0  0  0  0  0  0  0  0  0  0  0
    3.0497   -1.1713   -0.8191 H   0  0  0  0  0  0  0  0  0  0  0  0
    3.3111   -0.0078    2.0240 H   0  0  0  0  0  0  0  0  0  0  0  0
    4.2089   -1.4396    1.3575 H   0  0  0  0  0  0  0  0  0  0  0  0
    2.4697   -1.5345    1.5418 H   0  0  0  0  0  0  0  0  0  0  0  0
    1.9317    1.5065    0.3070 H   0  0  0  0  0  0  0  0  0  0  0  0
    2.3374    1.1591   -2.5087 H   0  0  0  0  0  0  0  0  0  0  0  0
   -0.1856    1.4815   -2.9400 H   0  0  0  0  0  0  0  0  0  0  0  0
   -0.4679    1.9190   -0.1683 H   0  0  0  0  0  0  0  0  0  0  0  0
   -2.0173   -0.4597   -1.3277 H   0  0  0  0  0  0  0  0  0  0  0  0
   -2.5656    1.6166   -2.5603 H   0  0  0  0  0  0  0  0  0  0  0  0
   -2.7915    2.4940   -1.0095 H   0  0  0  0  0  0  0  0  0  0  0  0
   -4.5217    0.1376   -2.0445 H   0  0  0  0  0  0  0  0  0  0  0  0
   -4.9880    1.8735   -1.9358 H   0  0  0  0  0  0  0  0  0  0  0  0
   -4.5598    1.8522    0.4953 H   0  0  0  0  0  0  0  0  0  0  0  0
   -6.7294    1.6192    0.5663 H   0  0  0  0  0  0  0  0  0  0  0  0
   -6.7049   -1.0753   -0.9785 H   0  0  0  0  0  0  0  0  0  0  0  0
   -7.1586    0.5200   -1.5882 H   0  0  0  0  0  0  0  0  0  0  0  0
   -8.4819   -1.1331    0.2536 H   0  0  0  0  0  0  0  0  0  0  0  0
   -6.3915   -1.2313    1.5501 H   0  0  0  0  0  0  0  0  0  0  0  0
   -6.8453    0.1694    2.5256 H   0  0  0  0  0  0  0  0  0  0  0  0
   -4.3444   -0.8927    2.8402 H   0  0  0  0  0  0  0  0  0  0  0  0
   -4.4553    0.8804    2.5694 H   0  0  0  0  0  0  0  0  0  0  0  0
   -3.5255   -2.3595    0.7719 H   0  0  0  0  0  0  0  0  0  0  0  0
   -3.6744   -1.7077   -0.8885 H   0  0  0  0  0  0  0  0  0  0  0  0
   -5.0902   -2.0214    0.0821 H   0  0  0  0  0  0  0  0  0  0  0  0
   -2.4186    1.3154    1.1965 H   0  0  0  0  0  0  0  0  0  0  0  0
   -1.5490   -1.6362    1.2648 H   0  0  0  0  0  0  0  0  0  0  0  0
   -1.8247   -0.5541    2.6422 H   0  0  0  0  0  0  0  0  0  0  0  0
    0.5830   -0.7798    2.1002 H   0  0  0  0  0  0  0  0  0  0  0  0
    0.0424    0.9091    1.9208 H   0  0  0  0  0  0  0  0  0  0  0  0
    1.0542   -2.1869   -0.1337 H   0  0  0  0  0  0  0  0  0  0  0  0
    0.6704   -1.4662   -1.7287 H   0  0  0  0  0  0  0  0  0  0  0  0
   -0.6219   -1.9642   -0.6314 H   0  0  0  0  0  0  0  0  0  0  0  0
  1  2  1  0  0  0  0
  1 29  1  0  0  0  0
  1 30  1  0  0  0  0
  1 31  1  0  0  0  0
  2  3  1  0  0  0  0
  2  4  1  0  0  0  0
  2 32  1  0  0  0  0
  3 33  1  0  0  0  0
  3 34  1  0  0  0  0
  3 35  1  0  0  0  0
  4  5  1  0  0  0  0
  4 36  1  0  0  0  0
  4 37  1  0  0  0  0
  5  6  2  0  0  0  0
  5 38  1  0  0  0  0
  6  7  1  0  0  0  0
  6 39  1  0  0  0  0
  7  8  1  0  0  0  0
  7  9  1  0  0  0  0
  7 40  1  6  0  0  0
  8 41  1  0  0  0  0
  8 42  1  0  0  0  0
  8 43  1  0  0  0  0
  9 10  1  0  0  0  0
  9 44  1  1  0  0  0
 10 11  2  0  0  0  0
 10 45  1  0  0  0  0
 11 46  1  0  0  0  0
 12 11  1  0  0  0  0
 12 13  1  0  0  0  0
 12 47  1  1  0  0  0
 13 14  1  0  0  0  0
 13 48  1  6  0  0  0
 14 15  1  0  0  0  0
 14 49  1  0  0  0  0
 14 50  1  0  0  0  0
 15 51  1  0  0  0  0
 15 52  1  0  0  0  0
 16 15  1  0  0  0  0
 16 17  1  0  0  0  0
 16 53  1  1  0  0  0
 17 18  1  0  0  0  0
 17 20  1  0  0  0  0
 17 54  1  1  0  0  0
 18 19  1  0  0  0  0
 18 55  1  0  0  0  0
 18 56  1  0  0  0  0
 19 57  1  0  0  0  0
 20 21  1  0  0  0  0
 20 58  1  0  0  0  0
 20 59  1  0  0  0  0
 21 22  1  0  0  0  0
 21 60  1  0  0  0  0
 21 61  1  0  0  0  0
 22 23  1  6  0  0  0
 22 24  1  0  0  0  0
 22 16  1  0  0  0  0
 23 62  1  0  0  0  0
 23 63  1  0  0  0  0
 23 64  1  0  0  0  0
 24 25  1  0  0  0  0
 24 13  1  0  0  0  0
 24 65  1  1  0  0  0
 25 26  1  0  0  0  0
 25 66  1  0  0  0  0
 25 67  1  0  0  0  0
 26 27  1  0  0  0  0
 26 68  1  0  0  0  0
 26 69  1  0  0  0  0
 27 28  1  6  0  0  0
 27  9  1  0  0  0  0
 27 12  1  0  0  0  0
 28 70  1  0  0  0  0
 28 71  1  0  0  0  0
 28 72  1  0  0  0  0
M  END
>  <IDENTIFIER>
CNP0339541.1

>  <Energy>
699.752

$$$$
