
 OpenBabel09122507513D

 64 64  0  0  0  0  0  0  0  0999 V2000
    6.0212    3.1783    2.4577 C   0  0  0  0  0  0  0  0  0  0  0  0
    5.7902    2.1736    1.3772 C   0  0  0  0  0  0  0  0  0  0  0  0
    5.6795    0.9915    1.6710 O   0  0  0  0  0  0  0  0  0  0  0  0
    5.7257    2.5818    0.0791 O   0  0  0  0  0  0  0  0  0  0  0  0
    5.4975    1.7217   -0.9799 C   0  0  0  0  0  0  0  0  0  0  0  0
    4.0954    1.1624   -0.9183 C   0  0  0  0  0  0  0  0  0  0  0  0
    3.9014   -0.1875   -0.6214 C   0  0  0  0  0  0  0  0  0  0  0  0
    2.6102   -0.7450   -0.5304 C   0  0  0  0  0  0  0  0  0  0  0  0
    2.4456   -2.0551   -0.1949 O   0  0  0  0  0  0  0  0  0  0  0  0
    3.2872   -2.8301    0.5448 C   0  0  0  0  0  0  0  0  0  0  0  0
    3.1077   -4.3135    0.5588 C   0  0  0  0  0  0  0  0  0  0  0  0
    4.1613   -2.3367    1.2419 O   0  0  0  0  0  0  0  0  0  0  0  0
    1.4687    0.0648   -0.8023 C   0  0  0  0  0  0  0  0  0  0  0  0
    0.0388   -0.5458   -0.7592 C   0  0  2  0  0  0  0  0  0  0  0  0
   -0.0642   -1.6243   -1.8766 C   0  0  0  0  0  0  0  0  0  0  0  0
   -1.0575    0.5335   -1.0327 C   0  0  0  0  0  0  0  0  0  0  0  0
   -2.5335    0.0836   -0.9323 C   0  0  0  0  0  0  0  0  0  0  0  0
   -3.4338    1.2709   -1.3258 C   0  0  0  0  0  0  0  0  0  0  0  0
   -4.9562    0.9919   -1.3653 C   0  0  2  0  0  0  0  0  0  0  0  0
   -5.6400    2.1633   -2.0950 C   0  0  0  0  0  0  0  0  0  0  0  0
   -5.6128    0.8578    0.0259 C   0  0  0  0  0  0  0  0  0  0  0  0
   -5.2333   -0.2876    0.7006 O   0  0  0  0  0  0  0  0  0  0  0  0
   -4.7231   -0.3109    1.9602 C   0  0  0  0  0  0  0  0  0  0  0  0
   -4.7105   -1.5947    2.7232 C   0  0  0  0  0  0  0  0  0  0  0  0
   -4.3089    0.7079    2.4947 O   0  0  0  0  0  0  0  0  0  0  0  0
   -0.1877   -1.0276    0.5325 O   0  0  0  0  0  0  0  0  0  0  0  0
   -0.4051   -2.2914    0.9984 C   0  0  0  0  0  0  0  0  0  0  0  0
   -0.8457   -2.4777    2.4122 C   0  0  0  0  0  0  0  0  0  0  0  0
   -0.2383   -3.2784    0.2999 O   0  0  0  0  0  0  0  0  0  0  0  0
    1.6948    1.4353   -1.1015 C   0  0  0  0  0  0  0  0  0  0  0  0
    2.9837    1.9802   -1.1445 C   0  0  0  0  0  0  0  0  0  0  0  0
    3.1592    3.2906   -1.4254 O   0  0  0  0  0  0  0  0  0  0  0  0
    6.0620    2.6788    3.4501 H   0  0  0  0  0  0  0  0  0  0  0  0
    5.1937    3.9166    2.4600 H   0  0  0  0  0  0  0  0  0  0  0  0
    6.9840    3.6990    2.2790 H   0  0  0  0  0  0  0  0  0  0  0  0
    6.2635    0.9152   -0.9507 H   0  0  0  0  0  0  0  0  0  0  0  0
    5.6313    2.2603   -1.9422 H   0  0  0  0  0  0  0  0  0  0  0  0
    4.7749   -0.8008   -0.4536 H   0  0  0  0  0  0  0  0  0  0  0  0
    2.2716   -4.6077   -0.1076 H   0  0  0  0  0  0  0  0  0  0  0  0
    2.8897   -4.6514    1.5928 H   0  0  0  0  0  0  0  0  0  0  0  0
    4.0416   -4.7989    0.2042 H   0  0  0  0  0  0  0  0  0  0  0  0
    0.0777   -1.1516   -2.8740 H   0  0  0  0  0  0  0  0  0  0  0  0
   -1.0490   -2.1317   -1.8713 H   0  0  0  0  0  0  0  0  0  0  0  0
    0.7056   -2.4151   -1.7918 H   0  0  0  0  0  0  0  0  0  0  0  0
   -0.8912    0.9419   -2.0553 H   0  0  0  0  0  0  0  0  0  0  0  0
   -0.9364    1.3531   -0.2897 H   0  0  0  0  0  0  0  0  0  0  0  0
   -2.7445   -0.2589    0.0988 H   0  0  0  0  0  0  0  0  0  0  0  0
   -2.7409   -0.7452   -1.6385 H   0  0  0  0  0  0  0  0  0  0  0  0
   -3.1262    1.5478   -2.3597 H   0  0  0  0  0  0  0  0  0  0  0  0
   -3.2353    2.1457   -0.6675 H   0  0  0  0  0  0  0  0  0  0  0  0
   -5.1519    0.0751   -1.9644 H   0  0  0  0  0  0  0  0  0  0  0  0
   -5.4779    3.1174   -1.5474 H   0  0  0  0  0  0  0  0  0  0  0  0
   -6.7330    1.9841   -2.1825 H   0  0  0  0  0  0  0  0  0  0  0  0
   -5.2355    2.2716   -3.1241 H   0  0  0  0  0  0  0  0  0  0  0  0
   -6.7120    0.7801   -0.1192 H   0  0  0  0  0  0  0  0  0  0  0  0
   -5.4289    1.7793    0.6226 H   0  0  0  0  0  0  0  0  0  0  0  0
   -5.1366   -2.4153    2.1081 H   0  0  0  0  0  0  0  0  0  0  0  0
   -5.3250   -1.4816    3.6414 H   0  0  0  0  0  0  0  0  0  0  0  0
   -3.6759   -1.8516    3.0152 H   0  0  0  0  0  0  0  0  0  0  0  0
   -0.9853   -1.4930    2.9070 H   0  0  0  0  0  0  0  0  0  0  0  0
   -0.0885   -3.0637    2.9722 H   0  0  0  0  0  0  0  0  0  0  0  0
   -1.8073   -3.0303    2.4216 H   0  0  0  0  0  0  0  0  0  0  0  0
    0.8847    2.1159   -1.3075 H   0  0  0  0  0  0  0  0  0  0  0  0
    2.4166    3.8883   -1.5947 H   0  0  0  0  0  0  0  0  0  0  0  0
  1  2  1  0  0  0  0
  1 33  1  0  0  0  0
  1 34  1  0  0  0  0
  1 35  1  0  0  0  0
  2  3  2  0  0  0  0
  2  4  1  0  0  0  0
  4  5  1  0  0  0  0
  5  6  1  0  0  0  0
  5 36  1  0  0  0  0
  5 37  1  0  0  0  0
  6  7  2  0  0  0  0
  7  8  1  0  0  0  0
  7 38  1  0  0  0  0
  8  9  1  0  0  0  0
  8 13  2  0  0  0  0
  9 10  1  0  0  0  0
 10 11  1  0  0  0  0
 10 12  2  0  0  0  0
 11 39  1  0  0  0  0
 11 40  1  0  0  0  0
 11 41  1  0  0  0  0
 13 14  1  0  0  0  0
 13 30  1  0  0  0  0
 14 15  1  0  0  0  0
 14 16  1  0  0  0  0
 14 26  1  1  0  0  0
 15 42  1  0  0  0  0
 15 43  1  0  0  0  0
 15 44  1  0  0  0  0
 16 17  1  0  0  0  0
 16 45  1  0  0  0  0
 16 46  1  0  0  0  0
 17 18  1  0  0  0  0
 17 47  1  0  0  0  0
 17 48  1  0  0  0  0
 18 19  1  0  0  0  0
 18 49  1  0  0  0  0
 18 50  1  0  0  0  0
 19 20  1  0  0  0  0
 19 21  1  0  0  0  0
 19 51  1  6  0  0  0
 20 52  1  0  0  0  0
 20 53  1  0  0  0  0
 20 54  1  0  0  0  0
 21 22  1  0  0  0  0
 21 55  1  0  0  0  0
 21 56  1  0  0  0  0
 22 23  1  0  0  0  0
 23 24  1  0  0  0  0
 23 25  2  0  0  0  0
 24 57  1  0  0  0  0
 24 58  1  0  0  0  0
 24 59  1  0  0  0  0
 26 27  1  0  0  0  0
 27 28  1  0  0  0  0
 27 29  2  0  0  0  0
 28 60  1  0  0  0  0
 28 61  1  0  0  0  0
 28 62  1  0  0  0  0
 30 31  2  0  0  0  0
 30 63  1  0  0  0  0
 31 32  1  0  0  0  0
 31  6  1  0  0  0  0
 32 64  1  0  0  0  0
M  END
>  <IDENTIFIER>
CNP0491888.0

>  <Energy>
307.501

$$$$
