
 OpenBabel09122521123D

 57 59  0  0  0  0  0  0  0  0999 V2000
   -5.4996   -3.2058   -0.4705 C   0  0  0  0  0  0  0  0  0  0  0  0
   -4.6246   -2.0209   -0.2428 C   0  0  0  0  0  0  0  0  0  0  0  0
   -4.9776   -0.9492    0.4837 N   0  0  0  0  0  0  0  0  0  0  0  0
   -3.9454   -0.1155    0.4753 N   0  0  0  0  0  0  0  0  0  0  0  0
   -3.9534    1.1475    1.2530 C   0  0  0  0  0  0  0  0  0  0  0  0
   -3.8298    2.3883    0.3637 C   0  0  0  0  0  0  0  0  0  0  0  0
   -5.2481    1.2714    2.0785 C   0  0  0  0  0  0  0  0  0  0  0  0
   -2.9678   -0.7067   -0.2747 C   0  0  0  0  0  0  0  0  0  0  0  0
   -1.5633   -0.2279   -0.5771 C   0  0  1  0  0  0  0  0  0  0  0  0
   -1.4853    0.7682   -1.7676 C   0  0  0  0  0  0  0  0  0  0  0  0
   -0.2435    1.6911   -1.6863 C   0  0  0  0  0  0  0  0  0  0  0  0
    0.9783    0.9008   -1.1895 C   0  0  1  0  0  0  0  0  0  0  0  0
    2.1438    1.6808   -1.2670 O   0  0  0  0  0  0  0  0  0  0  0  0
    0.7651    0.3471    0.2652 C   0  0  2  0  0  0  0  0  0  0  0  0
    1.3770   -0.9910    0.4459 N   0  0  0  0  0  0  0  0  0  0  0  0
    2.8417   -1.1665    0.5432 C   0  0  0  0  0  0  0  0  0  0  0  0
    3.5426   -0.1137    1.4179 C   0  0  0  0  0  0  0  0  0  0  0  0
    5.0353   -0.4732    1.5518 C   0  0  0  0  0  0  0  0  0  0  0  0
    5.7063   -0.6078    0.2390 N   0  0  0  0  0  0  0  0  0  0  0  0
    5.9430    0.6854   -0.4228 C   0  0  0  0  0  0  0  0  0  0  0  0
    5.0232   -1.5892   -0.6330 C   0  0  0  0  0  0  0  0  0  0  0  0
    3.5320   -1.2621   -0.8300 C   0  0  0  0  0  0  0  0  0  0  0  0
   -0.7495    0.2496    0.6327 C   0  0  0  0  0  0  0  0  0  0  0  0
   -3.3777   -1.9107   -0.7246 N   0  0  0  0  0  0  0  0  0  0  0  0
   -6.4773   -3.0664    0.0367 H   0  0  0  0  0  0  0  0  0  0  0  0
   -5.0065   -4.1129   -0.0624 H   0  0  0  0  0  0  0  0  0  0  0  0
   -5.6692   -3.3395   -1.5590 H   0  0  0  0  0  0  0  0  0  0  0  0
   -3.1196    1.1320    1.9849 H   0  0  0  0  0  0  0  0  0  0  0  0
   -4.6291    2.3990   -0.4082 H   0  0  0  0  0  0  0  0  0  0  0  0
   -2.8412    2.4447   -0.1088 H   0  0  0  0  0  0  0  0  0  0  0  0
   -3.9151    3.3091    0.9796 H   0  0  0  0  0  0  0  0  0  0  0  0
   -6.1390    1.3025    1.4143 H   0  0  0  0  0  0  0  0  0  0  0  0
   -5.2309    2.1970    2.6930 H   0  0  0  0  0  0  0  0  0  0  0  0
   -5.3436    0.4070    2.7700 H   0  0  0  0  0  0  0  0  0  0  0  0
   -1.0307   -1.1360   -0.9330 H   0  0  0  0  0  0  0  0  0  0  0  0
   -2.3796    1.4083   -1.8754 H   0  0  0  0  0  0  0  0  0  0  0  0
   -1.4582    0.1577   -2.6975 H   0  0  0  0  0  0  0  0  0  0  0  0
   -0.4298    2.5159   -0.9639 H   0  0  0  0  0  0  0  0  0  0  0  0
   -0.0674    2.1501   -2.6831 H   0  0  0  0  0  0  0  0  0  0  0  0
    1.0737    0.0520   -1.9020 H   0  0  0  0  0  0  0  0  0  0  0  0
    2.0050    2.4812   -0.6960 H   0  0  0  0  0  0  0  0  0  0  0  0
    1.1675    1.0475    1.0275 H   0  0  0  0  0  0  0  0  0  0  0  0
    0.9724   -1.7052   -0.2017 H   0  0  0  0  0  0  0  0  0  0  0  0
    2.9887   -2.1528    1.0396 H   0  0  0  0  0  0  0  0  0  0  0  0
    3.0809   -0.0913    2.4285 H   0  0  0  0  0  0  0  0  0  0  0  0
    3.4468    0.8953    0.9694 H   0  0  0  0  0  0  0  0  0  0  0  0
    5.1196   -1.4429    2.0910 H   0  0  0  0  0  0  0  0  0  0  0  0
    5.5541    0.2855    2.1772 H   0  0  0  0  0  0  0  0  0  0  0  0
    6.5479    1.3417    0.2385 H   0  0  0  0  0  0  0  0  0  0  0  0
    4.9987    1.2069   -0.6760 H   0  0  0  0  0  0  0  0  0  0  0  0
    6.5266    0.5313   -1.3554 H   0  0  0  0  0  0  0  0  0  0  0  0
    5.1069   -2.5955   -0.1660 H   0  0  0  0  0  0  0  0  0  0  0  0
    5.5304   -1.6524   -1.6206 H   0  0  0  0  0  0  0  0  0  0  0  0
    3.0631   -2.0653   -1.4383 H   0  0  0  0  0  0  0  0  0  0  0  0
    3.4438   -0.3195   -1.3932 H   0  0  0  0  0  0  0  0  0  0  0  0
   -1.1222    1.2545    0.9149 H   0  0  0  0  0  0  0  0  0  0  0  0
   -0.8714   -0.4110    1.5192 H   0  0  0  0  0  0  0  0  0  0  0  0
  1  2  1  0  0  0  0
  1 25  1  0  0  0  0
  1 26  1  0  0  0  0
  1 27  1  0  0  0  0
  2  3  2  0  0  0  0
  3  4  1  0  0  0  0
  4  5  1  0  0  0  0
  4  8  1  0  0  0  0
  5  6  1  0  0  0  0
  5  7  1  0  0  0  0
  5 28  1  0  0  0  0
  6 29  1  0  0  0  0
  6 30  1  0  0  0  0
  6 31  1  0  0  0  0
  7 32  1  0  0  0  0
  7 33  1  0  0  0  0
  7 34  1  0  0  0  0
  8 24  2  0  0  0  0
  9  8  1  0  0  0  0
  9 10  1  0  0  0  0
  9 35  1  6  0  0  0
 10 11  1  0  0  0  0
 10 36  1  0  0  0  0
 10 37  1  0  0  0  0
 11 12  1  0  0  0  0
 11 38  1  0  0  0  0
 11 39  1  0  0  0  0
 12 13  1  0  0  0  0
 12 14  1  0  0  0  0
 12 40  1  6  0  0  0
 13 41  1  0  0  0  0
 14 15  1  0  0  0  0
 14 23  1  0  0  0  0
 14 42  1  1  0  0  0
 15 16  1  0  0  0  0
 15 43  1  0  0  0  0
 16 17  1  0  0  0  0
 16 44  1  0  0  0  0
 17 18  1  0  0  0  0
 17 45  1  0  0  0  0
 17 46  1  0  0  0  0
 18 19  1  0  0  0  0
 18 47  1  0  0  0  0
 18 48  1  0  0  0  0
 19 20  1  0  0  0  0
 19 21  1  0  0  0  0
 20 49  1  0  0  0  0
 20 50  1  0  0  0  0
 20 51  1  0  0  0  0
 21 22  1  0  0  0  0
 21 52  1  0  0  0  0
 21 53  1  0  0  0  0
 22 16  1  0  0  0  0
 22 54  1  0  0  0  0
 22 55  1  0  0  0  0
 23  9  1  0  0  0  0
 23 56  1  0  0  0  0
 23 57  1  0  0  0  0
 24  2  1  0  0  0  0
M  END
>  <IDENTIFIER>
CNP0514137.1

>  <Energy>
624.657

$$$$
