
 OpenBabel09052519373D

 48 51  0  0  0  0  0  0  0  0999 V2000
    7.0258    1.2167    0.9875 C   0  0  0  0  0  0  0  0  0  0  0  0
    5.6790    1.0960    1.2606 O   0  0  0  0  0  0  0  0  0  0  0  0
    4.7245    0.6601    0.3952 C   0  0  0  0  0  0  0  0  0  0  0  0
    5.0340    0.2591   -0.9191 C   0  0  0  0  0  0  0  0  0  0  0  0
    4.0315   -0.1862   -1.7775 C   0  0  0  0  0  0  0  0  0  0  0  0
    2.7035   -0.2276   -1.3447 C   0  0  0  0  0  0  0  0  0  0  0  0
    1.6081   -0.7238   -2.2471 C   0  0  0  0  0  0  0  0  0  0  0  0
    0.7351   -1.7346   -1.4856 C   0  0  0  0  0  0  0  0  0  0  0  0
    0.4154   -1.3099   -0.0925 N   0  0  2  0  0  0  0  0  0  0  0  0
   -0.9391   -1.6443    0.3919 C   0  0  0  0  0  0  0  0  0  0  0  0
   -1.9032   -0.4684    0.3504 C   0  0  0  0  0  0  0  0  0  0  0  0
   -3.2782   -0.7026    0.5895 C   0  0  0  0  0  0  0  0  0  0  0  0
   -3.6492   -1.9812    0.8901 O   0  0  0  0  0  0  0  0  0  0  0  0
   -4.9034   -2.4549    1.2124 C   0  0  0  0  0  0  0  0  0  0  0  0
   -4.2000    0.3774    0.5009 C   0  0  0  0  0  0  0  0  0  0  0  0
   -5.5246    0.1588    0.7137 O   0  0  0  0  0  0  0  0  0  0  0  0
   -6.5345    1.0958    0.6259 C   0  0  0  0  0  0  0  0  0  0  0  0
   -3.7210    1.6629    0.1833 C   0  0  0  0  0  0  0  0  0  0  0  0
   -2.3655    1.8875   -0.0248 C   0  0  0  0  0  0  0  0  0  0  0  0
   -1.4467    0.8403    0.0712 C   0  0  0  0  0  0  0  0  0  0  0  0
    0.0150    1.1533   -0.1170 C   0  0  0  0  0  0  0  0  0  0  0  0
    0.9093   -0.0020    0.3756 C   0  0  2  0  0  0  0  0  0  0  0  0
    2.3666    0.1669   -0.0327 C   0  0  0  0  0  0  0  0  0  0  0  0
    3.3929    0.6085    0.8450 C   0  0  0  0  0  0  0  0  0  0  0  0
    3.1467    0.9982    2.1172 O   0  0  0  0  0  0  0  0  0  0  0  0
    7.5458    1.5954    1.8911 H   0  0  0  0  0  0  0  0  0  0  0  0
    7.1854    1.9385    0.1583 H   0  0  0  0  0  0  0  0  0  0  0  0
    7.4544    0.2269    0.7215 H   0  0  0  0  0  0  0  0  0  0  0  0
    6.0508    0.2844   -1.2870 H   0  0  0  0  0  0  0  0  0  0  0  0
    4.2913   -0.4959   -2.7822 H   0  0  0  0  0  0  0  0  0  0  0  0
    1.9902   -1.1534   -3.1983 H   0  0  0  0  0  0  0  0  0  0  0  0
    0.9787    0.1301   -2.5440 H   0  0  0  0  0  0  0  0  0  0  0  0
    1.2989   -2.6887   -1.4080 H   0  0  0  0  0  0  0  0  0  0  0  0
   -0.1796   -1.9302   -2.0879 H   0  0  0  0  0  0  0  0  0  0  0  0
   -0.8789   -2.0089    1.4394 H   0  0  0  0  0  0  0  0  0  0  0  0
   -1.3477   -2.4827   -0.2147 H   0  0  0  0  0  0  0  0  0  0  0  0
   -4.8344   -3.5432    1.4148 H   0  0  0  0  0  0  0  0  0  0  0  0
   -5.6054   -2.3054    0.3656 H   0  0  0  0  0  0  0  0  0  0  0  0
   -5.2774   -1.9551    2.1315 H   0  0  0  0  0  0  0  0  0  0  0  0
   -7.5033    0.6051    0.8511 H   0  0  0  0  0  0  0  0  0  0  0  0
   -6.5810    1.5127   -0.4030 H   0  0  0  0  0  0  0  0  0  0  0  0
   -6.3702    1.9098    1.3629 H   0  0  0  0  0  0  0  0  0  0  0  0
   -4.3921    2.5073    0.1039 H   0  0  0  0  0  0  0  0  0  0  0  0
   -2.0261    2.8921   -0.2491 H   0  0  0  0  0  0  0  0  0  0  0  0
    0.2940    2.0426    0.4906 H   0  0  0  0  0  0  0  0  0  0  0  0
    0.1561    1.4427   -1.1707 H   0  0  0  0  0  0  0  0  0  0  0  0
    0.8082   -0.0110    1.4784 H   0  0  0  0  0  0  0  0  0  0  0  0
    2.2751    1.0515    2.5252 H   0  0  0  0  0  0  0  0  0  0  0  0
  1  2  1  0  0  0  0
  1 26  1  0  0  0  0
  1 27  1  0  0  0  0
  1 28  1  0  0  0  0
  2  3  1  0  0  0  0
  3  4  2  0  0  0  0
  4  5  1  0  0  0  0
  4 29  1  0  0  0  0
  5  6  2  0  0  0  0
  5 30  1  0  0  0  0
  6  7  1  0  0  0  0
  7  8  1  0  0  0  0
  7 31  1  0  0  0  0
  7 32  1  0  0  0  0
  8 33  1  0  0  0  0
  8 34  1  0  0  0  0
  9  8  1  6  0  0  0
  9 10  1  0  0  0  0
 10 11  1  0  0  0  0
 10 35  1  0  0  0  0
 10 36  1  0  0  0  0
 11 12  2  0  0  0  0
 12 13  1  0  0  0  0
 12 15  1  0  0  0  0
 13 14  1  0  0  0  0
 14 37  1  0  0  0  0
 14 38  1  0  0  0  0
 14 39  1  0  0  0  0
 15 16  1  0  0  0  0
 15 18  2  0  0  0  0
 16 17  1  0  0  0  0
 17 40  1  0  0  0  0
 17 41  1  0  0  0  0
 17 42  1  0  0  0  0
 18 19  1  0  0  0  0
 18 43  1  0  0  0  0
 19 20  2  0  0  0  0
 19 44  1  0  0  0  0
 20 21  1  0  0  0  0
 20 11  1  0  0  0  0
 21 45  1  0  0  0  0
 21 46  1  0  0  0  0
 22 21  1  0  0  0  0
 22 23  1  0  0  0  0
 22  9  1  0  0  0  0
 22 47  1  1  0  0  0
 23 24  2  0  0  0  0
 23  6  1  0  0  0  0
 24 25  1  0  0  0  0
 24  3  1  0  0  0  0
 25 48  1  0  0  0  0
M  END
>  <IDENTIFIER>
CNP0104142.1

>  <Energy>
416.598

$$$$
