
 OpenBabel09052507443D

 65 67  0  0  0  0  0  0  0  0999 V2000
   -0.4001   -4.8611   -0.1493 C   0  0  0  0  0  0  0  0  0  0  0  0
   -0.4135   -3.8663   -1.1480 O   0  0  0  0  0  0  0  0  0  0  0  0
   -0.3794   -2.5704   -0.5736 C   0  0  1  0  0  0  0  0  0  0  0  0
    0.9506   -2.0538   -0.7002 O   0  0  0  0  0  0  0  0  0  0  0  0
    1.0487   -0.8338   -1.4280 C   0  0  2  0  0  0  0  0  0  0  0  0
    2.5184   -0.3814   -1.4454 C   0  0  0  0  0  0  0  0  0  0  0  0
    3.0237   -0.1675   -0.1389 O   0  0  0  0  0  0  0  0  0  0  0  0
    4.3908    0.2271   -0.2037 C   0  0  1  0  0  0  0  0  0  0  0  0
    4.4705    1.6416   -0.0645 O   0  0  0  0  0  0  0  0  0  0  0  0
    5.8123    2.0839   -0.2254 C   0  0  0  0  0  0  0  0  0  0  0  0
    6.7297    1.5225    0.8916 C   0  0  1  0  0  0  0  0  0  0  0  0
    6.3828    2.0604    2.1476 O   0  0  0  0  0  0  0  0  0  0  0  0
    6.6520   -0.0223    0.9225 C   0  0  2  0  0  0  0  0  0  0  0  0
    7.3458   -0.6047   -0.1597 O   0  0  0  0  0  0  0  0  0  0  0  0
    5.1690   -0.4630    0.9462 C   0  0  2  0  0  0  0  0  0  0  0  0
    5.0557   -1.8615    0.8948 O   0  0  0  0  0  0  0  0  0  0  0  0
    0.0932    0.2354   -0.8243 C   0  0  1  0  0  0  0  0  0  0  0  0
    0.2120    1.4812   -1.4628 O   0  0  0  0  0  0  0  0  0  0  0  0
   -1.3937   -0.2372   -0.8071 C   0  0  2  0  0  0  0  0  0  0  0  0
   -1.8756   -0.1004    0.5209 O   0  0  0  0  0  0  0  0  0  0  0  0
   -3.1096    0.5926    0.6342 C   0  0  1  0  0  0  0  0  0  0  0  0
   -4.1761   -0.3359    0.5466 O   0  0  0  0  0  0  0  0  0  0  0  0
   -5.4789    0.2440    0.7060 C   0  0  2  0  0  0  0  0  0  0  0  0
   -6.1989    0.4037   -0.6413 C   0  0  0  0  0  0  0  0  0  0  0  0
   -5.5408    1.3344   -1.4604 O   0  0  0  0  0  0  0  0  0  0  0  0
   -5.5283    1.5591    1.5475 C   0  0  1  0  0  0  0  0  0  0  0  0
   -6.8203    1.7752    2.0637 O   0  0  0  0  0  0  0  0  0  0  0  0
   -4.4801    1.4284    2.6540 C   0  0  2  0  0  0  0  0  0  0  0  0
   -4.5381    2.4521    3.6154 O   0  0  0  0  0  0  0  0  0  0  0  0
   -3.0786    1.3222    2.0098 C   0  0  2  0  0  0  0  0  0  0  0  0
   -2.4607    2.5798    1.8530 O   0  0  0  0  0  0  0  0  0  0  0  0
   -1.4761   -1.7156   -1.2619 C   0  0  2  0  0  0  0  0  0  0  0  0
   -2.7655   -2.2465   -1.0858 O   0  0  0  0  0  0  0  0  0  0  0  0
   -0.2458   -5.8451   -0.6383 H   0  0  0  0  0  0  0  0  0  0  0  0
   -1.3786   -4.8955    0.3775 H   0  0  0  0  0  0  0  0  0  0  0  0
    0.4439   -4.7197    0.5626 H   0  0  0  0  0  0  0  0  0  0  0  0
   -0.6282   -2.5639    0.5166 H   0  0  0  0  0  0  0  0  0  0  0  0
    0.7924   -1.0144   -2.4952 H   0  0  0  0  0  0  0  0  0  0  0  0
    2.6012    0.5494   -2.0508 H   0  0  0  0  0  0  0  0  0  0  0  0
    3.0907   -1.2007   -1.9402 H   0  0  0  0  0  0  0  0  0  0  0  0
    4.8621   -0.0879   -1.1682 H   0  0  0  0  0  0  0  0  0  0  0  0
    5.8326    3.1933   -0.1743 H   0  0  0  0  0  0  0  0  0  0  0  0
    6.1802    1.8288   -1.2427 H   0  0  0  0  0  0  0  0  0  0  0  0
    7.7788    1.8342    0.6958 H   0  0  0  0  0  0  0  0  0  0  0  0
    5.3986    2.0182    2.2579 H   0  0  0  0  0  0  0  0  0  0  0  0
    7.1650   -0.3855    1.8407 H   0  0  0  0  0  0  0  0  0  0  0  0
    7.0919   -0.1595   -1.0043 H   0  0  0  0  0  0  0  0  0  0  0  0
    4.7097   -0.1273    1.9003 H   0  0  0  0  0  0  0  0  0  0  0  0
    5.3114   -2.1554   -0.0185 H   0  0  0  0  0  0  0  0  0  0  0  0
    0.4341    0.3627    0.2275 H   0  0  0  0  0  0  0  0  0  0  0  0
    0.0313    1.3323   -2.4276 H   0  0  0  0  0  0  0  0  0  0  0  0
   -1.9884    0.3302   -1.5589 H   0  0  0  0  0  0  0  0  0  0  0  0
   -3.2544    1.3562   -0.1660 H   0  0  0  0  0  0  0  0  0  0  0  0
   -6.0405   -0.5166    1.2922 H   0  0  0  0  0  0  0  0  0  0  0  0
   -7.2610    0.7045   -0.4766 H   0  0  0  0  0  0  0  0  0  0  0  0
   -6.2265   -0.5719   -1.1696 H   0  0  0  0  0  0  0  0  0  0  0  0
   -5.9906    2.2098   -1.3272 H   0  0  0  0  0  0  0  0  0  0  0  0
   -5.2526    2.4427    0.9344 H   0  0  0  0  0  0  0  0  0  0  0  0
   -7.0077    1.0581    2.7262 H   0  0  0  0  0  0  0  0  0  0  0  0
   -4.7055    0.4684    3.1738 H   0  0  0  0  0  0  0  0  0  0  0  0
   -4.6033    3.3183    3.1356 H   0  0  0  0  0  0  0  0  0  0  0  0
   -2.4736    0.7509    2.7465 H   0  0  0  0  0  0  0  0  0  0  0  0
   -3.0439    3.1367    1.2745 H   0  0  0  0  0  0  0  0  0  0  0  0
   -1.2672   -1.7508   -2.3533 H   0  0  0  0  0  0  0  0  0  0  0  0
   -2.8735   -2.4725   -0.1259 H   0  0  0  0  0  0  0  0  0  0  0  0
  1  2  1  0  0  0  0
  1 34  1  0  0  0  0
  1 35  1  0  0  0  0
  1 36  1  0  0  0  0
  3  2  1  0  0  0  0
  3  4  1  0  0  0  0
  3 37  1  1  0  0  0
  4  5  1  0  0  0  0
  5  6  1  0  0  0  0
  5 17  1  0  0  0  0
  5 38  1  6  0  0  0
  6  7  1  0  0  0  0
  6 39  1  0  0  0  0
  6 40  1  0  0  0  0
  8  7  1  0  0  0  0
  8  9  1  0  0  0  0
  8 41  1  6  0  0  0
  9 10  1  0  0  0  0
 10 11  1  0  0  0  0
 10 42  1  0  0  0  0
 10 43  1  0  0  0  0
 11 12  1  0  0  0  0
 11 13  1  0  0  0  0
 11 44  1  6  0  0  0
 12 45  1  0  0  0  0
 13 14  1  0  0  0  0
 13 15  1  0  0  0  0
 13 46  1  1  0  0  0
 14 47  1  0  0  0  0
 15 16  1  0  0  0  0
 15  8  1  0  0  0  0
 15 48  1  1  0  0  0
 16 49  1  0  0  0  0
 17 18  1  0  0  0  0
 17 19  1  0  0  0  0
 17 50  1  1  0  0  0
 18 51  1  0  0  0  0
 19 20  1  0  0  0  0
 19 32  1  0  0  0  0
 19 52  1  6  0  0  0
 21 20  1  0  0  0  0
 21 22  1  0  0  0  0
 21 53  1  6  0  0  0
 22 23  1  0  0  0  0
 23 24  1  0  0  0  0
 23 26  1  0  0  0  0
 23 54  1  1  0  0  0
 24 25  1  0  0  0  0
 24 55  1  0  0  0  0
 24 56  1  0  0  0  0
 25 57  1  0  0  0  0
 26 27  1  0  0  0  0
 26 28  1  0  0  0  0
 26 58  1  6  0  0  0
 27 59  1  0  0  0  0
 28 29  1  0  0  0  0
 28 30  1  0  0  0  0
 28 60  1  1  0  0  0
 29 61  1  0  0  0  0
 30 31  1  0  0  0  0
 30 21  1  0  0  0  0
 30 62  1  1  0  0  0
 31 63  1  0  0  0  0
 32 33  1  0  0  0  0
 32  3  1  0  0  0  0
 32 64  1  6  0  0  0
 33 65  1  0  0  0  0
M  END
>  <IDENTIFIER>
CNP0002319.1

>  <Energy>
896.895

$$$$
