
 OpenBabel09082503383D

111117  0  0  0  0  0  0  0  0999 V2000
    2.6157   -4.1646    0.0816 C   0  0  0  0  0  0  0  0  0  0  0  0
    2.6845   -3.3504    1.1596 C   0  0  0  0  0  0  0  0  0  0  0  0
    1.4431   -2.9072    1.9282 C   0  0  0  0  0  0  0  0  0  0  0  0
    0.1113   -3.1656    1.1970 C   0  0  0  0  0  0  0  0  0  0  0  0
   -1.0898   -2.5011    1.8903 C   0  0  0  0  0  0  0  0  0  0  0  0
   -2.3190   -2.5501    0.9709 C   0  0  0  0  0  0  0  0  0  0  0  0
   -2.7880   -3.7532    0.8564 N   0  0  0  0  0  0  0  0  0  0  0  0
   -3.8986   -4.1814    0.0531 C   0  0  0  0  0  0  0  0  0  0  0  0
   -3.5454   -4.1512   -1.4430 C   0  0  2  0  0  0  0  0  0  0  0  0
   -2.5986   -5.3166   -1.7856 C   0  0  0  0  0  0  0  0  0  0  0  0
   -2.9431   -2.7851   -1.9122 C   0  0  1  0  0  0  0  0  0  0  0  0
   -3.1309   -2.6263   -3.4309 C   0  0  0  0  0  0  0  0  0  0  0  0
   -3.5921   -1.5907   -1.1652 C   0  0  0  0  0  0  0  0  0  0  0  0
   -2.9986   -1.2750    0.2881 C   0  0  1  0  0  0  0  0  0  0  0  0
   -4.1969   -0.8632    1.1873 C   0  0  0  0  0  0  0  0  0  0  0  0
   -4.8549    0.4046    0.6360 C   0  0  0  0  0  0  0  0  0  0  0  0
   -3.9194    1.5652    0.8266 C   0  0  0  0  0  0  0  0  0  0  0  0
   -4.6337    2.8239    1.3623 C   0  0  1  0  0  0  0  0  0  0  0  0
   -3.8568    4.0868    1.6680 C   0  0  0  0  0  0  0  0  0  0  0  0
   -4.3123    5.0803    0.9230 C   0  0  0  0  0  0  0  0  0  0  0  0
   -3.8340    6.4993    0.9376 C   0  0  0  0  0  0  0  0  0  0  0  0
   -5.3757    4.5296    0.1214 C   0  0  0  0  0  0  0  0  0  0  0  0
   -6.0493    5.1455   -0.6885 O   0  0  0  0  0  0  0  0  0  0  0  0
   -5.5627    3.2342    0.4164 O   0  0  0  0  0  0  0  0  0  0  0  0
   -2.5780    1.3687    0.6005 C   0  0  0  0  0  0  0  0  0  0  0  0
   -1.5691    2.4160    0.9992 C   0  0  0  0  0  0  0  0  0  0  0  0
   -1.9907   -0.0108    0.1809 C   0  0  2  0  0  0  0  0  0  0  0  0
   -1.0561   -0.1820   -1.0481 C   0  0  0  0  0  0  0  0  0  0  0  0
   -0.6169    0.5178   -2.1528 C   0  0  0  0  0  0  0  0  0  0  0  0
    0.3076   -0.2302   -3.1074 C   0  0  0  0  0  0  0  0  0  0  0  0
   -0.9149    1.9563   -2.5907 C   0  0  1  0  0  0  0  0  0  0  0  0
   -1.8921    2.5452   -1.7890 O   0  0  0  0  0  0  0  0  0  0  0  0
    0.3846    2.8466   -2.6331 C   0  0  0  0  0  0  0  0  0  0  0  0
    1.1054    2.8745   -1.2742 C   0  0  2  0  0  0  0  0  0  0  0  0
    2.3122    3.7734   -1.0902 C   0  0  0  0  0  0  0  0  0  0  0  0
    2.7251    3.2602    0.2782 C   0  0  0  0  0  0  0  0  0  0  0  0
    2.5876    1.7486    0.0350 C   0  0  2  0  0  0  0  0  0  0  0  0
    2.2260    0.9020    1.2449 C   0  0  0  0  0  0  0  0  0  0  0  0
    3.5641    0.6361    1.8123 C   0  0  0  0  0  0  0  0  0  0  0  0
    4.3658    0.3559    0.5196 C   0  0  2  0  0  0  0  0  0  0  0  0
    4.0858   -0.9618    0.0031 O   0  0  0  0  0  0  0  0  0  0  0  0
    4.8127   -2.0859    0.5259 C   0  0  1  0  0  0  0  0  0  0  0  0
    6.2909   -1.8209    0.8621 C   0  0  0  0  0  0  0  0  0  0  0  0
    6.4824   -0.5095    1.5919 C   0  0  0  0  0  0  0  0  0  0  0  0
    5.9092    0.6119    0.7001 C   0  0  2  0  0  0  0  0  0  0  0  0
    6.2517    1.9861    1.3294 C   0  0  0  0  0  0  0  0  0  0  0  0
    6.4999    0.5747   -0.5813 O   0  0  0  0  0  0  0  0  0  0  0  0
    4.0466   -2.8608    1.6351 C   0  0  0  0  0  0  0  0  0  0  0  0
    3.8378    1.2633   -0.4533 O   0  0  0  0  0  0  0  0  0  0  0  0
    1.5600    1.5836   -0.9234 O   0  0  0  0  0  0  0  0  0  0  0  0
    1.6828   -4.5510   -0.3081 H   0  0  0  0  0  0  0  0  0  0  0  0
    3.5069   -4.4861   -0.4451 H   0  0  0  0  0  0  0  0  0  0  0  0
    1.5263   -1.8154    2.0657 H   0  0  0  0  0  0  0  0  0  0  0  0
    1.4417   -3.3626    2.9405 H   0  0  0  0  0  0  0  0  0  0  0  0
   -0.0821   -4.2525    1.0709 H   0  0  0  0  0  0  0  0  0  0  0  0
    0.2228   -2.7109    0.1960 H   0  0  0  0  0  0  0  0  0  0  0  0
   -0.7895   -1.5051    2.2245 H   0  0  0  0  0  0  0  0  0  0  0  0
   -1.3138   -3.0200    2.8476 H   0  0  0  0  0  0  0  0  0  0  0  0
   -4.7886   -3.5673    0.2749 H   0  0  0  0  0  0  0  0  0  0  0  0
   -4.1852   -5.2146    0.3438 H   0  0  0  0  0  0  0  0  0  0  0  0
   -4.5145   -4.3301   -1.9616 H   0  0  0  0  0  0  0  0  0  0  0  0
   -1.6271   -5.1975   -1.2593 H   0  0  0  0  0  0  0  0  0  0  0  0
   -2.4098   -5.3794   -2.8753 H   0  0  0  0  0  0  0  0  0  0  0  0
   -3.0514   -6.2821   -1.4737 H   0  0  0  0  0  0  0  0  0  0  0  0
   -1.8551   -2.7659   -1.7184 H   0  0  0  0  0  0  0  0  0  0  0  0
   -4.2107   -2.6250   -3.6928 H   0  0  0  0  0  0  0  0  0  0  0  0
   -2.6291   -3.4435   -3.9866 H   0  0  0  0  0  0  0  0  0  0  0  0
   -2.6806   -1.6705   -3.7723 H   0  0  0  0  0  0  0  0  0  0  0  0
   -4.6831   -1.8080   -1.1525 H   0  0  0  0  0  0  0  0  0  0  0  0
   -3.5206   -0.6583   -1.7676 H   0  0  0  0  0  0  0  0  0  0  0  0
   -3.8679   -0.6843    2.2360 H   0  0  0  0  0  0  0  0  0  0  0  0
   -4.9594   -1.6628    1.2228 H   0  0  0  0  0  0  0  0  0  0  0  0
   -5.8075    0.5834    1.1813 H   0  0  0  0  0  0  0  0  0  0  0  0
   -5.1366    0.3142   -0.4310 H   0  0  0  0  0  0  0  0  0  0  0  0
   -5.1625    2.5412    2.2988 H   0  0  0  0  0  0  0  0  0  0  0  0
   -3.0750    4.2013    2.4044 H   0  0  0  0  0  0  0  0  0  0  0  0
   -3.0088    6.6297    1.6698 H   0  0  0  0  0  0  0  0  0  0  0  0
   -4.6735    7.1679    1.2226 H   0  0  0  0  0  0  0  0  0  0  0  0
   -3.4693    6.7800   -0.0717 H   0  0  0  0  0  0  0  0  0  0  0  0
   -1.6927    3.3672    0.4463 H   0  0  0  0  0  0  0  0  0  0  0  0
   -0.5480    2.0225    0.8683 H   0  0  0  0  0  0  0  0  0  0  0  0
   -1.6462    2.5954    2.0892 H   0  0  0  0  0  0  0  0  0  0  0  0
   -1.3138   -0.0888    1.0154 H   0  0  0  0  0  0  0  0  0  0  0  0
   -0.6361   -1.1669   -0.9947 H   0  0  0  0  0  0  0  0  0  0  0  0
    0.5000   -1.2832   -2.8117 H   0  0  0  0  0  0  0  0  0  0  0  0
    1.2965    0.2619   -3.1808 H   0  0  0  0  0  0  0  0  0  0  0  0
   -0.1542   -0.2557   -4.1172 H   0  0  0  0  0  0  0  0  0  0  0  0
   -1.3305    1.8948   -3.6240 H   0  0  0  0  0  0  0  0  0  0  0  0
   -2.2412    3.3337   -2.2816 H   0  0  0  0  0  0  0  0  0  0  0  0
    0.0959    3.8803   -2.9218 H   0  0  0  0  0  0  0  0  0  0  0  0
    1.0896    2.4789   -3.4069 H   0  0  0  0  0  0  0  0  0  0  0  0
    0.3515    3.2355   -0.5611 H   0  0  0  0  0  0  0  0  0  0  0  0
    2.0845    4.8603   -1.1179 H   0  0  0  0  0  0  0  0  0  0  0  0
    3.0907    3.5277   -1.8479 H   0  0  0  0  0  0  0  0  0  0  0  0
    1.9543    3.5917    1.0128 H   0  0  0  0  0  0  0  0  0  0  0  0
    3.7103    3.6029    0.6499 H   0  0  0  0  0  0  0  0  0  0  0  0
    1.8252   -0.0600    0.8581 H   0  0  0  0  0  0  0  0  0  0  0  0
    1.4747    1.3385    1.9340 H   0  0  0  0  0  0  0  0  0  0  0  0
    3.5928   -0.1373    2.5980 H   0  0  0  0  0  0  0  0  0  0  0  0
    3.8543    1.5939    2.2852 H   0  0  0  0  0  0  0  0  0  0  0  0
    4.8987   -2.8085   -0.3093 H   0  0  0  0  0  0  0  0  0  0  0  0
    6.8610   -1.7566   -0.0903 H   0  0  0  0  0  0  0  0  0  0  0  0
    6.7323   -2.6749    1.4216 H   0  0  0  0  0  0  0  0  0  0  0  0
    7.5718   -0.3562    1.7596 H   0  0  0  0  0  0  0  0  0  0  0  0
    5.9851   -0.5334    2.5856 H   0  0  0  0  0  0  0  0  0  0  0  0
    7.3543    2.1185    1.3739 H   0  0  0  0  0  0  0  0  0  0  0  0
    5.9005    2.0817    2.3755 H   0  0  0  0  0  0  0  0  0  0  0  0
    5.8423    2.8100    0.7134 H   0  0  0  0  0  0  0  0  0  0  0  0
    7.4858    0.6387   -0.4722 H   0  0  0  0  0  0  0  0  0  0  0  0
    3.9479   -2.2473    2.5496 H   0  0  0  0  0  0  0  0  0  0  0  0
    4.6399   -3.7571    1.9184 H   0  0  0  0  0  0  0  0  0  0  0  0
  1  2  2  0  0  0  0
  1 51  1  0  0  0  0
  1 52  1  0  0  0  0
  2  3  1  0  0  0  0
  3  4  1  0  0  0  0
  3 53  1  0  0  0  0
  3 54  1  0  0  0  0
  4  5  1  0  0  0  0
  4 55  1  0  0  0  0
  4 56  1  0  0  0  0
  5  6  1  0  0  0  0
  5 57  1  0  0  0  0
  5 58  1  0  0  0  0
  6  7  2  0  0  0  0
  7  8  1  0  0  0  0
  8  9  1  0  0  0  0
  8 59  1  0  0  0  0
  8 60  1  0  0  0  0
  9 10  1  0  0  0  0
  9 11  1  0  0  0  0
  9 61  1  6  0  0  0
 10 62  1  0  0  0  0
 10 63  1  0  0  0  0
 10 64  1  0  0  0  0
 11 12  1  0  0  0  0
 11 13  1  0  0  0  0
 11 65  1  1  0  0  0
 12 66  1  0  0  0  0
 12 67  1  0  0  0  0
 12 68  1  0  0  0  0
 13 69  1  0  0  0  0
 13 70  1  0  0  0  0
 14 13  1  0  0  0  0
 14 15  1  0  0  0  0
 14  6  1  1  0  0  0
 15 16  1  0  0  0  0
 15 71  1  0  0  0  0
 15 72  1  0  0  0  0
 16 17  1  0  0  0  0
 16 73  1  0  0  0  0
 16 74  1  0  0  0  0
 17 25  2  0  0  0  0
 18 17  1  0  0  0  0
 18 19  1  0  0  0  0
 18 75  1  1  0  0  0
 19 20  2  0  0  0  0
 19 76  1  0  0  0  0
 20 21  1  0  0  0  0
 20 22  1  0  0  0  0
 21 77  1  0  0  0  0
 21 78  1  0  0  0  0
 21 79  1  0  0  0  0
 22 23  2  0  0  0  0
 22 24  1  0  0  0  0
 24 18  1  0  0  0  0
 25 26  1  0  0  0  0
 26 80  1  0  0  0  0
 26 81  1  0  0  0  0
 26 82  1  0  0  0  0
 27 25  1  0  0  0  0
 27 28  1  0  0  0  0
 27 14  1  0  0  0  0
 27 83  1  1  0  0  0
 28 29  2  0  0  0  0
 28 84  1  0  0  0  0
 29 30  1  0  0  0  0
 29 31  1  0  0  0  0
 30 85  1  0  0  0  0
 30 86  1  0  0  0  0
 30 87  1  0  0  0  0
 31 32  1  0  0  0  0
 31 33  1  0  0  0  0
 31 88  1  6  0  0  0
 32 89  1  0  0  0  0
 33 90  1  0  0  0  0
 33 91  1  0  0  0  0
 34 33  1  0  0  0  0
 34 35  1  0  0  0  0
 34 92  1  1  0  0  0
 35 36  1  0  0  0  0
 35 93  1  0  0  0  0
 35 94  1  0  0  0  0
 36 95  1  0  0  0  0
 36 96  1  0  0  0  0
 37 36  1  0  0  0  0
 37 38  1  0  0  0  0
 37 50  1  6  0  0  0
 38 39  1  0  0  0  0
 38 97  1  0  0  0  0
 38 98  1  0  0  0  0
 39 99  1  0  0  0  0
 39100  1  0  0  0  0
 40 39  1  0  0  0  0
 40 41  1  6  0  0  0
 40 49  1  0  0  0  0
 41 42  1  0  0  0  0
 42 43  1  0  0  0  0
 42 48  1  0  0  0  0
 42101  1  6  0  0  0
 43 44  1  0  0  0  0
 43102  1  0  0  0  0
 43103  1  0  0  0  0
 44 45  1  0  0  0  0
 44104  1  0  0  0  0
 44105  1  0  0  0  0
 45 46  1  0  0  0  0
 45 47  1  6  0  0  0
 45 40  1  0  0  0  0
 46106  1  0  0  0  0
 46107  1  0  0  0  0
 46108  1  0  0  0  0
 47109  1  0  0  0  0
 48  2  1  0  0  0  0
 48110  1  0  0  0  0
 48111  1  0  0  0  0
 49 37  1  0  0  0  0
 50 34  1  0  0  0  0
M  END
>  <IDENTIFIER>
CNP0289302.3

>  <Energy>
1420.78

$$$$
