
 OpenBabel09082518473D

 72 76  0  0  0  0  0  0  0  0999 V2000
   10.5413   -2.0162    0.0907 N   0  0  0  0  0  0  0  0  0  0  0  0
   10.2495   -0.7893    0.8256 C   0  0  0  0  0  0  0  0  0  0  0  0
    8.7657   -0.6532    1.0484 C   0  0  0  0  0  0  0  0  0  0  0  0
    8.0689   -1.6296    1.7661 C   0  0  0  0  0  0  0  0  0  0  0  0
    6.6996   -1.4940    1.9713 C   0  0  0  0  0  0  0  0  0  0  0  0
    6.0305   -0.3828    1.4560 C   0  0  0  0  0  0  0  0  0  0  0  0
    6.7068    0.5783    0.7470 N   0  3  0  0  0  0  0  0  0  0  0  0
    6.0226    1.7773    0.2017 C   0  0  2  0  0  0  0  0  0  0  0  0
    4.6332    1.7742    0.5313 O   0  0  0  0  0  0  0  0  0  0  0  0
    3.9252    1.5349   -0.6745 C   0  0  2  0  0  0  0  0  0  0  0  0
    2.7115    0.6278   -0.4528 C   0  0  0  0  0  0  0  0  0  0  0  0
    2.0322    0.4646   -1.6757 O   0  0  0  0  0  0  0  0  0  0  0  0
    0.4098   -0.0901   -1.3404 P   0  0  2  0  0  0  0  0  0  0  0  0
   -0.2517   -0.3377   -2.7243 O   0  0  0  0  0  0  0  0  0  0  0  0
   -0.5128    1.1426   -0.5316 O   0  0  0  0  0  0  0  0  0  0  0  0
    0.4166   -1.6096   -0.4815 O   0  0  0  0  0  0  0  0  0  0  0  0
   -1.2429   -2.1383   -0.3828 P   0  0  2  0  0  0  0  0  0  0  0  0
   -1.2655   -3.2831    0.6639 O   0  0  0  0  0  0  0  0  0  0  0  0
   -1.7784   -2.8333   -1.8834 O   0  5  0  0  0  0  0  0  0  0  0  0
   -2.2865   -0.8813    0.2429 O   0  0  0  0  0  0  0  0  0  0  0  0
   -3.5085   -0.8904   -0.4546 C   0  0  0  0  0  0  0  0  0  0  0  0
   -4.2356    0.4252   -0.1730 C   0  0  1  0  0  0  0  0  0  0  0  0
   -5.4790    0.5071   -0.8518 O   0  0  0  0  0  0  0  0  0  0  0  0
   -6.3731    1.1944    0.0204 C   0  0  1  0  0  0  0  0  0  0  0  0
   -7.4380    0.2689    0.4524 N   0  0  0  0  0  0  0  0  0  0  0  0
   -7.7601   -0.1916    1.6940 C   0  0  0  0  0  0  0  0  0  0  0  0
   -8.8414   -1.0166    1.6843 N   0  0  0  0  0  0  0  0  0  0  0  0
   -9.1980   -1.0555    0.3879 C   0  0  0  0  0  0  0  0  0  0  0  0
  -10.2521   -1.7231   -0.2261 C   0  0  0  0  0  0  0  0  0  0  0  0
  -11.1579   -2.5268    0.5056 N   0  0  0  0  0  0  0  0  0  0  0  0
  -10.3931   -1.5699   -1.5757 N   0  0  0  0  0  0  0  0  0  0  0  0
   -9.5308   -0.7879   -2.3030 C   0  0  0  0  0  0  0  0  0  0  0  0
   -8.4981   -0.1372   -1.6868 N   0  0  0  0  0  0  0  0  0  0  0  0
   -8.3582   -0.2913   -0.3473 C   0  0  0  0  0  0  0  0  0  0  0  0
   -5.5362    1.7608    1.1887 C   0  0  2  0  0  0  0  0  0  0  0  0
   -4.8512    2.9282    0.7883 O   0  0  0  0  0  0  0  0  0  0  0  0
   -4.5454    0.6365    1.3110 C   0  0  2  0  0  0  0  0  0  0  0  0
   -3.4335    0.9387    2.1195 O   0  0  0  0  0  0  0  0  0  0  0  0
    4.9427    0.9529   -1.6583 C   0  0  1  0  0  0  0  0  0  0  0  0
    4.5519    0.9829   -3.0095 O   0  0  0  0  0  0  0  0  0  0  0  0
    6.1212    1.8272   -1.3371 C   0  0  1  0  0  0  0  0  0  0  0  0
    5.8776    3.1362   -1.7964 O   0  0  0  0  0  0  0  0  0  0  0  0
    8.0577    0.4520    0.5488 C   0  0  0  0  0  0  0  0  0  0  0  0
   11.5773   -2.0952   -0.0269 H   0  0  0  0  0  0  0  0  0  0  0  0
   10.1139   -1.9533   -0.8621 H   0  0  0  0  0  0  0  0  0  0  0  0
   10.6519    0.0815    0.2606 H   0  0  0  0  0  0  0  0  0  0  0  0
   10.7599   -0.8219    1.8125 H   0  0  0  0  0  0  0  0  0  0  0  0
    8.5866   -2.4920    2.1677 H   0  0  0  0  0  0  0  0  0  0  0  0
    6.1573   -2.2461    2.5294 H   0  0  0  0  0  0  0  0  0  0  0  0
    4.9671   -0.3074    1.6368 H   0  0  0  0  0  0  0  0  0  0  0  0
    6.5143    2.6736    0.6405 H   0  0  0  0  0  0  0  0  0  0  0  0
    3.5584    2.5228   -1.0385 H   0  0  0  0  0  0  0  0  0  0  0  0
    2.0745    1.1381    0.3066 H   0  0  0  0  0  0  0  0  0  0  0  0
    3.0417   -0.3609   -0.0658 H   0  0  0  0  0  0  0  0  0  0  0  0
   -0.8224    1.7478   -1.2519 H   0  0  0  0  0  0  0  0  0  0  0  0
   -4.1331   -1.7489   -0.1233 H   0  0  0  0  0  0  0  0  0  0  0  0
   -3.3500   -0.9251   -1.5559 H   0  0  0  0  0  0  0  0  0  0  0  0
   -3.5975    1.2556   -0.5560 H   0  0  0  0  0  0  0  0  0  0  0  0
   -6.8719    2.0381   -0.5044 H   0  0  0  0  0  0  0  0  0  0  0  0
   -7.2328    0.0608    2.6038 H   0  0  0  0  0  0  0  0  0  0  0  0
  -11.0572   -2.6442    1.5238 H   0  0  0  0  0  0  0  0  0  0  0  0
  -11.9348   -3.0013    0.0222 H   0  0  0  0  0  0  0  0  0  0  0  0
   -9.6733   -0.6775   -3.3690 H   0  0  0  0  0  0  0  0  0  0  0  0
   -6.1042    1.9951    2.1147 H   0  0  0  0  0  0  0  0  0  0  0  0
   -5.5209    3.5659    0.4302 H   0  0  0  0  0  0  0  0  0  0  0  0
   -5.0435   -0.2744    1.7110 H   0  0  0  0  0  0  0  0  0  0  0  0
   -2.8578    1.5824    1.6313 H   0  0  0  0  0  0  0  0  0  0  0  0
    5.1795   -0.0984   -1.3718 H   0  0  0  0  0  0  0  0  0  0  0  0
    4.1590    1.8736   -3.1997 H   0  0  0  0  0  0  0  0  0  0  0  0
    7.0757    1.4669   -1.7799 H   0  0  0  0  0  0  0  0  0  0  0  0
    6.6368    3.6945   -1.4853 H   0  0  0  0  0  0  0  0  0  0  0  0
    8.5991    1.2150    0.0005 H   0  0  0  0  0  0  0  0  0  0  0  0
  1  2  1  0  0  0  0
  1 44  1  0  0  0  0
  1 45  1  0  0  0  0
  2  3  1  0  0  0  0
  2 46  1  0  0  0  0
  2 47  1  0  0  0  0
  3  4  2  0  0  0  0
  4  5  1  0  0  0  0
  4 48  1  0  0  0  0
  5  6  2  0  0  0  0
  5 49  1  0  0  0  0
  6  7  1  0  0  0  0
  6 50  1  0  0  0  0
  7 43  2  0  0  0  0
  8  7  1  0  0  0  0
  8  9  1  0  0  0  0
  8 51  1  1  0  0  0
  9 10  1  0  0  0  0
 10 11  1  0  0  0  0
 10 39  1  0  0  0  0
 10 52  1  6  0  0  0
 11 12  1  0  0  0  0
 11 53  1  0  0  0  0
 11 54  1  0  0  0  0
 12 13  1  0  0  0  0
 13 14  2  6  0  0  0
 13 15  1  0  0  0  0
 13 16  1  0  0  0  0
 15 55  1  0  0  0  0
 16 17  1  0  0  0  0
 17 18  2  1  0  0  0
 17 19  1  0  0  0  0
 17 20  1  0  0  0  0
 20 21  1  0  0  0  0
 21 56  1  0  0  0  0
 21 57  1  0  0  0  0
 22 21  1  0  0  0  0
 22 23  1  0  0  0  0
 22 58  1  6  0  0  0
 23 24  1  0  0  0  0
 24 25  1  0  0  0  0
 24 35  1  0  0  0  0
 24 59  1  6  0  0  0
 25 26  1  0  0  0  0
 26 27  2  0  0  0  0
 26 60  1  0  0  0  0
 27 28  1  0  0  0  0
 28 29  2  0  0  0  0
 29 30  1  0  0  0  0
 29 31  1  0  0  0  0
 30 61  1  0  0  0  0
 30 62  1  0  0  0  0
 31 32  2  0  0  0  0
 32 33  1  0  0  0  0
 32 63  1  0  0  0  0
 33 34  2  0  0  0  0
 34 25  1  0  0  0  0
 34 28  1  0  0  0  0
 35 36  1  0  0  0  0
 35 37  1  0  0  0  0
 35 64  1  1  0  0  0
 36 65  1  0  0  0  0
 37 38  1  0  0  0  0
 37 22  1  0  0  0  0
 37 66  1  1  0  0  0
 38 67  1  0  0  0  0
 39 40  1  0  0  0  0
 39 41  1  0  0  0  0
 39 68  1  1  0  0  0
 40 69  1  0  0  0  0
 41 42  1  0  0  0  0
 41  8  1  0  0  0  0
 41 70  1  6  0  0  0
 42 71  1  0  0  0  0
 43  3  1  0  0  0  0
 43 72  1  0  0  0  0
M  CHG  2   7   1  19  -1
M  END
>  <IDENTIFIER>
CNP0526045.1

>  <Energy>
1440.87

$$$$
