
 OpenBabel09132507283D

102104  0  0  0  0  0  0  0  0999 V2000
   -8.4992   -3.0053    2.3684 C   0  0  0  0  0  0  0  0  0  0  0  0
   -8.4297   -2.3533    1.0040 C   0  0  0  0  0  0  0  0  0  0  0  0
   -9.2527   -2.6796   -0.0330 C   0  0  0  0  0  0  0  0  0  0  0  0
  -10.3540   -3.7114   -0.0391 C   0  0  0  0  0  0  0  0  0  0  0  0
  -11.5680   -3.1024   -0.3811 O   0  0  0  0  0  0  0  0  0  0  0  0
   -7.3454   -1.2870    0.8754 C   0  0  0  0  0  0  0  0  0  0  0  0
   -7.2291   -0.5974   -0.4933 C   0  0  0  0  0  0  0  0  0  0  0  0
   -6.1208    0.4251   -0.4707 C   0  0  0  0  0  0  0  0  0  0  0  0
   -5.0110    0.4482   -1.2538 C   0  0  0  0  0  0  0  0  0  0  0  0
   -4.6844   -0.5883   -2.3120 C   0  0  0  0  0  0  0  0  0  0  0  0
   -4.0245    1.5513   -1.0928 C   0  0  0  0  0  0  0  0  0  0  0  0
   -4.1903    2.4072   -0.2351 O   0  0  0  0  0  0  0  0  0  0  0  0
   -2.9321    1.5880   -1.9033 O   0  0  0  0  0  0  0  0  0  0  0  0
   -1.8940    2.4962   -1.8049 C   0  0  1  0  0  0  0  0  0  0  0  0
   -0.5659    1.7456   -1.5982 C   0  0  2  0  0  0  0  0  0  0  0  0
   -0.6526    1.1314   -0.3396 O   0  0  0  0  0  0  0  0  0  0  0  0
   -0.5747   -0.2793   -0.2928 C   0  0  2  0  0  0  0  0  0  0  0  0
   -1.7834   -0.7021    0.2345 O   0  0  0  0  0  0  0  0  0  0  0  0
   -1.9831   -1.3191    1.4232 C   0  0  0  0  0  0  0  0  0  0  0  0
   -0.9716   -1.8402    2.1367 C   0  0  0  0  0  0  0  0  0  0  0  0
   -1.2919   -2.4173    3.4691 C   0  0  0  0  0  0  0  0  0  0  0  0
   -0.4318   -2.9000    4.1849 O   0  0  0  0  0  0  0  0  0  0  0  0
    0.4310   -1.8281    1.5368 C   0  0  1  0  0  0  0  0  0  0  0  0
    1.4196   -1.8216    2.5470 O   0  0  0  0  0  0  0  0  0  0  0  0
    0.6527   -2.9663    0.5347 C   0  0  0  0  0  0  0  0  0  0  0  0
    1.8443   -2.5219   -0.3198 C   0  0  0  0  0  0  0  0  0  0  0  0
    1.9636   -0.9822   -0.1305 C   0  0  2  0  0  0  0  0  0  0  0  0
    2.2493   -0.3115   -1.4982 C   0  0  0  0  0  0  0  0  0  0  0  0
    3.0472   -0.7428    0.7134 O   0  0  0  0  0  0  0  0  0  0  0  0
    3.4844    0.4840    1.1332 C   0  0  0  0  0  0  0  0  0  0  0  0
    2.8876    1.4964    0.7996 O   0  0  0  0  0  0  0  0  0  0  0  0
    4.7012    0.6008    1.9824 C   0  0  0  0  0  0  0  0  0  0  0  0
    5.2142    1.9815    2.3400 C   0  0  0  0  0  0  0  0  0  0  0  0
    5.3417   -0.5148    2.4053 C   0  0  0  0  0  0  0  0  0  0  0  0
    6.5995   -0.5155    3.2443 C   0  0  0  0  0  0  0  0  0  0  0  0
    7.7898   -1.1882    2.5388 C   0  0  0  0  0  0  0  0  0  0  0  0
    8.2450   -0.4521    1.2843 C   0  0  0  0  0  0  0  0  0  0  0  0
    7.3728   -0.4622    0.0489 C   0  0  0  0  0  0  0  0  0  0  0  0
    9.4434    0.1791    1.2868 C   0  0  0  0  0  0  0  0  0  0  0  0
   10.0279    0.9372    0.1175 C   0  0  0  0  0  0  0  0  0  0  0  0
   11.2309    0.3401   -0.2812 O   0  0  0  0  0  0  0  0  0  0  0  0
    0.6471   -0.6002    0.6338 C   0  0  1  0  0  0  0  0  0  0  0  0
    0.5077    2.6688   -1.5144 O   0  0  0  0  0  0  0  0  0  0  0  0
    0.6700    3.4144   -2.7078 C   0  0  2  0  0  0  0  0  0  0  0  0
    1.9252    4.2842   -2.5274 C   0  0  0  0  0  0  0  0  0  0  0  0
    2.2100    5.0285   -3.6788 O   0  0  0  0  0  0  0  0  0  0  0  0
   -0.5905    4.2780   -2.9735 C   0  0  1  0  0  0  0  0  0  0  0  0
   -0.4650    5.0622   -4.1325 O   0  0  0  0  0  0  0  0  0  0  0  0
   -1.8177    3.3531   -3.0740 C   0  0  2  0  0  0  0  0  0  0  0  0
   -3.0003    4.0916   -3.2620 O   0  0  0  0  0  0  0  0  0  0  0  0
   -9.2711   -3.7807    2.4874 H   0  0  0  0  0  0  0  0  0  0  0  0
   -8.6987   -2.2267    3.1342 H   0  0  0  0  0  0  0  0  0  0  0  0
   -7.5212   -3.4800    2.5950 H   0  0  0  0  0  0  0  0  0  0  0  0
   -9.1511   -2.1741   -0.9844 H   0  0  0  0  0  0  0  0  0  0  0  0
  -10.4867   -4.2857    0.8942 H   0  0  0  0  0  0  0  0  0  0  0  0
  -10.1090   -4.4586   -0.8225 H   0  0  0  0  0  0  0  0  0  0  0  0
  -11.8163   -2.5199    0.3837 H   0  0  0  0  0  0  0  0  0  0  0  0
   -6.3676   -1.7685    1.1007 H   0  0  0  0  0  0  0  0  0  0  0  0
   -7.5346   -0.5073    1.6466 H   0  0  0  0  0  0  0  0  0  0  0  0
   -8.1803   -0.0643   -0.7210 H   0  0  0  0  0  0  0  0  0  0  0  0
   -7.0815   -1.3719   -1.2576 H   0  0  0  0  0  0  0  0  0  0  0  0
   -6.2592    1.2194    0.2619 H   0  0  0  0  0  0  0  0  0  0  0  0
   -5.4081   -1.4075   -2.4303 H   0  0  0  0  0  0  0  0  0  0  0  0
   -3.7078   -1.0578   -2.0644 H   0  0  0  0  0  0  0  0  0  0  0  0
   -4.5964   -0.0861   -3.2976 H   0  0  0  0  0  0  0  0  0  0  0  0
   -2.0317    3.1818   -0.9347 H   0  0  0  0  0  0  0  0  0  0  0  0
   -0.3872    1.0272   -2.4324 H   0  0  0  0  0  0  0  0  0  0  0  0
   -0.4830   -0.7975   -1.2733 H   0  0  0  0  0  0  0  0  0  0  0  0
   -3.0008   -1.3570    1.8014 H   0  0  0  0  0  0  0  0  0  0  0  0
   -2.3166   -2.3955    3.8309 H   0  0  0  0  0  0  0  0  0  0  0  0
    1.6104   -2.7576    2.8146 H   0  0  0  0  0  0  0  0  0  0  0  0
   -0.2351   -2.9903   -0.1353 H   0  0  0  0  0  0  0  0  0  0  0  0
    0.7531   -3.9854    0.9670 H   0  0  0  0  0  0  0  0  0  0  0  0
    1.6405   -2.8463   -1.3653 H   0  0  0  0  0  0  0  0  0  0  0  0
    2.7924   -3.0045    0.0051 H   0  0  0  0  0  0  0  0  0  0  0  0
    3.2204   -0.6842   -1.8933 H   0  0  0  0  0  0  0  0  0  0  0  0
    2.3108    0.7893   -1.4290 H   0  0  0  0  0  0  0  0  0  0  0  0
    1.4806   -0.5653   -2.2541 H   0  0  0  0  0  0  0  0  0  0  0  0
    4.5944    2.7898    1.9017 H   0  0  0  0  0  0  0  0  0  0  0  0
    6.2457    2.1097    1.9479 H   0  0  0  0  0  0  0  0  0  0  0  0
    5.2107    2.1144    3.4412 H   0  0  0  0  0  0  0  0  0  0  0  0
    4.9560   -1.4918    2.1251 H   0  0  0  0  0  0  0  0  0  0  0  0
    6.3763   -1.0726    4.1789 H   0  0  0  0  0  0  0  0  0  0  0  0
    6.9164    0.5039    3.5434 H   0  0  0  0  0  0  0  0  0  0  0  0
    7.5573   -2.2448    2.2869 H   0  0  0  0  0  0  0  0  0  0  0  0
    8.6136   -1.2071    3.2868 H   0  0  0  0  0  0  0  0  0  0  0  0
    6.4663   -1.0819    0.1845 H   0  0  0  0  0  0  0  0  0  0  0  0
    7.9314   -0.9093   -0.7997 H   0  0  0  0  0  0  0  0  0  0  0  0
    7.0627    0.5723   -0.2099 H   0  0  0  0  0  0  0  0  0  0  0  0
   10.0534    0.1561    2.1857 H   0  0  0  0  0  0  0  0  0  0  0  0
   10.2010    1.9974    0.4083 H   0  0  0  0  0  0  0  0  0  0  0  0
    9.3553    0.9674   -0.7614 H   0  0  0  0  0  0  0  0  0  0  0  0
   11.9135    0.5930    0.3934 H   0  0  0  0  0  0  0  0  0  0  0  0
    0.7529    0.2814    1.3049 H   0  0  0  0  0  0  0  0  0  0  0  0
    0.8593    2.7215   -3.5594 H   0  0  0  0  0  0  0  0  0  0  0  0
    2.7999    3.6438   -2.2713 H   0  0  0  0  0  0  0  0  0  0  0  0
    1.7774    4.9835   -1.6751 H   0  0  0  0  0  0  0  0  0  0  0  0
    2.4962    4.3771   -4.3710 H   0  0  0  0  0  0  0  0  0  0  0  0
   -0.7332    4.9670   -2.1096 H   0  0  0  0  0  0  0  0  0  0  0  0
   -0.3069    4.4411   -4.8947 H   0  0  0  0  0  0  0  0  0  0  0  0
   -1.6902    2.6768   -3.9487 H   0  0  0  0  0  0  0  0  0  0  0  0
   -3.1419    4.6493   -2.4522 H   0  0  0  0  0  0  0  0  0  0  0  0
  1  2  1  0  0  0  0
  1 51  1  0  0  0  0
  1 52  1  0  0  0  0
  1 53  1  0  0  0  0
  2  3  2  0  0  0  0
  2  6  1  0  0  0  0
  3  4  1  0  0  0  0
  3 54  1  0  0  0  0
  4  5  1  0  0  0  0
  4 55  1  0  0  0  0
  4 56  1  0  0  0  0
  5 57  1  0  0  0  0
  6  7  1  0  0  0  0
  6 58  1  0  0  0  0
  6 59  1  0  0  0  0
  7  8  1  0  0  0  0
  7 60  1  0  0  0  0
  7 61  1  0  0  0  0
  8  9  2  0  0  0  0
  8 62  1  0  0  0  0
  9 10  1  0  0  0  0
  9 11  1  0  0  0  0
 10 63  1  0  0  0  0
 10 64  1  0  0  0  0
 10 65  1  0  0  0  0
 11 12  2  0  0  0  0
 11 13  1  0  0  0  0
 14 13  1  0  0  0  0
 14 15  1  0  0  0  0
 14 66  1  1  0  0  0
 15 16  1  0  0  0  0
 15 43  1  0  0  0  0
 15 67  1  6  0  0  0
 17 16  1  0  0  0  0
 17 18  1  0  0  0  0
 17 68  1  6  0  0  0
 18 19  1  0  0  0  0
 19 20  2  0  0  0  0
 19 69  1  0  0  0  0
 20 21  1  0  0  0  0
 20 23  1  0  0  0  0
 21 22  2  0  0  0  0
 21 70  1  0  0  0  0
 23 24  1  1  0  0  0
 23 25  1  0  0  0  0
 24 71  1  0  0  0  0
 25 26  1  0  0  0  0
 25 72  1  0  0  0  0
 25 73  1  0  0  0  0
 26 27  1  0  0  0  0
 26 74  1  0  0  0  0
 26 75  1  0  0  0  0
 27 28  1  0  0  0  0
 27 29  1  1  0  0  0
 27 42  1  0  0  0  0
 28 76  1  0  0  0  0
 28 77  1  0  0  0  0
 28 78  1  0  0  0  0
 29 30  1  0  0  0  0
 30 31  2  0  0  0  0
 30 32  1  0  0  0  0
 32 33  1  0  0  0  0
 32 34  2  0  0  0  0
 33 79  1  0  0  0  0
 33 80  1  0  0  0  0
 33 81  1  0  0  0  0
 34 35  1  0  0  0  0
 34 82  1  0  0  0  0
 35 36  1  0  0  0  0
 35 83  1  0  0  0  0
 35 84  1  0  0  0  0
 36 37  1  0  0  0  0
 36 85  1  0  0  0  0
 36 86  1  0  0  0  0
 37 38  1  0  0  0  0
 37 39  2  0  0  0  0
 38 87  1  0  0  0  0
 38 88  1  0  0  0  0
 38 89  1  0  0  0  0
 39 40  1  0  0  0  0
 39 90  1  0  0  0  0
 40 41  1  0  0  0  0
 40 91  1  0  0  0  0
 40 92  1  0  0  0  0
 41 93  1  0  0  0  0
 42 17  1  0  0  0  0
 42 23  1  0  0  0  0
 42 94  1  1  0  0  0
 43 44  1  0  0  0  0
 44 45  1  0  0  0  0
 44 47  1  0  0  0  0
 44 95  1  6  0  0  0
 45 46  1  0  0  0  0
 45 96  1  0  0  0  0
 45 97  1  0  0  0  0
 46 98  1  0  0  0  0
 47 48  1  0  0  0  0
 47 49  1  0  0  0  0
 47 99  1  1  0  0  0
 48100  1  0  0  0  0
 49 50  1  0  0  0  0
 49 14  1  0  0  0  0
 49101  1  6  0  0  0
 50102  1  0  0  0  0
M  END
>  <IDENTIFIER>
CNP0292394.1

>  <Energy>
906.026

$$$$
