
 OpenBabel09062522333D

105107  0  0  0  0  0  0  0  0999 V2000
   17.4013   -2.1967    0.5579 C   0  0  0  0  0  0  0  0  0  0  0  0
   16.3964   -1.5061    1.1946 O   0  0  0  0  0  0  0  0  0  0  0  0
   15.6421   -0.5423    0.6018 C   0  0  0  0  0  0  0  0  0  0  0  0
   14.6623   -0.9195   -0.2459 C   0  0  0  0  0  0  0  0  0  0  0  0
   14.2795   -2.7898   -0.5433 Br  0  0  0  0  0  0  0  0  0  0  0  0
   13.7437    0.0391   -0.9426 C   0  0  0  0  0  0  0  0  0  0  0  0
   13.0680    0.9659    0.0821 C   0  0  2  0  0  0  0  0  0  0  0  0
   13.8936    2.0250    0.3809 O   0  0  0  0  0  0  0  0  0  0  0  0
   15.1679    1.9757    0.8555 C   0  0  0  0  0  0  0  0  0  0  0  0
   15.9502    0.8751    0.9902 C   0  0  0  0  0  0  0  0  0  0  0  0
   17.6520    1.1764    1.8317 Br  0  0  0  0  0  0  0  0  0  0  0  0
   12.7402    0.2292    1.1999 O   0  0  0  0  0  0  0  0  0  0  0  0
   11.5673   -0.3346    1.0449 N   0  0  0  0  0  0  0  0  0  0  0  0
   10.8992    0.2325    0.1138 C   0  0  0  0  0  0  0  0  0  0  0  0
    9.5796   -0.2837   -0.2888 C   0  0  0  0  0  0  0  0  0  0  0  0
    9.2057   -1.3393    0.2046 O   0  0  0  0  0  0  0  0  0  0  0  0
    8.8044    0.3635   -1.1984 N   0  0  0  0  0  0  0  0  0  0  0  0
    7.5133   -0.1408   -1.6291 C   0  0  0  0  0  0  0  0  0  0  0  0
    6.5221   -0.2440   -0.4611 C   0  0  0  0  0  0  0  0  0  0  0  0
    6.3472    1.0948    0.2732 C   0  0  0  0  0  0  0  0  0  0  0  0
    5.4826    0.9531    1.3453 O   0  0  0  0  0  0  0  0  0  0  0  0
    4.1812    0.6275    1.1859 C   0  0  0  0  0  0  0  0  0  0  0  0
    3.7515   -0.6685    1.5191 C   0  0  0  0  0  0  0  0  0  0  0  0
    4.9591   -1.9752    2.2269 Br  0  0  0  0  0  0  0  0  0  0  0  0
    2.4265   -1.0397    1.3044 C   0  0  0  0  0  0  0  0  0  0  0  0
    1.5184   -0.1280    0.7569 C   0  0  0  0  0  0  0  0  0  0  0  0
    0.1213   -0.5656    0.4515 C   0  0  0  0  0  0  0  0  0  0  0  0
    0.0440   -0.9281   -1.0399 C   0  0  0  0  0  0  0  0  0  0  0  0
   -1.2635   -1.4395   -1.3801 N   0  0  0  0  0  0  0  0  0  0  0  0
   -2.3808   -0.6728   -1.3322 C   0  0  0  0  0  0  0  0  0  0  0  0
   -2.3059    0.5119   -1.0354 O   0  0  0  0  0  0  0  0  0  0  0  0
   -3.7065   -1.3046   -1.6528 C   0  0  0  0  0  0  0  0  0  0  0  0
   -4.9130   -0.3876   -1.4355 C   0  0  0  0  0  0  0  0  0  0  0  0
   -5.0844   -0.0020    0.0506 C   0  0  0  0  0  0  0  0  0  0  0  0
   -6.3656    0.8034    0.3146 C   0  0  0  0  0  0  0  0  0  0  0  0
   -7.6630    0.0857   -0.0946 C   0  0  0  0  0  0  0  0  0  0  0  0
   -7.8658   -1.2648    0.6246 C   0  0  0  0  0  0  0  0  0  0  0  0
   -9.0397   -2.1084    0.0933 C   0  0  0  0  0  0  0  0  0  0  0  0
  -10.4430   -1.5483    0.3463 C   0  0  0  0  0  0  0  0  0  0  0  0
  -10.7034   -0.2889   -0.4451 C   0  0  0  0  0  0  0  0  0  0  0  0
  -11.0582    0.9126    0.0575 C   0  0  0  0  0  0  0  0  0  0  0  0
  -11.2747    1.2364    1.5151 C   0  0  0  0  0  0  0  0  0  0  0  0
  -12.6843    1.7728    1.8024 C   0  0  0  0  0  0  0  0  0  0  0  0
  -13.8478    0.7807    1.5571 C   0  0  0  0  0  0  0  0  0  0  0  0
  -14.1558    0.4117    0.0802 C   0  0  0  0  0  0  0  0  0  0  0  0
  -14.4346    1.6539   -0.7816 C   0  0  0  0  0  0  0  0  0  0  0  0
  -15.3631   -0.5315    0.0222 C   0  0  0  0  0  0  0  0  0  0  0  0
    1.9353    1.1745    0.4505 C   0  0  0  0  0  0  0  0  0  0  0  0
    3.2586    1.5599    0.6706 C   0  0  0  0  0  0  0  0  0  0  0  0
    3.7572    3.3656    0.2630 Br  0  0  0  0  0  0  0  0  0  0  0  0
   11.6739    1.4238   -0.3999 C   0  0  2  0  0  0  0  0  0  0  0  0
   11.6210    1.6913   -1.7826 O   0  0  0  0  0  0  0  0  0  0  0  0
   17.7928   -2.9713    1.2491 H   0  0  0  0  0  0  0  0  0  0  0  0
   18.2220   -1.5002    0.2891 H   0  0  0  0  0  0  0  0  0  0  0  0
   17.0343   -2.6963   -0.3600 H   0  0  0  0  0  0  0  0  0  0  0  0
   12.9895   -0.5860   -1.4651 H   0  0  0  0  0  0  0  0  0  0  0  0
   14.2669    0.6407   -1.7199 H   0  0  0  0  0  0  0  0  0  0  0  0
   15.5847    2.9220    1.1840 H   0  0  0  0  0  0  0  0  0  0  0  0
    9.1316    1.2496   -1.6097 H   0  0  0  0  0  0  0  0  0  0  0  0
    7.6392   -1.1418   -2.0982 H   0  0  0  0  0  0  0  0  0  0  0  0
    7.0920    0.5452   -2.3954 H   0  0  0  0  0  0  0  0  0  0  0  0
    6.8670   -1.0022    0.2667 H   0  0  0  0  0  0  0  0  0  0  0  0
    5.5474   -0.5949   -0.8628 H   0  0  0  0  0  0  0  0  0  0  0  0
    5.9815    1.8617   -0.4392 H   0  0  0  0  0  0  0  0  0  0  0  0
    7.3273    1.4314    0.6704 H   0  0  0  0  0  0  0  0  0  0  0  0
    2.1123   -2.0509    1.5323 H   0  0  0  0  0  0  0  0  0  0  0  0
   -0.5957    0.2268    0.7558 H   0  0  0  0  0  0  0  0  0  0  0  0
   -0.1306   -1.4786    1.0344 H   0  0  0  0  0  0  0  0  0  0  0  0
    0.7935   -1.7282   -1.2346 H   0  0  0  0  0  0  0  0  0  0  0  0
    0.2890   -0.0573   -1.6859 H   0  0  0  0  0  0  0  0  0  0  0  0
   -1.3432   -2.4286   -1.6636 H   0  0  0  0  0  0  0  0  0  0  0  0
   -3.8397   -2.2034   -1.0109 H   0  0  0  0  0  0  0  0  0  0  0  0
   -3.6828   -1.6398   -2.7121 H   0  0  0  0  0  0  0  0  0  0  0  0
   -5.7898   -0.9749   -1.7725 H   0  0  0  0  0  0  0  0  0  0  0  0
   -4.8340    0.5234   -2.0680 H   0  0  0  0  0  0  0  0  0  0  0  0
   -4.2303    0.6134    0.3960 H   0  0  0  0  0  0  0  0  0  0  0  0
   -5.0805   -0.9152    0.6789 H   0  0  0  0  0  0  0  0  0  0  0  0
   -6.3042    1.7640   -0.2453 H   0  0  0  0  0  0  0  0  0  0  0  0
   -6.4114    1.0449    1.3984 H   0  0  0  0  0  0  0  0  0  0  0  0
   -7.6749   -0.0685   -1.1926 H   0  0  0  0  0  0  0  0  0  0  0  0
   -8.4834    0.7785    0.1522 H   0  0  0  0  0  0  0  0  0  0  0  0
   -7.9618   -1.1000    1.7199 H   0  0  0  0  0  0  0  0  0  0  0  0
   -6.9770   -1.8999    0.4461 H   0  0  0  0  0  0  0  0  0  0  0  0
   -8.9888   -3.0900    0.6148 H   0  0  0  0  0  0  0  0  0  0  0  0
   -8.8984   -2.3018   -0.9929 H   0  0  0  0  0  0  0  0  0  0  0  0
  -10.5782   -1.4486    1.4355 H   0  0  0  0  0  0  0  0  0  0  0  0
  -11.1793   -2.3051    0.0017 H   0  0  0  0  0  0  0  0  0  0  0  0
  -10.5925   -0.3649   -1.5232 H   0  0  0  0  0  0  0  0  0  0  0  0
  -11.1997    1.7240   -0.6497 H   0  0  0  0  0  0  0  0  0  0  0  0
  -10.5414    2.0245    1.7890 H   0  0  0  0  0  0  0  0  0  0  0  0
  -11.0915    0.3889    2.1940 H   0  0  0  0  0  0  0  0  0  0  0  0
  -12.8562    2.7213    1.2552 H   0  0  0  0  0  0  0  0  0  0  0  0
  -12.7010    2.0269    2.8862 H   0  0  0  0  0  0  0  0  0  0  0  0
  -14.7623    1.2527    1.9788 H   0  0  0  0  0  0  0  0  0  0  0  0
  -13.6503   -0.1478    2.1372 H   0  0  0  0  0  0  0  0  0  0  0  0
  -13.3117   -0.1437   -0.3634 H   0  0  0  0  0  0  0  0  0  0  0  0
  -15.2915    2.2300   -0.3730 H   0  0  0  0  0  0  0  0  0  0  0  0
  -14.6671    1.3520   -1.8247 H   0  0  0  0  0  0  0  0  0  0  0  0
  -13.5481    2.3166   -0.8301 H   0  0  0  0  0  0  0  0  0  0  0  0
  -16.2669   -0.0387    0.4402 H   0  0  0  0  0  0  0  0  0  0  0  0
  -15.1559   -1.4569    0.6006 H   0  0  0  0  0  0  0  0  0  0  0  0
  -15.5708   -0.8228   -1.0303 H   0  0  0  0  0  0  0  0  0  0  0  0
    1.2317    1.8881    0.0383 H   0  0  0  0  0  0  0  0  0  0  0  0
   11.2993    2.3039    0.1728 H   0  0  0  0  0  0  0  0  0  0  0  0
   11.4096    0.8504   -2.2618 H   0  0  0  0  0  0  0  0  0  0  0  0
  1  2  1  0  0  0  0
  1 53  1  0  0  0  0
  1 54  1  0  0  0  0
  1 55  1  0  0  0  0
  2  3  1  0  0  0  0
  3  4  2  0  0  0  0
  4  5  1  0  0  0  0
  4  6  1  0  0  0  0
  6 56  1  0  0  0  0
  6 57  1  0  0  0  0
  7  6  1  0  0  0  0
  7  8  1  1  0  0  0
  7 12  1  0  0  0  0
  8  9  1  0  0  0  0
  9 10  2  0  0  0  0
  9 58  1  0  0  0  0
 10 11  1  0  0  0  0
 10  3  1  0  0  0  0
 12 13  1  0  0  0  0
 13 14  2  0  0  0  0
 14 15  1  0  0  0  0
 14 51  1  0  0  0  0
 15 16  2  0  0  0  0
 15 17  1  0  0  0  0
 17 18  1  0  0  0  0
 17 59  1  0  0  0  0
 18 19  1  0  0  0  0
 18 60  1  0  0  0  0
 18 61  1  0  0  0  0
 19 20  1  0  0  0  0
 19 62  1  0  0  0  0
 19 63  1  0  0  0  0
 20 21  1  0  0  0  0
 20 64  1  0  0  0  0
 20 65  1  0  0  0  0
 21 22  1  0  0  0  0
 22 23  2  0  0  0  0
 23 24  1  0  0  0  0
 23 25  1  0  0  0  0
 25 26  2  0  0  0  0
 25 66  1  0  0  0  0
 26 27  1  0  0  0  0
 26 48  1  0  0  0  0
 27 28  1  0  0  0  0
 27 67  1  0  0  0  0
 27 68  1  0  0  0  0
 28 29  1  0  0  0  0
 28 69  1  0  0  0  0
 28 70  1  0  0  0  0
 29 30  1  0  0  0  0
 29 71  1  0  0  0  0
 30 31  2  0  0  0  0
 30 32  1  0  0  0  0
 32 33  1  0  0  0  0
 32 72  1  0  0  0  0
 32 73  1  0  0  0  0
 33 34  1  0  0  0  0
 33 74  1  0  0  0  0
 33 75  1  0  0  0  0
 34 35  1  0  0  0  0
 34 76  1  0  0  0  0
 34 77  1  0  0  0  0
 35 36  1  0  0  0  0
 35 78  1  0  0  0  0
 35 79  1  0  0  0  0
 36 37  1  0  0  0  0
 36 80  1  0  0  0  0
 36 81  1  0  0  0  0
 37 38  1  0  0  0  0
 37 82  1  0  0  0  0
 37 83  1  0  0  0  0
 38 39  1  0  0  0  0
 38 84  1  0  0  0  0
 38 85  1  0  0  0  0
 39 40  1  0  0  0  0
 39 86  1  0  0  0  0
 39 87  1  0  0  0  0
 40 41  2  0  0  0  0
 40 88  1  0  0  0  0
 41 42  1  0  0  0  0
 41 89  1  0  0  0  0
 42 43  1  0  0  0  0
 42 90  1  0  0  0  0
 42 91  1  0  0  0  0
 43 44  1  0  0  0  0
 43 92  1  0  0  0  0
 43 93  1  0  0  0  0
 44 45  1  0  0  0  0
 44 94  1  0  0  0  0
 44 95  1  0  0  0  0
 45 46  1  0  0  0  0
 45 47  1  0  0  0  0
 45 96  1  0  0  0  0
 46 97  1  0  0  0  0
 46 98  1  0  0  0  0
 46 99  1  0  0  0  0
 47100  1  0  0  0  0
 47101  1  0  0  0  0
 47102  1  0  0  0  0
 48 49  2  0  0  0  0
 48103  1  0  0  0  0
 49 50  1  0  0  0  0
 49 22  1  0  0  0  0
 51 52  1  0  0  0  0
 51  7  1  0  0  0  0
 51104  1  1  0  0  0
 52105  1  0  0  0  0
M  END
>  <IDENTIFIER>
CNP0173758.1

>  <Energy>
838.369

$$$$
