
 OpenBabel09082513573D

 46 48  0  0  0  0  0  0  0  0999 V2000
    4.5924   -2.1591   -0.7831 C   0  0  0  0  0  0  0  0  0  0  0  0
    4.5802   -0.7961   -1.0027 O   0  0  0  0  0  0  0  0  0  0  0  0
    3.5632    0.0505   -0.6870 C   0  0  0  0  0  0  0  0  0  0  0  0
    2.3826   -0.3959   -0.0625 C   0  0  0  0  0  0  0  0  0  0  0  0
    1.3412    0.4978    0.2435 C   0  0  0  0  0  0  0  0  0  0  0  0
    0.0903   -0.0376    0.9238 C   0  0  2  0  0  0  0  0  0  0  0  0
   -1.0383   -0.4794   -0.0755 C   0  0  2  0  0  0  0  0  0  0  0  0
   -1.5841    0.6162   -1.0754 C   0  0  1  0  0  0  0  0  0  0  0  0
   -0.6944    0.7663   -2.3182 C   0  0  0  0  0  0  0  0  0  0  0  0
   -2.9197    0.2950   -1.5772 N   0  0  0  0  0  0  0  0  0  0  0  0
   -3.6734   -0.6615   -1.1423 C   0  0  0  0  0  0  0  0  0  0  0  0
   -4.8398   -0.9277   -1.7696 O   0  0  0  0  0  0  0  0  0  0  0  0
   -3.2633   -1.4415   -0.0221 N   0  0  0  0  0  0  0  0  0  0  0  0
   -3.8702   -2.7246    0.2806 C   0  0  0  0  0  0  0  0  0  0  0  0
   -2.1950   -0.9328    0.8088 C   0  0  2  0  0  0  0  0  0  0  0  0
   -2.6629    0.2007    1.5840 N   0  0  0  0  0  0  0  0  0  0  0  0
   -1.8361    0.9971    2.1791 C   0  0  0  0  0  0  0  0  0  0  0  0
   -2.3190    1.9700    2.9827 O   0  0  0  0  0  0  0  0  0  0  0  0
   -0.4176    0.8383    1.9954 N   0  0  0  0  0  0  0  0  0  0  0  0
    0.5004    1.4084    2.9742 C   0  0  0  0  0  0  0  0  0  0  0  0
    1.4963    1.8587   -0.0762 C   0  0  0  0  0  0  0  0  0  0  0  0
    2.6669    2.3097   -0.6910 C   0  0  0  0  0  0  0  0  0  0  0  0
    3.7001    1.4109   -0.9980 C   0  0  0  0  0  0  0  0  0  0  0  0
    4.8295    1.8462   -1.5944 O   0  0  0  0  0  0  0  0  0  0  0  0
    5.5515   -2.5785   -1.1489 H   0  0  0  0  0  0  0  0  0  0  0  0
    3.7604   -2.6446   -1.3374 H   0  0  0  0  0  0  0  0  0  0  0  0
    4.5029   -2.3749    0.3031 H   0  0  0  0  0  0  0  0  0  0  0  0
    2.2626   -1.4427    0.1833 H   0  0  0  0  0  0  0  0  0  0  0  0
    0.4085   -0.9700    1.4443 H   0  0  0  0  0  0  0  0  0  0  0  0
   -0.6973   -1.3580   -0.6694 H   0  0  0  0  0  0  0  0  0  0  0  0
   -1.6584    1.5957   -0.5565 H   0  0  0  0  0  0  0  0  0  0  0  0
   -0.6625   -0.1913   -2.8802 H   0  0  0  0  0  0  0  0  0  0  0  0
    0.3394    1.0594   -2.1042 H   0  0  0  0  0  0  0  0  0  0  0  0
   -1.1211    1.5469   -2.9845 H   0  0  0  0  0  0  0  0  0  0  0  0
   -5.1331   -0.4149   -2.5362 H   0  0  0  0  0  0  0  0  0  0  0  0
   -4.6610   -2.9929   -0.4501 H   0  0  0  0  0  0  0  0  0  0  0  0
   -4.3203   -2.6962    1.2950 H   0  0  0  0  0  0  0  0  0  0  0  0
   -3.0931   -3.5183    0.2504 H   0  0  0  0  0  0  0  0  0  0  0  0
   -1.8551   -1.7225    1.5199 H   0  0  0  0  0  0  0  0  0  0  0  0
   -3.2695    2.0872    3.1239 H   0  0  0  0  0  0  0  0  0  0  0  0
   -0.0321    1.9608    3.7755 H   0  0  0  0  0  0  0  0  0  0  0  0
    1.2011    2.1210    2.4985 H   0  0  0  0  0  0  0  0  0  0  0  0
    1.0842    0.5953    3.4541 H   0  0  0  0  0  0  0  0  0  0  0  0
    0.7103    2.5687    0.1480 H   0  0  0  0  0  0  0  0  0  0  0  0
    2.7712    3.3601   -0.9311 H   0  0  0  0  0  0  0  0  0  0  0  0
    4.9657    2.7758   -1.8259 H   0  0  0  0  0  0  0  0  0  0  0  0
  1  2  1  0  0  0  0
  1 25  1  0  0  0  0
  1 26  1  0  0  0  0
  1 27  1  0  0  0  0
  2  3  1  0  0  0  0
  3  4  2  0  0  0  0
  4  5  1  0  0  0  0
  4 28  1  0  0  0  0
  5 21  2  0  0  0  0
  6  5  1  0  0  0  0
  6 29  1  1  0  0  0
  7  6  1  0  0  0  0
  7  8  1  0  0  0  0
  7 30  1  6  0  0  0
  8  9  1  0  0  0  0
  8 10  1  0  0  0  0
  8 31  1  1  0  0  0
  9 32  1  0  0  0  0
  9 33  1  0  0  0  0
  9 34  1  0  0  0  0
 10 11  2  0  0  0  0
 11 12  1  0  0  0  0
 11 13  1  0  0  0  0
 12 35  1  0  0  0  0
 13 14  1  0  0  0  0
 14 36  1  0  0  0  0
 14 37  1  0  0  0  0
 14 38  1  0  0  0  0
 15 13  1  0  0  0  0
 15 16  1  0  0  0  0
 15  7  1  0  0  0  0
 15 39  1  1  0  0  0
 16 17  2  0  0  0  0
 17 18  1  0  0  0  0
 17 19  1  0  0  0  0
 18 40  1  0  0  0  0
 19 20  1  0  0  0  0
 19  6  1  0  0  0  0
 20 41  1  0  0  0  0
 20 42  1  0  0  0  0
 20 43  1  0  0  0  0
 21 22  1  0  0  0  0
 21 44  1  0  0  0  0
 22 23  2  0  0  0  0
 22 45  1  0  0  0  0
 23 24  1  0  0  0  0
 23  3  1  0  0  0  0
 24 46  1  0  0  0  0
M  END
>  <IDENTIFIER>
CNP0509411.1

>  <Energy>
336.424

$$$$
