
 OpenBabel09092508133D

 37 38  0  0  0  0  0  0  0  0999 V2000
    4.9602    1.0947   -1.0907 O   0  0  0  0  0  0  0  0  0  0  0  0
    3.6979    0.5331   -1.3266 C   0  0  0  0  0  0  0  0  0  0  0  0
    3.2939   -0.3760   -0.1491 C   0  0  2  0  0  0  0  0  0  0  0  0
    2.0492   -0.9958   -0.4621 O   0  0  0  0  0  0  0  0  0  0  0  0
    1.0939   -0.5127    0.4713 C   0  0  2  0  0  0  0  0  0  0  0  0
   -0.1413   -0.2504   -0.1779 O   0  0  0  0  0  0  0  0  0  0  0  0
   -1.2233   -1.0409    0.3112 C   0  0  1  0  0  0  0  0  0  0  0  0
   -2.3301   -0.1247    0.7673 C   0  0  2  0  0  0  0  0  0  0  0  0
   -3.2970   -0.8504    1.5025 O   0  0  0  0  0  0  0  0  0  0  0  0
   -2.8198    0.3558   -0.6116 C   0  0  2  0  0  0  0  0  0  0  0  0
   -4.2086    1.0126   -0.6084 C   0  0  0  0  0  0  0  0  0  0  0  0
   -4.2165    2.1509    0.2105 O   0  0  0  0  0  0  0  0  0  0  0  0
   -2.7701   -0.7617   -1.4831 O   0  0  0  0  0  0  0  0  0  0  0  0
   -1.9089   -1.7189   -0.8777 C   0  0  2  0  0  0  0  0  0  0  0  0
   -2.6701   -2.8120   -0.4356 O   0  0  0  0  0  0  0  0  0  0  0  0
    1.6600    0.7797    1.0464 C   0  0  1  0  0  0  0  0  0  0  0  0
    1.0530    1.1927    2.2452 O   0  0  0  0  0  0  0  0  0  0  0  0
    3.0963    0.3502    1.1913 C   0  0  2  0  0  0  0  0  0  0  0  0
    4.0185    1.3767    1.4652 O   0  0  0  0  0  0  0  0  0  0  0  0
    5.1958    1.6016   -1.9106 H   0  0  0  0  0  0  0  0  0  0  0  0
    3.7503   -0.0983   -2.2422 H   0  0  0  0  0  0  0  0  0  0  0  0
    2.9474    1.3361   -1.4870 H   0  0  0  0  0  0  0  0  0  0  0  0
    4.0913   -1.1422   -0.0303 H   0  0  0  0  0  0  0  0  0  0  0  0
    1.0487   -1.2720    1.2878 H   0  0  0  0  0  0  0  0  0  0  0  0
   -0.9278   -1.7770    1.0924 H   0  0  0  0  0  0  0  0  0  0  0  0
   -1.9849    0.7105    1.4144 H   0  0  0  0  0  0  0  0  0  0  0  0
   -3.9689   -1.2517    0.8956 H   0  0  0  0  0  0  0  0  0  0  0  0
   -2.0950    1.1058   -1.0051 H   0  0  0  0  0  0  0  0  0  0  0  0
   -5.0106    0.3038   -0.3036 H   0  0  0  0  0  0  0  0  0  0  0  0
   -4.4601    1.3275   -1.6431 H   0  0  0  0  0  0  0  0  0  0  0  0
   -4.4237    1.8400    1.1301 H   0  0  0  0  0  0  0  0  0  0  0  0
   -1.1306   -2.0880   -1.5839 H   0  0  0  0  0  0  0  0  0  0  0  0
   -3.0446   -3.2381   -1.2499 H   0  0  0  0  0  0  0  0  0  0  0  0
    1.5731    1.5911    0.2903 H   0  0  0  0  0  0  0  0  0  0  0  0
    1.1034    0.4391    2.8893 H   0  0  0  0  0  0  0  0  0  0  0  0
    3.1468   -0.4041    2.0115 H   0  0  0  0  0  0  0  0  0  0  0  0
    3.7240    2.1955    0.9883 H   0  0  0  0  0  0  0  0  0  0  0  0
  1  2  1  0  0  0  0
  1 20  1  0  0  0  0
  2 21  1  0  0  0  0
  2 22  1  0  0  0  0
  3  2  1  0  0  0  0
  3  4  1  0  0  0  0
  3 23  1  1  0  0  0
  4  5  1  0  0  0  0
  5  6  1  0  0  0  0
  5 16  1  0  0  0  0
  5 24  1  1  0  0  0
  7  6  1  0  0  0  0
  7  8  1  0  0  0  0
  7 25  1  1  0  0  0
  8  9  1  0  0  0  0
  8 10  1  0  0  0  0
  8 26  1  1  0  0  0
  9 27  1  0  0  0  0
 10 11  1  0  0  0  0
 10 13  1  0  0  0  0
 10 28  1  6  0  0  0
 11 12  1  0  0  0  0
 11 29  1  0  0  0  0
 11 30  1  0  0  0  0
 12 31  1  0  0  0  0
 13 14  1  0  0  0  0
 14 15  1  0  0  0  0
 14  7  1  0  0  0  0
 14 32  1  6  0  0  0
 15 33  1  0  0  0  0
 16 17  1  0  0  0  0
 16 18  1  0  0  0  0
 16 34  1  6  0  0  0
 17 35  1  0  0  0  0
 18 19  1  0  0  0  0
 18  3  1  0  0  0  0
 18 36  1  1  0  0  0
 19 37  1  0  0  0  0
M  END
>  <IDENTIFIER>
CNP0129435.1

>  <Energy>
504.643

$$$$
