
 OpenBabel09052520563D

110116  0  0  0  0  0  0  0  0999 V2000
   13.0998    1.2417   -0.5114 C   0  0  0  0  0  0  0  0  0  0  0  0
   11.8003    1.9638   -0.3616 C   0  0  0  0  0  0  0  0  0  0  0  0
   11.7702    3.1814   -0.4819 O   0  0  0  0  0  0  0  0  0  0  0  0
   10.6715    1.2552   -0.0861 O   0  0  0  0  0  0  0  0  0  0  0  0
    9.4097    1.7990    0.0986 C   0  0  1  0  0  0  0  0  0  0  0  0
    8.4006    1.2821   -0.9650 C   0  0  0  0  0  0  0  0  0  0  0  0
    7.7412    0.1018   -0.5547 O   0  0  0  0  0  0  0  0  0  0  0  0
    6.9292    0.3094    0.6129 C   0  0  2  0  0  0  0  0  0  0  0  0
    5.5666    0.4774    0.2425 O   0  0  0  0  0  0  0  0  0  0  0  0
    4.6932   -0.5578    0.6858 C   0  0  1  0  0  0  0  0  0  0  0  0
    3.6688    0.0367    1.6917 C   0  0  0  0  0  0  0  0  0  0  0  0
    2.5117    0.7297    0.9891 C   0  0  0  0  0  0  0  0  0  0  0  0
    1.7597   -0.2940    0.0815 C   0  0  2  0  0  0  0  0  0  0  0  0
    1.0200    0.3992   -1.0113 C   0  0  0  0  0  0  0  0  0  0  0  0
    0.1843   -0.3862    0.0746 C   0  0  2  0  0  0  0  0  0  0  0  0
   -0.7537    0.7510    0.6464 C   0  0  0  0  0  0  0  0  0  0  0  0
   -2.1801    0.3059    1.0372 C   0  0  0  0  0  0  0  0  0  0  0  0
   -2.8237   -0.5578   -0.0919 C   0  0  2  0  0  0  0  0  0  0  0  0
   -2.8682    0.2871   -1.4190 C   0  0  0  0  0  0  0  0  0  0  0  0
   -4.2844   -1.1395    0.1313 C   0  0  1  0  0  0  0  0  0  0  0  0
   -5.5508   -0.1879   -0.0289 C   0  0  2  0  0  0  0  0  0  0  0  0
   -5.5188    0.9254    1.0346 C   0  0  0  0  0  0  0  0  0  0  0  0
   -6.9018   -0.9792    0.0650 C   0  0  0  0  0  0  0  0  0  0  0  0
   -8.2336   -0.1822    0.0219 C   0  0  1  0  0  0  0  0  0  0  0  0
   -8.4313    0.4743    1.2229 O   0  0  0  0  0  0  0  0  0  0  0  0
   -9.4265    0.2135    2.1167 C   0  0  0  0  0  0  0  0  0  0  0  0
   -9.4936    0.9912    3.3873 C   0  0  0  0  0  0  0  0  0  0  0  0
  -10.2657   -0.6491    1.8981 O   0  0  0  0  0  0  0  0  0  0  0  0
   -8.3663    0.7295   -1.2334 C   0  0  2  0  0  0  0  0  0  0  0  0
   -7.5034    1.8618   -1.2170 O   0  0  0  0  0  0  0  0  0  0  0  0
   -8.8782    2.1389   -1.2105 C   0  0  0  0  0  0  0  0  0  0  0  0
   -9.3829    2.6883   -2.5457 C   0  0  0  0  0  0  0  0  0  0  0  0
   -9.2811    2.9289    0.0423 C   0  0  0  0  0  0  0  0  0  0  0  0
   -4.2134   -2.3377   -0.8255 C   0  0  0  0  0  0  0  0  0  0  0  0
   -5.1556   -2.8022   -1.4417 O   0  0  0  0  0  0  0  0  0  0  0  0
   -2.8023   -2.7229   -1.1877 C   0  0  2  0  0  0  0  0  0  0  0  0
   -2.5467   -4.1071   -1.1096 O   0  0  0  0  0  0  0  0  0  0  0  0
   -1.9479   -1.8732   -0.2164 C   0  0  2  0  0  0  0  0  0  0  0  0
   -1.8324   -2.6432    1.1618 C   0  0  0  0  0  0  0  0  0  0  0  0
   -0.5047   -1.5479   -0.7555 C   0  0  2  0  0  0  0  0  0  0  0  0
    0.3958   -2.8148   -0.8280 C   0  0  0  0  0  0  0  0  0  0  0  0
    1.8163   -2.5174   -1.2953 C   0  0  0  0  0  0  0  0  0  0  0  0
    2.5364   -1.6213   -0.2504 C   0  0  1  0  0  0  0  0  0  0  0  0
    4.0402   -1.2857   -0.5669 C   0  0  0  0  0  0  0  0  0  0  0  0
    4.1285   -0.3979   -1.8436 C   0  0  0  0  0  0  0  0  0  0  0  0
    4.8652   -2.5632   -0.8505 C   0  0  0  0  0  0  0  0  0  0  0  0
    7.3767    1.4966    1.5360 C   0  0  2  0  0  0  0  0  0  0  0  0
    6.9323    2.7445    1.0570 O   0  0  0  0  0  0  0  0  0  0  0  0
    8.9098    1.5022    1.5442 C   0  0  1  0  0  0  0  0  0  0  0  0
    9.3917    0.2745    2.0516 O   0  0  0  0  0  0  0  0  0  0  0  0
   13.9244    1.9569   -0.7285 H   0  0  0  0  0  0  0  0  0  0  0  0
   13.0273    0.5142   -1.3452 H   0  0  0  0  0  0  0  0  0  0  0  0
   13.3346    0.7014    0.4289 H   0  0  0  0  0  0  0  0  0  0  0  0
    9.4320    2.9009   -0.0599 H   0  0  0  0  0  0  0  0  0  0  0  0
    8.9043    1.1422   -1.9450 H   0  0  0  0  0  0  0  0  0  0  0  0
    7.6206    2.0495   -1.1668 H   0  0  0  0  0  0  0  0  0  0  0  0
    7.1158   -0.5992    1.2282 H   0  0  0  0  0  0  0  0  0  0  0  0
    5.1963   -1.3162    1.3287 H   0  0  0  0  0  0  0  0  0  0  0  0
    4.1899    0.7210    2.3973 H   0  0  0  0  0  0  0  0  0  0  0  0
    3.2248   -0.7768    2.3065 H   0  0  0  0  0  0  0  0  0  0  0  0
    2.9537    1.5528    0.3854 H   0  0  0  0  0  0  0  0  0  0  0  0
    1.8432    1.1796    1.7457 H   0  0  0  0  0  0  0  0  0  0  0  0
    1.2852   -0.0340   -1.9918 H   0  0  0  0  0  0  0  0  0  0  0  0
    1.1188    1.5047   -0.9177 H   0  0  0  0  0  0  0  0  0  0  0  0
   -0.9087    1.5641   -0.0953 H   0  0  0  0  0  0  0  0  0  0  0  0
   -0.2983    1.2480    1.5234 H   0  0  0  0  0  0  0  0  0  0  0  0
   -2.7276    1.2286    1.2669 H   0  0  0  0  0  0  0  0  0  0  0  0
   -2.1635   -0.2457    1.9945 H   0  0  0  0  0  0  0  0  0  0  0  0
   -3.4552    1.2149   -1.2602 H   0  0  0  0  0  0  0  0  0  0  0  0
   -3.3377   -0.2580   -2.2617 H   0  0  0  0  0  0  0  0  0  0  0  0
   -1.8771    0.6122   -1.7818 H   0  0  0  0  0  0  0  0  0  0  0  0
   -4.3687   -1.5668    1.1483 H   0  0  0  0  0  0  0  0  0  0  0  0
   -5.5354    0.2863   -1.0307 H   0  0  0  0  0  0  0  0  0  0  0  0
   -5.4879    0.4963    2.0590 H   0  0  0  0  0  0  0  0  0  0  0  0
   -6.3837    1.6041    0.9639 H   0  0  0  0  0  0  0  0  0  0  0  0
   -4.6786    1.6059    0.8658 H   0  0  0  0  0  0  0  0  0  0  0  0
   -6.9078   -1.5981    0.9887 H   0  0  0  0  0  0  0  0  0  0  0  0
   -6.9746   -1.6600   -0.7978 H   0  0  0  0  0  0  0  0  0  0  0  0
   -9.0301   -0.9491   -0.1029 H   0  0  0  0  0  0  0  0  0  0  0  0
   -8.6638    1.7284    3.4327 H   0  0  0  0  0  0  0  0  0  0  0  0
   -9.4098    0.2989    4.2509 H   0  0  0  0  0  0  0  0  0  0  0  0
  -10.4614    1.5316    3.4415 H   0  0  0  0  0  0  0  0  0  0  0  0
   -8.2583    0.2268   -2.2178 H   0  0  0  0  0  0  0  0  0  0  0  0
   -9.0579    3.7441   -2.6610 H   0  0  0  0  0  0  0  0  0  0  0  0
  -10.4921    2.6531   -2.5616 H   0  0  0  0  0  0  0  0  0  0  0  0
   -8.9947    2.1113   -3.4118 H   0  0  0  0  0  0  0  0  0  0  0  0
   -9.1757    4.0146   -0.1644 H   0  0  0  0  0  0  0  0  0  0  0  0
   -8.6323    2.7412    0.9162 H   0  0  0  0  0  0  0  0  0  0  0  0
  -10.3410    2.7199    0.2948 H   0  0  0  0  0  0  0  0  0  0  0  0
   -2.6635   -2.4080   -2.2440 H   0  0  0  0  0  0  0  0  0  0  0  0
   -3.1377   -4.5016   -0.4156 H   0  0  0  0  0  0  0  0  0  0  0  0
   -1.3867   -3.6484    1.0388 H   0  0  0  0  0  0  0  0  0  0  0  0
   -2.8012   -2.8533    1.6477 H   0  0  0  0  0  0  0  0  0  0  0  0
   -1.1796   -2.1195    1.8875 H   0  0  0  0  0  0  0  0  0  0  0  0
   -0.6466   -1.2078   -1.8047 H   0  0  0  0  0  0  0  0  0  0  0  0
   -0.0630   -3.5541   -1.5175 H   0  0  0  0  0  0  0  0  0  0  0  0
    0.5073   -3.2889    0.1663 H   0  0  0  0  0  0  0  0  0  0  0  0
    1.7913   -2.0848   -2.3136 H   0  0  0  0  0  0  0  0  0  0  0  0
    2.3457   -3.4902   -1.3679 H   0  0  0  0  0  0  0  0  0  0  0  0
    2.5452   -2.2235    0.6860 H   0  0  0  0  0  0  0  0  0  0  0  0
    3.6795   -0.9056   -2.7204 H   0  0  0  0  0  0  0  0  0  0  0  0
    5.1875   -0.1896   -2.1079 H   0  0  0  0  0  0  0  0  0  0  0  0
    3.6296    0.5804   -1.7067 H   0  0  0  0  0  0  0  0  0  0  0  0
    4.5076   -3.0929   -1.7571 H   0  0  0  0  0  0  0  0  0  0  0  0
    4.8102   -3.2627    0.0113 H   0  0  0  0  0  0  0  0  0  0  0  0
    5.9329   -2.3046   -1.0208 H   0  0  0  0  0  0  0  0  0  0  0  0
    6.9736    1.3534    2.5642 H   0  0  0  0  0  0  0  0  0  0  0  0
    5.9406    2.7331    1.0623 H   0  0  0  0  0  0  0  0  0  0  0  0
    9.3156    2.2924    2.2122 H   0  0  0  0  0  0  0  0  0  0  0  0
    9.4488   -0.3912    1.3169 H   0  0  0  0  0  0  0  0  0  0  0  0
  1  2  1  0  0  0  0
  1 51  1  0  0  0  0
  1 52  1  0  0  0  0
  1 53  1  0  0  0  0
  2  3  2  0  0  0  0
  2  4  1  0  0  0  0
  5  4  1  0  0  0  0
  5  6  1  0  0  0  0
  5 54  1  6  0  0  0
  6  7  1  0  0  0  0
  6 55  1  0  0  0  0
  6 56  1  0  0  0  0
  7  8  1  0  0  0  0
  8  9  1  0  0  0  0
  8 47  1  0  0  0  0
  8 57  1  1  0  0  0
 10  9  1  0  0  0  0
 10 11  1  0  0  0  0
 10 58  1  1  0  0  0
 11 12  1  0  0  0  0
 11 59  1  0  0  0  0
 11 60  1  0  0  0  0
 12 61  1  0  0  0  0
 12 62  1  0  0  0  0
 13 12  1  1  0  0  0
 13 14  1  0  0  0  0
 14 63  1  0  0  0  0
 14 64  1  0  0  0  0
 15 14  1  6  0  0  0
 15 16  1  0  0  0  0
 15 13  1  0  0  0  0
 16 17  1  0  0  0  0
 16 65  1  0  0  0  0
 16 66  1  0  0  0  0
 17 18  1  0  0  0  0
 17 67  1  0  0  0  0
 17 68  1  0  0  0  0
 18 19  1  6  0  0  0
 18 20  1  0  0  0  0
 19 69  1  0  0  0  0
 19 70  1  0  0  0  0
 19 71  1  0  0  0  0
 20 21  1  0  0  0  0
 20 34  1  0  0  0  0
 20 72  1  1  0  0  0
 21 22  1  0  0  0  0
 21 23  1  0  0  0  0
 21 73  1  6  0  0  0
 22 74  1  0  0  0  0
 22 75  1  0  0  0  0
 22 76  1  0  0  0  0
 23 77  1  0  0  0  0
 23 78  1  0  0  0  0
 24 23  1  0  0  0  0
 24 25  1  0  0  0  0
 24 29  1  0  0  0  0
 24 79  1  6  0  0  0
 25 26  1  0  0  0  0
 26 27  1  0  0  0  0
 26 28  2  0  0  0  0
 27 80  1  0  0  0  0
 27 81  1  0  0  0  0
 27 82  1  0  0  0  0
 29 30  1  0  0  0  0
 29 83  1  6  0  0  0
 30 31  1  0  0  0  0
 31 32  1  0  0  0  0
 31 33  1  0  0  0  0
 31 29  1  0  0  0  0
 32 84  1  0  0  0  0
 32 85  1  0  0  0  0
 32 86  1  0  0  0  0
 33 87  1  0  0  0  0
 33 88  1  0  0  0  0
 33 89  1  0  0  0  0
 34 35  2  0  0  0  0
 34 36  1  0  0  0  0
 36 37  1  0  0  0  0
 36 38  1  0  0  0  0
 36 90  1  6  0  0  0
 37 91  1  0  0  0  0
 38 39  1  1  0  0  0
 38 40  1  0  0  0  0
 38 18  1  0  0  0  0
 39 92  1  0  0  0  0
 39 93  1  0  0  0  0
 39 94  1  0  0  0  0
 40 41  1  0  0  0  0
 40 15  1  0  0  0  0
 40 95  1  6  0  0  0
 41 42  1  0  0  0  0
 41 96  1  0  0  0  0
 41 97  1  0  0  0  0
 42 98  1  0  0  0  0
 42 99  1  0  0  0  0
 43 42  1  0  0  0  0
 43 44  1  0  0  0  0
 43 13  1  0  0  0  0
 43100  1  1  0  0  0
 44 45  1  0  0  0  0
 44 46  1  0  0  0  0
 44 10  1  0  0  0  0
 45101  1  0  0  0  0
 45102  1  0  0  0  0
 45103  1  0  0  0  0
 46104  1  0  0  0  0
 46105  1  0  0  0  0
 46106  1  0  0  0  0
 47 48  1  0  0  0  0
 47 49  1  0  0  0  0
 47107  1  1  0  0  0
 48108  1  0  0  0  0
 49 50  1  0  0  0  0
 49  5  1  0  0  0  0
 49109  1  1  0  0  0
 50110  1  0  0  0  0
M  END
>  <IDENTIFIER>
CNP0185701.3

>  <Energy>
4157.15

$$$$
