
 OpenBabel09052506513D

 52 55  0  0  0  0  0  0  0  0999 V2000
    3.6008   -2.2752    0.1039 O   0  0  0  0  0  0  0  0  0  0  0  0
    3.1329   -1.1458    0.0209 C   0  0  0  0  0  0  0  0  0  0  0  0
    1.7888   -0.9454    0.1732 N   0  0  0  0  0  0  0  0  0  0  0  0
    0.8704   -2.0554    0.4506 C   0  0  1  0  0  0  0  0  0  0  0  0
    0.0387   -1.8320    1.7448 C   0  0  0  0  0  0  0  0  0  0  0  0
   -1.2025   -1.1939    1.4098 O   0  0  0  0  0  0  0  0  0  0  0  0
   -1.1260   -1.0157    0.0209 C   0  0  1  0  0  0  0  0  0  0  0  0
   -0.2870   -2.1340   -0.4911 C   0  0  1  0  0  0  0  0  0  0  0  0
   -0.1994   -1.9512   -1.8814 O   0  0  0  0  0  0  0  0  0  0  0  0
   -1.4533   -1.3237   -2.1977 C   0  0  0  0  0  0  0  0  0  0  0  0
   -2.2896   -1.2608   -0.8929 C   0  0  2  0  0  0  0  0  0  0  0  0
   -3.2560   -0.2218   -0.8958 O   0  0  0  0  0  0  0  0  0  0  0  0
   -4.3554   -0.6066   -0.0899 C   0  0  0  0  0  0  0  0  0  0  0  0
   -5.4095    0.4656   -0.0849 C   0  0  0  0  0  0  0  0  0  0  0  0
   -6.0160    0.8655   -1.2877 C   0  0  0  0  0  0  0  0  0  0  0  0
   -7.0186    1.8414   -1.2813 C   0  0  0  0  0  0  0  0  0  0  0  0
   -7.4233    2.4229   -0.0765 C   0  0  0  0  0  0  0  0  0  0  0  0
   -6.8255    2.0304    1.1240 C   0  0  0  0  0  0  0  0  0  0  0  0
   -5.8219    1.0569    1.1220 C   0  0  0  0  0  0  0  0  0  0  0  0
    4.0727    0.0178   -0.2457 C   0  0  0  0  0  0  0  0  0  0  0  0
    5.5355   -0.4204   -0.4306 C   0  0  0  0  0  0  0  0  0  0  0  0
    6.4095    0.7801   -0.8768 C   0  0  0  0  0  0  0  0  0  0  0  0
    5.9237    2.1388   -0.3112 C   0  0  0  0  0  0  0  0  0  0  0  0
    5.2818    1.9299    1.0543 C   0  0  0  0  0  0  0  0  0  0  0  0
    3.9983    1.0659    0.9096 C   0  0  0  0  0  0  0  0  0  0  0  0
    1.4313    0.0168    0.1086 H   0  0  0  0  0  0  0  0  0  0  0  0
    1.4286   -3.0156    0.4918 H   0  0  0  0  0  0  0  0  0  0  0  0
    0.6138   -1.2829    2.5203 H   0  0  0  0  0  0  0  0  0  0  0  0
   -0.2362   -2.8308    2.1500 H   0  0  0  0  0  0  0  0  0  0  0  0
   -0.7055   -0.0010   -0.1831 H   0  0  0  0  0  0  0  0  0  0  0  0
   -0.7642   -3.1337   -0.2984 H   0  0  0  0  0  0  0  0  0  0  0  0
   -2.0050   -1.8555   -3.0016 H   0  0  0  0  0  0  0  0  0  0  0  0
   -1.2223   -0.2890   -2.5395 H   0  0  0  0  0  0  0  0  0  0  0  0
   -2.7370   -2.2772   -0.7242 H   0  0  0  0  0  0  0  0  0  0  0  0
   -4.0155   -0.8050    0.9529 H   0  0  0  0  0  0  0  0  0  0  0  0
   -4.8394   -1.5221   -0.5023 H   0  0  0  0  0  0  0  0  0  0  0  0
   -5.7165    0.4174   -2.2272 H   0  0  0  0  0  0  0  0  0  0  0  0
   -7.4850    2.1441   -2.2100 H   0  0  0  0  0  0  0  0  0  0  0  0
   -8.2028    3.1737   -0.0722 H   0  0  0  0  0  0  0  0  0  0  0  0
   -7.1425    2.4782    2.0572 H   0  0  0  0  0  0  0  0  0  0  0  0
   -5.3752    0.7597    2.0631 H   0  0  0  0  0  0  0  0  0  0  0  0
    3.7711    0.4945   -1.2059 H   0  0  0  0  0  0  0  0  0  0  0  0
    5.6627   -1.2460   -1.1645 H   0  0  0  0  0  0  0  0  0  0  0  0
    5.8858   -0.7924    0.5590 H   0  0  0  0  0  0  0  0  0  0  0  0
    6.4253    0.8818   -1.9833 H   0  0  0  0  0  0  0  0  0  0  0  0
    7.4467    0.5524   -0.5453 H   0  0  0  0  0  0  0  0  0  0  0  0
    5.1392    2.5703   -0.9714 H   0  0  0  0  0  0  0  0  0  0  0  0
    6.7756    2.8517   -0.2856 H   0  0  0  0  0  0  0  0  0  0  0  0
    5.0302    2.8849    1.5628 H   0  0  0  0  0  0  0  0  0  0  0  0
    6.0328    1.4011    1.6833 H   0  0  0  0  0  0  0  0  0  0  0  0
    3.1147    1.7073    0.7014 H   0  0  0  0  0  0  0  0  0  0  0  0
    3.8403    0.5851    1.9002 H   0  0  0  0  0  0  0  0  0  0  0  0
  1  2  2  0  0  0  0
  2  3  1  0  0  0  0
  2 20  1  0  0  0  0
  3 26  1  0  0  0  0
  4  3  1  0  0  0  0
  4  5  1  0  0  0  0
  4 27  1  1  0  0  0
  5  6  1  0  0  0  0
  5 28  1  0  0  0  0
  5 29  1  0  0  0  0
  7  6  1  0  0  0  0
  7  8  1  0  0  0  0
  7 30  1  6  0  0  0
  8  9  1  0  0  0  0
  8  4  1  0  0  0  0
  8 31  1  1  0  0  0
  9 10  1  0  0  0  0
 10 11  1  0  0  0  0
 10 32  1  0  0  0  0
 10 33  1  0  0  0  0
 11 12  1  0  0  0  0
 11  7  1  0  0  0  0
 11 34  1  1  0  0  0
 12 13  1  0  0  0  0
 13 14  1  0  0  0  0
 13 35  1  0  0  0  0
 13 36  1  0  0  0  0
 14 15  2  0  0  0  0
 15 16  1  0  0  0  0
 15 37  1  0  0  0  0
 16 17  2  0  0  0  0
 16 38  1  0  0  0  0
 17 18  1  0  0  0  0
 17 39  1  0  0  0  0
 18 19  2  0  0  0  0
 18 40  1  0  0  0  0
 19 14  1  0  0  0  0
 19 41  1  0  0  0  0
 20 21  1  0  0  0  0
 20 42  1  0  0  0  0
 21 22  1  0  0  0  0
 21 43  1  0  0  0  0
 21 44  1  0  0  0  0
 22 23  1  0  0  0  0
 22 45  1  0  0  0  0
 22 46  1  0  0  0  0
 23 24  1  0  0  0  0
 23 47  1  0  0  0  0
 23 48  1  0  0  0  0
 24 25  1  0  0  0  0
 24 49  1  0  0  0  0
 24 50  1  0  0  0  0
 25 20  1  0  0  0  0
 25 51  1  0  0  0  0
 25 52  1  0  0  0  0
M  END
>  <IDENTIFIER>
CNP0445681.2

>  <Energy>
689.593

$$$$
