
 OpenBabel09102504023D

 59 62  0  0  0  0  0  0  0  0999 V2000
   -5.2012    1.7564   -1.1467 C   0  0  0  0  0  0  0  0  0  0  0  0
   -3.6991    1.9743   -1.3119 C   0  0  0  0  0  0  0  0  0  0  0  0
   -2.8590    1.1931   -0.2836 C   0  0  2  0  0  0  0  0  0  0  0  0
   -1.3623    1.4849   -0.3908 C   0  0  0  0  0  0  0  0  0  0  0  0
   -0.7971    0.4321    0.5684 C   0  0  2  0  0  0  0  0  0  0  0  0
    0.7637    0.3790    0.6795 C   0  0  1  0  0  0  0  0  0  0  0  0
    1.2442    0.3931    2.1603 C   0  0  0  0  0  0  0  0  0  0  0  0
    2.6754   -0.1540    2.3515 C   0  0  0  0  0  0  0  0  0  0  0  0
    3.5148    0.0853    1.1255 C   0  0  0  0  0  0  0  0  0  0  0  0
    4.6643    0.7888    1.1985 C   0  0  0  0  0  0  0  0  0  0  0  0
    5.4536    1.0802   -0.0201 C   0  0  0  0  0  0  0  0  0  0  0  0
    6.5808    1.5364    0.0870 O   0  0  0  0  0  0  0  0  0  0  0  0
    4.8884    0.8048   -1.3916 C   0  0  0  0  0  0  0  0  0  0  0  0
    3.3744    0.5159   -1.3270 C   0  0  0  0  0  0  0  0  0  0  0  0
    3.0129   -0.5030   -0.2065 C   0  0  1  0  0  0  0  0  0  0  0  0
    3.7330   -1.8501   -0.4697 C   0  0  0  0  0  0  0  0  0  0  0  0
    1.4532   -0.7815   -0.0946 C   0  0  2  0  0  0  0  0  0  0  0  0
    0.7383   -0.9847   -1.4275 C   0  0  0  0  0  0  0  0  0  0  0  0
   -0.7365   -1.4145   -1.2383 C   0  0  0  0  0  0  0  0  0  0  0  0
   -1.4811   -0.8593    0.0551 C   0  0  1  0  0  0  0  0  0  0  0  0
   -1.4777   -1.9593    1.1511 C   0  0  0  0  0  0  0  0  0  0  0  0
   -2.9328   -0.3584   -0.3554 C   0  0  1  0  0  0  0  0  0  0  0  0
   -4.1245   -0.9274    0.4059 C   0  0  0  0  0  0  0  0  0  0  0  0
   -4.3653   -0.6792    1.8692 C   0  0  0  0  0  0  0  0  0  0  0  0
   -4.9422   -1.6065   -0.2006 O   0  0  0  0  0  0  0  0  0  0  0  0
   -5.7479    2.3882   -1.8772 H   0  0  0  0  0  0  0  0  0  0  0  0
   -5.5222    2.0392   -0.1214 H   0  0  0  0  0  0  0  0  0  0  0  0
   -5.4705    0.6998   -1.3417 H   0  0  0  0  0  0  0  0  0  0  0  0
   -3.4965    3.0592   -1.1739 H   0  0  0  0  0  0  0  0  0  0  0  0
   -3.3972    1.6923   -2.3437 H   0  0  0  0  0  0  0  0  0  0  0  0
   -3.1544    1.5291    0.7360 H   0  0  0  0  0  0  0  0  0  0  0  0
   -1.1119    2.5264   -0.0936 H   0  0  0  0  0  0  0  0  0  0  0  0
   -1.0092    1.3159   -1.4300 H   0  0  0  0  0  0  0  0  0  0  0  0
   -1.2055    0.7199    1.5674 H   0  0  0  0  0  0  0  0  0  0  0  0
    1.1324    1.3291    0.2386 H   0  0  0  0  0  0  0  0  0  0  0  0
    0.5906   -0.2239    2.8155 H   0  0  0  0  0  0  0  0  0  0  0  0
    1.1704    1.4455    2.5115 H   0  0  0  0  0  0  0  0  0  0  0  0
    2.6205   -1.2597    2.4521 H   0  0  0  0  0  0  0  0  0  0  0  0
    3.1104    0.2378    3.2967 H   0  0  0  0  0  0  0  0  0  0  0  0
    5.0216    1.1578    2.1559 H   0  0  0  0  0  0  0  0  0  0  0  0
    5.4527   -0.0405   -1.8384 H   0  0  0  0  0  0  0  0  0  0  0  0
    5.0289    1.6878   -2.0515 H   0  0  0  0  0  0  0  0  0  0  0  0
    3.0451    0.1697   -2.3295 H   0  0  0  0  0  0  0  0  0  0  0  0
    2.8625    1.4772   -1.1141 H   0  0  0  0  0  0  0  0  0  0  0  0
    3.4218   -2.2872   -1.4402 H   0  0  0  0  0  0  0  0  0  0  0  0
    3.4932   -2.5788    0.3346 H   0  0  0  0  0  0  0  0  0  0  0  0
    4.8365   -1.7415   -0.4727 H   0  0  0  0  0  0  0  0  0  0  0  0
    1.3254   -1.7127    0.4883 H   0  0  0  0  0  0  0  0  0  0  0  0
    1.2395   -1.7243   -2.0866 H   0  0  0  0  0  0  0  0  0  0  0  0
    0.7625   -0.0076   -1.9555 H   0  0  0  0  0  0  0  0  0  0  0  0
   -0.8139   -2.5237   -1.2312 H   0  0  0  0  0  0  0  0  0  0  0  0
   -1.2106   -1.1085   -2.1948 H   0  0  0  0  0  0  0  0  0  0  0  0
   -2.0526   -2.8447    0.8021 H   0  0  0  0  0  0  0  0  0  0  0  0
   -1.9205   -1.5994    2.0953 H   0  0  0  0  0  0  0  0  0  0  0  0
   -0.4654   -2.3082    1.4122 H   0  0  0  0  0  0  0  0  0  0  0  0
   -3.0971   -0.6359   -1.4182 H   0  0  0  0  0  0  0  0  0  0  0  0
   -3.5750   -0.0448    2.3183 H   0  0  0  0  0  0  0  0  0  0  0  0
   -4.3940   -1.6488    2.4099 H   0  0  0  0  0  0  0  0  0  0  0  0
   -5.3403   -0.1655    2.0001 H   0  0  0  0  0  0  0  0  0  0  0  0
  1  2  1  0  0  0  0
  1 26  1  0  0  0  0
  1 27  1  0  0  0  0
  1 28  1  0  0  0  0
  2 29  1  0  0  0  0
  2 30  1  0  0  0  0
  3  2  1  0  0  0  0
  3  4  1  0  0  0  0
  3 31  1  1  0  0  0
  4 32  1  0  0  0  0
  4 33  1  0  0  0  0
  5  4  1  0  0  0  0
  5  6  1  0  0  0  0
  5 34  1  1  0  0  0
  6  7  1  0  0  0  0
  6 35  1  6  0  0  0
  7  8  1  0  0  0  0
  7 36  1  0  0  0  0
  7 37  1  0  0  0  0
  8  9  1  0  0  0  0
  8 38  1  0  0  0  0
  8 39  1  0  0  0  0
  9 10  2  0  0  0  0
 10 11  1  0  0  0  0
 10 40  1  0  0  0  0
 11 12  2  0  0  0  0
 11 13  1  0  0  0  0
 13 14  1  0  0  0  0
 13 41  1  0  0  0  0
 13 42  1  0  0  0  0
 14 15  1  0  0  0  0
 14 43  1  0  0  0  0
 14 44  1  0  0  0  0
 15 16  1  6  0  0  0
 15 17  1  0  0  0  0
 15  9  1  0  0  0  0
 16 45  1  0  0  0  0
 16 46  1  0  0  0  0
 16 47  1  0  0  0  0
 17 18  1  0  0  0  0
 17  6  1  0  0  0  0
 17 48  1  1  0  0  0
 18 19  1  0  0  0  0
 18 49  1  0  0  0  0
 18 50  1  0  0  0  0
 19 20  1  0  0  0  0
 19 51  1  0  0  0  0
 19 52  1  0  0  0  0
 20 21  1  1  0  0  0
 20 22  1  0  0  0  0
 20  5  1  0  0  0  0
 21 53  1  0  0  0  0
 21 54  1  0  0  0  0
 21 55  1  0  0  0  0
 22 23  1  0  0  0  0
 22  3  1  0  0  0  0
 22 56  1  6  0  0  0
 23 24  1  0  0  0  0
 23 25  2  0  0  0  0
 24 57  1  0  0  0  0
 24 58  1  0  0  0  0
 24 59  1  0  0  0  0
M  END
>  <IDENTIFIER>
CNP0260168.1

>  <Energy>
761.208

$$$$
