
 OpenBabel09082512133D

 56 60  0  0  0  0  0  0  0  0999 V2000
   -5.3893   -1.7020   -0.1894 C   0  0  0  0  0  0  0  0  0  0  0  0
   -4.1983   -2.1677    0.2224 C   0  0  0  0  0  0  0  0  0  0  0  0
   -4.2236   -3.5461    0.8634 C   0  0  0  0  0  0  0  0  0  0  0  0
   -2.8716   -1.4247    0.0751 C   0  0  0  0  0  0  0  0  0  0  0  0
   -1.6836   -2.1817    0.2917 C   0  0  0  0  0  0  0  0  0  0  0  0
   -0.3931   -1.6234    0.1850 C   0  0  0  0  0  0  0  0  0  0  0  0
   -0.2555   -0.2668   -0.1327 C   0  0  0  0  0  0  0  0  0  0  0  0
    0.9467    0.2872   -0.2354 O   0  0  0  0  0  0  0  0  0  0  0  0
    2.0773   -0.3875   -0.0515 C   0  0  0  0  0  0  0  0  0  0  0  0
    3.3103    0.2765   -0.1758 C   0  0  0  0  0  0  0  0  0  0  0  0
    3.3905    1.7083   -0.5126 C   0  0  0  0  0  0  0  0  0  0  0  0
    4.5811    2.3108   -0.6124 C   0  0  0  0  0  0  0  0  0  0  0  0
    5.8896    1.5645   -0.3855 C   0  0  0  0  0  0  0  0  0  0  0  0
    6.6299    2.2188    0.7874 C   0  0  0  0  0  0  0  0  0  0  0  0
    6.7413    1.6576   -1.6572 C   0  0  0  0  0  0  0  0  0  0  0  0
    5.6989    0.2169   -0.0850 O   0  0  0  0  0  0  0  0  0  0  0  0
    4.5062   -0.4202    0.0232 C   0  0  0  0  0  0  0  0  0  0  0  0
    4.4799   -1.7787    0.3390 C   0  0  0  0  0  0  0  0  0  0  0  0
    3.2613   -2.4622    0.4652 C   0  0  0  0  0  0  0  0  0  0  0  0
    3.2681   -3.7774    0.7725 O   0  0  0  0  0  0  0  0  0  0  0  0
    2.0413   -1.7668    0.2719 C   0  0  0  0  0  0  0  0  0  0  0  0
    0.7758   -2.3851    0.3901 C   0  0  0  0  0  0  0  0  0  0  0  0
    0.6877   -3.5712    0.6679 O   0  0  0  0  0  0  0  0  0  0  0  0
   -1.4026    0.4955   -0.3310 C   0  0  0  0  0  0  0  0  0  0  0  0
   -2.6883   -0.0295   -0.2398 C   0  0  0  0  0  0  0  0  0  0  0  0
   -3.6887    1.1050   -0.5210 C   0  0  1  0  0  0  0  0  0  0  0  0
   -4.3830    0.8706   -1.7247 O   0  0  0  0  0  0  0  0  0  0  0  0
   -4.6636    1.3120    0.6233 C   0  0  0  0  0  0  0  0  0  0  0  0
   -4.2385    1.4897    1.7579 O   0  0  0  0  0  0  0  0  0  0  0  0
   -5.9998    1.3413    0.3774 O   0  0  0  0  0  0  0  0  0  0  0  0
   -6.9604    1.5280    1.3478 C   0  0  0  0  0  0  0  0  0  0  0  0
   -2.8348    2.3986   -0.6914 C   0  0  0  0  0  0  0  0  0  0  0  0
   -1.4420    1.9093   -0.6347 C   0  0  0  0  0  0  0  0  0  0  0  0
   -0.4605    2.6260   -0.7559 O   0  0  0  0  0  0  0  0  0  0  0  0
   -6.2984   -2.2814   -0.0577 H   0  0  0  0  0  0  0  0  0  0  0  0
   -5.5326   -0.7775   -0.6874 H   0  0  0  0  0  0  0  0  0  0  0  0
   -5.2477   -3.9698    0.9511 H   0  0  0  0  0  0  0  0  0  0  0  0
   -3.8034   -3.4845    1.8895 H   0  0  0  0  0  0  0  0  0  0  0  0
   -3.6391   -4.2676    0.2566 H   0  0  0  0  0  0  0  0  0  0  0  0
   -1.7379   -3.2292    0.5390 H   0  0  0  0  0  0  0  0  0  0  0  0
    2.4878    2.2874   -0.6819 H   0  0  0  0  0  0  0  0  0  0  0  0
    4.6133    3.3686   -0.8599 H   0  0  0  0  0  0  0  0  0  0  0  0
    6.8320    3.2921    0.5791 H   0  0  0  0  0  0  0  0  0  0  0  0
    7.5983    1.7053    0.9699 H   0  0  0  0  0  0  0  0  0  0  0  0
    6.0177    2.1470    1.7125 H   0  0  0  0  0  0  0  0  0  0  0  0
    6.9471    2.7183   -1.9192 H   0  0  0  0  0  0  0  0  0  0  0  0
    6.2125    1.1777   -2.5087 H   0  0  0  0  0  0  0  0  0  0  0  0
    7.7120    1.1361   -1.5111 H   0  0  0  0  0  0  0  0  0  0  0  0
    5.4141   -2.3063    0.4890 H   0  0  0  0  0  0  0  0  0  0  0  0
    4.0879   -4.2739    0.9086 H   0  0  0  0  0  0  0  0  0  0  0  0
   -3.7179    0.6318   -2.4235 H   0  0  0  0  0  0  0  0  0  0  0  0
   -7.9626    1.5196    0.8719 H   0  0  0  0  0  0  0  0  0  0  0  0
   -6.8120    2.5073    1.8508 H   0  0  0  0  0  0  0  0  0  0  0  0
   -6.9120    0.7079    2.0954 H   0  0  0  0  0  0  0  0  0  0  0  0
   -2.9603    3.1246    0.1427 H   0  0  0  0  0  0  0  0  0  0  0  0
   -3.0453    2.9095   -1.6560 H   0  0  0  0  0  0  0  0  0  0  0  0
  1  2  2  0  0  0  0
  1 35  1  0  0  0  0
  1 36  1  0  0  0  0
  2  3  1  0  0  0  0
  2  4  1  0  0  0  0
  3 37  1  0  0  0  0
  3 38  1  0  0  0  0
  3 39  1  0  0  0  0
  4  5  2  0  0  0  0
  5  6  1  0  0  0  0
  5 40  1  0  0  0  0
  6  7  2  0  0  0  0
  7  8  1  0  0  0  0
  7 24  1  0  0  0  0
  8  9  1  0  0  0  0
  9 10  2  0  0  0  0
 10 11  1  0  0  0  0
 11 12  2  0  0  0  0
 11 41  1  0  0  0  0
 12 13  1  0  0  0  0
 12 42  1  0  0  0  0
 13 14  1  0  0  0  0
 13 15  1  0  0  0  0
 13 16  1  0  0  0  0
 14 43  1  0  0  0  0
 14 44  1  0  0  0  0
 14 45  1  0  0  0  0
 15 46  1  0  0  0  0
 15 47  1  0  0  0  0
 15 48  1  0  0  0  0
 16 17  1  0  0  0  0
 17 18  2  0  0  0  0
 17 10  1  0  0  0  0
 18 19  1  0  0  0  0
 18 49  1  0  0  0  0
 19 20  1  0  0  0  0
 19 21  2  0  0  0  0
 20 50  1  0  0  0  0
 21 22  1  0  0  0  0
 21  9  1  0  0  0  0
 22 23  2  0  0  0  0
 22  6  1  0  0  0  0
 24 25  2  0  0  0  0
 25 26  1  0  0  0  0
 25  4  1  0  0  0  0
 26 27  1  6  0  0  0
 26 28  1  0  0  0  0
 26 32  1  0  0  0  0
 27 51  1  0  0  0  0
 28 29  2  0  0  0  0
 28 30  1  0  0  0  0
 30 31  1  0  0  0  0
 31 52  1  0  0  0  0
 31 53  1  0  0  0  0
 31 54  1  0  0  0  0
 32 33  1  0  0  0  0
 32 55  1  0  0  0  0
 32 56  1  0  0  0  0
 33 34  2  0  0  0  0
 33 24  1  0  0  0  0
M  END
>  <IDENTIFIER>
CNP0155025.2

>  <Energy>
504.92

$$$$
