
 OpenBabel09112503193D

 18 17  0  0  0  0  0  0  0  0999 V2000
   -2.4367    0.5018    0.2278 C   0  0  0  0  0  0  0  0  0  0  0  0
   -0.9669    0.9032    0.1768 C   0  0  0  0  0  0  0  0  0  0  0  0
   -0.0922   -0.1584   -0.5076 C   0  0  0  0  0  0  0  0  0  0  0  0
   -0.1874   -1.4459    0.2071 C   0  0  0  0  0  0  0  0  0  0  0  0
   -0.2609   -2.4555    0.7717 N   0  0  0  0  0  0  0  0  0  0  0  0
    1.3643    0.3309   -0.5206 C   0  0  0  0  0  0  0  0  0  0  0  0
    2.2942   -0.6489   -1.2281 C   0  0  0  0  0  0  0  0  0  0  0  0
   -3.0106    1.2982    0.7434 H   0  0  0  0  0  0  0  0  0  0  0  0
   -2.5614   -0.4431    0.7977 H   0  0  0  0  0  0  0  0  0  0  0  0
   -2.8308    0.3668   -0.8014 H   0  0  0  0  0  0  0  0  0  0  0  0
   -0.6016    1.0684    1.2137 H   0  0  0  0  0  0  0  0  0  0  0  0
   -0.8846    1.8624   -0.3822 H   0  0  0  0  0  0  0  0  0  0  0  0
   -0.4432   -0.2988   -1.5584 H   0  0  0  0  0  0  0  0  0  0  0  0
    1.7149    0.4749    0.5254 H   0  0  0  0  0  0  0  0  0  0  0  0
    1.4221    1.3100   -1.0466 H   0  0  0  0  0  0  0  0  0  0  0  0
    2.2835   -1.6340   -0.7158 H   0  0  0  0  0  0  0  0  0  0  0  0
    3.3295   -0.2522   -1.2028 H   0  0  0  0  0  0  0  0  0  0  0  0
    1.9728   -0.7793   -2.2829 H   0  0  0  0  0  0  0  0  0  0  0  0
  1  2  1  0  0  0  0
  1  8  1  0  0  0  0
  1  9  1  0  0  0  0
  1 10  1  0  0  0  0
  2  3  1  0  0  0  0
  2 11  1  0  0  0  0
  2 12  1  0  0  0  0
  3  4  1  0  0  0  0
  3  6  1  0  0  0  0
  3 13  1  0  0  0  0
  4  5  3  0  0  0  0
  6  7  1  0  0  0  0
  6 14  1  0  0  0  0
  6 15  1  0  0  0  0
  7 16  1  0  0  0  0
  7 17  1  0  0  0  0
  7 18  1  0  0  0  0
M  END
>  <IDENTIFIER>
CNP0152089.0

>  <Energy>
26.6818

$$$$
