
 OpenBabel09072515213D

 66 70  0  0  0  0  0  0  0  0999 V2000
   -2.5100    2.7466    2.3100 C   0  0  0  0  0  0  0  0  0  0  0  0
   -2.3599    2.0117    1.1516 O   0  0  0  0  0  0  0  0  0  0  0  0
   -2.3119    0.6531    1.1303 C   0  0  0  0  0  0  0  0  0  0  0  0
   -2.5052    0.0354    2.1710 O   0  0  0  0  0  0  0  0  0  0  0  0
   -2.0637   -0.1073   -0.2216 C   0  0  2  0  0  0  0  0  0  0  0  0
   -3.2757    0.3245   -1.0348 C   0  0  0  0  0  0  0  0  0  0  0  0
   -3.3496    1.3336   -1.9297 O   0  0  0  0  0  0  0  0  0  0  0  0
   -4.3442   -0.3989   -0.6557 C   0  0  0  0  0  0  0  0  0  0  0  0
   -5.7561   -0.1957   -1.1215 C   0  0  0  0  0  0  0  0  0  0  0  0
   -3.8897   -1.4919    0.2299 C   0  0  0  0  0  0  0  0  0  0  0  0
   -4.6303   -2.3625    0.6615 O   0  0  0  0  0  0  0  0  0  0  0  0
   -2.4045   -1.6498   -0.0360 C   0  0  1  0  0  0  0  0  0  0  0  0
   -2.3885   -2.6056   -1.2747 C   0  0  0  0  0  0  0  0  0  0  0  0
   -1.4498   -2.2779    0.9834 C   0  0  0  0  0  0  0  0  0  0  0  0
   -1.8104   -3.5576    1.6933 C   0  0  0  0  0  0  0  0  0  0  0  0
   -0.2113   -1.7457    1.2003 C   0  0  0  0  0  0  0  0  0  0  0  0
    0.3182   -0.4670    0.5322 C   0  0  1  0  0  0  0  0  0  0  0  0
    1.8864   -0.2674    0.5168 C   0  0  1  0  0  0  0  0  0  0  0  0
    2.4125    0.3350    1.8634 C   0  0  0  0  0  0  0  0  0  0  0  0
    3.9675    0.3291    1.9045 C   0  0  0  0  0  0  0  0  0  0  0  0
    4.5159   -0.0171    0.4934 C   0  0  1  0  0  0  0  0  0  0  0  0
    4.0685   -1.3126    0.2223 O   0  0  0  0  0  0  0  0  0  0  0  0
    2.7212   -1.5236    0.2704 C   0  0  0  0  0  0  0  0  0  0  0  0
    2.2492   -2.6311    0.0708 O   0  0  0  0  0  0  0  0  0  0  0  0
    3.9137    0.9648   -0.5789 C   0  0  0  0  0  0  0  0  0  0  0  0
    4.5708    0.6883   -1.9513 C   0  0  0  0  0  0  0  0  0  0  0  0
    4.2469    2.4334   -0.2048 C   0  0  0  0  0  0  0  0  0  0  0  0
    2.3481    0.6701   -0.6522 C   0  0  2  0  0  0  0  0  0  0  0  0
    1.4230    1.8701   -1.0107 C   0  0  0  0  0  0  0  0  0  0  0  0
   -0.0943    1.6323   -0.7594 C   0  0  0  0  0  0  0  0  0  0  0  0
   -0.5405    0.1274   -0.6722 C   0  0  2  0  0  0  0  0  0  0  0  0
   -0.2847   -0.5177   -2.0635 C   0  0  0  0  0  0  0  0  0  0  0  0
   -2.5109    3.8275    2.0615 H   0  0  0  0  0  0  0  0  0  0  0  0
   -1.6654    2.5402    3.0024 H   0  0  0  0  0  0  0  0  0  0  0  0
   -3.4700    2.4890    2.8074 H   0  0  0  0  0  0  0  0  0  0  0  0
   -2.5865    1.8439   -2.2130 H   0  0  0  0  0  0  0  0  0  0  0  0
   -5.8340    0.6713   -1.8103 H   0  0  0  0  0  0  0  0  0  0  0  0
   -6.4093   -0.0098   -0.2436 H   0  0  0  0  0  0  0  0  0  0  0  0
   -6.1069   -1.1052   -1.6521 H   0  0  0  0  0  0  0  0  0  0  0  0
   -2.9122   -3.5539   -1.0220 H   0  0  0  0  0  0  0  0  0  0  0  0
   -1.3946   -2.9594   -1.5758 H   0  0  0  0  0  0  0  0  0  0  0  0
   -2.9112   -2.1704   -2.1536 H   0  0  0  0  0  0  0  0  0  0  0  0
   -2.8160   -3.9207    1.4050 H   0  0  0  0  0  0  0  0  0  0  0  0
   -1.7976   -3.3947    2.7912 H   0  0  0  0  0  0  0  0  0  0  0  0
   -1.0752   -4.3485    1.4325 H   0  0  0  0  0  0  0  0  0  0  0  0
    0.4389   -2.2336    1.9221 H   0  0  0  0  0  0  0  0  0  0  0  0
    0.0638    0.2343    1.3497 H   0  0  0  0  0  0  0  0  0  0  0  0
    2.0332   -0.2108    2.7547 H   0  0  0  0  0  0  0  0  0  0  0  0
    2.0387    1.3813    1.9297 H   0  0  0  0  0  0  0  0  0  0  0  0
    4.3143   -0.4839    2.5803 H   0  0  0  0  0  0  0  0  0  0  0  0
    4.3541    1.2772    2.3345 H   0  0  0  0  0  0  0  0  0  0  0  0
    5.6270    0.0131    0.5055 H   0  0  0  0  0  0  0  0  0  0  0  0
    5.6674    0.8640   -1.9035 H   0  0  0  0  0  0  0  0  0  0  0  0
    4.1409    1.3532   -2.7311 H   0  0  0  0  0  0  0  0  0  0  0  0
    4.4101   -0.3654   -2.2653 H   0  0  0  0  0  0  0  0  0  0  0  0
    5.3448    2.5680   -0.0996 H   0  0  0  0  0  0  0  0  0  0  0  0
    3.7635    2.7486    0.7408 H   0  0  0  0  0  0  0  0  0  0  0  0
    3.9032    3.1292   -1.0002 H   0  0  0  0  0  0  0  0  0  0  0  0
    2.2285   -0.0074   -1.5145 H   0  0  0  0  0  0  0  0  0  0  0  0
    1.6025    2.0918   -2.0862 H   0  0  0  0  0  0  0  0  0  0  0  0
    1.6800    2.7939   -0.4525 H   0  0  0  0  0  0  0  0  0  0  0  0
   -0.6656    2.2546   -1.4674 H   0  0  0  0  0  0  0  0  0  0  0  0
   -0.2607    2.0880    0.2322 H   0  0  0  0  0  0  0  0  0  0  0  0
    0.5452   -0.0780   -2.6365 H   0  0  0  0  0  0  0  0  0  0  0  0
   -1.1526   -0.3573   -2.7354 H   0  0  0  0  0  0  0  0  0  0  0  0
   -0.0078   -1.5741   -1.9775 H   0  0  0  0  0  0  0  0  0  0  0  0
  1  2  1  0  0  0  0
  1 33  1  0  0  0  0
  1 34  1  0  0  0  0
  1 35  1  0  0  0  0
  2  3  1  0  0  0  0
  3  4  2  0  0  0  0
  5  3  1  1  0  0  0
  5  6  1  0  0  0  0
  6  7  1  0  0  0  0
  6  8  2  0  0  0  0
  7 36  1  0  0  0  0
  8  9  1  0  0  0  0
  8 10  1  0  0  0  0
  9 37  1  0  0  0  0
  9 38  1  0  0  0  0
  9 39  1  0  0  0  0
 10 11  2  0  0  0  0
 10 12  1  0  0  0  0
 12 13  1  6  0  0  0
 12 14  1  0  0  0  0
 12  5  1  0  0  0  0
 13 40  1  0  0  0  0
 13 41  1  0  0  0  0
 13 42  1  0  0  0  0
 14 15  1  0  0  0  0
 14 16  2  0  0  0  0
 15 43  1  0  0  0  0
 15 44  1  0  0  0  0
 15 45  1  0  0  0  0
 16 46  1  0  0  0  0
 17 16  1  0  0  0  0
 17 18  1  0  0  0  0
 17 47  1  1  0  0  0
 18 19  1  0  0  0  0
 18 23  1  6  0  0  0
 19 20  1  0  0  0  0
 19 48  1  0  0  0  0
 19 49  1  0  0  0  0
 20 50  1  0  0  0  0
 20 51  1  0  0  0  0
 21 20  1  0  0  0  0
 21 22  1  0  0  0  0
 21 25  1  0  0  0  0
 21 52  1  6  0  0  0
 22 23  1  0  0  0  0
 23 24  2  0  0  0  0
 25 26  1  0  0  0  0
 25 27  1  0  0  0  0
 25 28  1  0  0  0  0
 26 53  1  0  0  0  0
 26 54  1  0  0  0  0
 26 55  1  0  0  0  0
 27 56  1  0  0  0  0
 27 57  1  0  0  0  0
 27 58  1  0  0  0  0
 28 29  1  0  0  0  0
 28 18  1  0  0  0  0
 28 59  1  6  0  0  0
 29 30  1  0  0  0  0
 29 60  1  0  0  0  0
 29 61  1  0  0  0  0
 30 31  1  0  0  0  0
 30 62  1  0  0  0  0
 30 63  1  0  0  0  0
 31 32  1  6  0  0  0
 31 17  1  0  0  0  0
 31  5  1  0  0  0  0
 32 64  1  0  0  0  0
 32 65  1  0  0  0  0
 32 66  1  0  0  0  0
M  END
>  <IDENTIFIER>
CNP0347110.3

>  <Energy>
1210.37

$$$$
