
 OpenBabel09062523593D

 15 15  0  0  0  0  0  0  0  0999 V2000
    3.0384   -1.2082   -0.2139 O   0  0  0  0  0  0  0  0  0  0  0  0
    1.9671   -0.6467   -0.0600 C   0  0  0  0  0  0  0  0  0  0  0  0
    0.7217   -1.0499   -0.6693 C   0  0  0  0  0  0  0  0  0  0  0  0
   -0.1821   -0.1821   -0.2431 C   0  0  0  0  0  0  0  0  0  0  0  0
   -1.6382   -0.2025   -0.6105 C   0  0  0  0  0  0  0  0  0  0  0  0
   -2.4270   -0.3156    0.5418 O   0  0  0  0  0  0  0  0  0  0  0  0
    0.4723    0.8276    0.6710 C   0  0  2  0  0  0  0  0  0  0  0  0
    0.3477    2.1320    0.1672 O   0  0  0  0  0  0  0  0  0  0  0  0
    1.8013    0.4413    0.7133 O   0  0  0  0  0  0  0  0  0  0  0  0
    0.5528   -1.8874   -1.3345 H   0  0  0  0  0  0  0  0  0  0  0  0
   -1.8712   -1.0330   -1.3150 H   0  0  0  0  0  0  0  0  0  0  0  0
   -1.8925    0.7483   -1.1231 H   0  0  0  0  0  0  0  0  0  0  0  0
   -2.2982   -1.2391    0.8832 H   0  0  0  0  0  0  0  0  0  0  0  0
    0.0292    0.7778    1.6882 H   0  0  0  0  0  0  0  0  0  0  0  0
    0.8495    2.1676   -0.6896 H   0  0  0  0  0  0  0  0  0  0  0  0
  1  2  2  0  0  0  0
  2  3  1  0  0  0  0
  3  4  2  0  0  0  0
  3 10  1  0  0  0  0
  4  5  1  0  0  0  0
  4  7  1  0  0  0  0
  5  6  1  0  0  0  0
  5 11  1  0  0  0  0
  5 12  1  0  0  0  0
  6 13  1  0  0  0  0
  7  8  1  0  0  0  0
  7  9  1  0  0  0  0
  7 14  1  1  0  0  0
  8 15  1  0  0  0  0
  9  2  1  0  0  0  0
M  END
>  <IDENTIFIER>
CNP0131772.0

>  <Energy>
138.246

$$$$
