
 OpenBabel09062509043D

 81 85  0  0  0  0  0  0  0  0999 V2000
    7.9956    1.4261    0.5608 C   0  0  0  0  0  0  0  0  0  0  0  0
    6.8711    0.3696    0.5974 C   0  0  0  0  0  0  0  0  0  0  0  0
    7.5148   -1.0050    0.3263 C   0  0  0  0  0  0  0  0  0  0  0  0
    5.6938    0.7860   -0.3614 C   0  0  1  0  0  0  0  0  0  0  0  0
    6.0887    0.7715   -1.8499 C   0  0  0  0  0  0  0  0  0  0  0  0
    4.3235    0.0262   -0.1781 C   0  0  1  0  0  0  0  0  0  0  0  0
    4.2686   -1.4880   -0.4685 C   0  0  0  0  0  0  0  0  0  0  0  0
    3.6239    0.3423    1.1292 C   0  0  0  0  0  0  0  0  0  0  0  0
    3.0405    0.9288   -0.1751 C   0  0  2  0  0  0  0  0  0  0  0  0
    1.8373    0.3984   -1.0432 C   0  0  1  0  0  0  0  0  0  0  0  0
    2.2614   -0.0487   -2.4574 C   0  0  0  0  0  0  0  0  0  0  0  0
    0.6547   -0.4684   -0.4509 C   0  0  1  0  0  0  0  0  0  0  0  0
    0.8556   -1.8061    0.3243 C   0  0  0  0  0  0  0  0  0  0  0  0
   -0.3866   -1.9433    1.2302 C   0  0  0  0  0  0  0  0  0  0  0  0
   -1.3929   -0.9613    0.6258 C   0  0  1  0  0  0  0  0  0  0  0  0
   -2.6631   -0.5423    1.4176 C   0  0  2  0  0  0  0  0  0  0  0  0
   -3.6688   -1.7363    1.6047 C   0  0  2  0  0  0  0  0  0  0  0  0
   -3.0480   -2.9295    2.0129 O   0  0  0  0  0  0  0  0  0  0  0  0
   -4.5303   -1.9037    0.3807 C   0  0  0  0  0  0  0  0  0  0  0  0
   -5.1026   -0.8167   -0.1670 C   0  0  0  0  0  0  0  0  0  0  0  0
   -5.8889   -0.9460   -1.4616 C   0  0  0  0  0  0  0  0  0  0  0  0
   -7.1920   -0.1328   -1.3483 C   0  0  1  0  0  0  0  0  0  0  0  0
   -8.0977   -0.7236   -0.4434 O   0  0  0  0  0  0  0  0  0  0  0  0
   -6.9167    1.3556   -0.9704 C   0  0  0  0  0  0  0  0  0  0  0  0
   -5.4434    1.6312   -0.5622 C   0  0  0  0  0  0  0  0  0  0  0  0
   -4.8791    0.5809    0.4530 C   0  0  1  0  0  0  0  0  0  0  0  0
   -5.6554    0.8118    1.7896 C   0  0  0  0  0  0  0  0  0  0  0  0
   -3.3171    0.7347    0.6715 C   0  0  1  0  0  0  0  0  0  0  0  0
   -3.0653    1.9039    1.4228 O   0  0  0  0  0  0  0  0  0  0  0  0
   -2.7394    0.8699   -0.6320 O   0  0  0  0  0  0  0  0  0  0  0  0
   -1.3546    1.1935   -0.6279 C   0  0  0  0  0  0  0  0  0  0  0  0
   -0.5041    0.2560    0.2870 C   0  0  2  0  0  0  0  0  0  0  0  0
    0.0283    1.0508    1.5160 C   0  0  0  0  0  0  0  0  0  0  0  0
    8.7742    1.1867    1.3165 H   0  0  0  0  0  0  0  0  0  0  0  0
    7.5945    2.4335    0.8001 H   0  0  0  0  0  0  0  0  0  0  0  0
    8.4930    1.4630   -0.4303 H   0  0  0  0  0  0  0  0  0  0  0  0
    6.4771    0.3733    1.6371 H   0  0  0  0  0  0  0  0  0  0  0  0
    7.9383   -1.0575   -0.6978 H   0  0  0  0  0  0  0  0  0  0  0  0
    6.8257   -1.8443    0.4726 H   0  0  0  0  0  0  0  0  0  0  0  0
    8.3451   -1.1770    1.0453 H   0  0  0  0  0  0  0  0  0  0  0  0
    5.5013    1.8515   -0.1076 H   0  0  0  0  0  0  0  0  0  0  0  0
    6.3241   -0.2542   -2.1984 H   0  0  0  0  0  0  0  0  0  0  0  0
    6.9653    1.4184   -2.0463 H   0  0  0  0  0  0  0  0  0  0  0  0
    5.2536    1.1652   -2.4646 H   0  0  0  0  0  0  0  0  0  0  0  0
    4.7803   -2.0749    0.3091 H   0  0  0  0  0  0  0  0  0  0  0  0
    4.7098   -1.7062   -1.4618 H   0  0  0  0  0  0  0  0  0  0  0  0
    3.2525   -1.8864   -0.4945 H   0  0  0  0  0  0  0  0  0  0  0  0
    3.9857    1.2094    1.7213 H   0  0  0  0  0  0  0  0  0  0  0  0
    2.8462   -0.2874    1.5700 H   0  0  0  0  0  0  0  0  0  0  0  0
    3.3901    1.9320   -0.4986 H   0  0  0  0  0  0  0  0  0  0  0  0
    1.3193    1.3519   -1.2835 H   0  0  0  0  0  0  0  0  0  0  0  0
    2.7129   -1.0531   -2.4862 H   0  0  0  0  0  0  0  0  0  0  0  0
    2.9656    0.6892   -2.8953 H   0  0  0  0  0  0  0  0  0  0  0  0
    1.3734   -0.0786   -3.1253 H   0  0  0  0  0  0  0  0  0  0  0  0
    0.1196   -0.8159   -1.3676 H   0  0  0  0  0  0  0  0  0  0  0  0
    1.7133   -1.9067    1.0044 H   0  0  0  0  0  0  0  0  0  0  0  0
    0.9157   -2.6280   -0.4229 H   0  0  0  0  0  0  0  0  0  0  0  0
   -0.1379   -1.5637    2.2437 H   0  0  0  0  0  0  0  0  0  0  0  0
   -0.6861   -2.9986    1.3662 H   0  0  0  0  0  0  0  0  0  0  0  0
   -1.7468   -1.4200   -0.3295 H   0  0  0  0  0  0  0  0  0  0  0  0
   -2.3441   -0.2438    2.4401 H   0  0  0  0  0  0  0  0  0  0  0  0
   -4.3625   -1.5010    2.4177 H   0  0  0  0  0  0  0  0  0  0  0  0
   -2.8483   -3.4745    1.2079 H   0  0  0  0  0  0  0  0  0  0  0  0
   -4.6367   -2.8775   -0.0897 H   0  0  0  0  0  0  0  0  0  0  0  0
   -6.0930   -2.0051   -1.7347 H   0  0  0  0  0  0  0  0  0  0  0  0
   -5.2834   -0.5101   -2.2844 H   0  0  0  0  0  0  0  0  0  0  0  0
   -7.6980   -0.1566   -2.3381 H   0  0  0  0  0  0  0  0  0  0  0  0
   -7.6148   -0.9852    0.3799 H   0  0  0  0  0  0  0  0  0  0  0  0
   -7.6220    1.6668   -0.1716 H   0  0  0  0  0  0  0  0  0  0  0  0
   -7.1380    2.0094   -1.8428 H   0  0  0  0  0  0  0  0  0  0  0  0
   -5.3429    2.6749   -0.1947 H   0  0  0  0  0  0  0  0  0  0  0  0
   -4.8502    1.5776   -1.4996 H   0  0  0  0  0  0  0  0  0  0  0  0
   -5.5349    1.8677    2.1102 H   0  0  0  0  0  0  0  0  0  0  0  0
   -5.3354    0.2270    2.6570 H   0  0  0  0  0  0  0  0  0  0  0  0
   -6.7413    0.6364    1.6714 H   0  0  0  0  0  0  0  0  0  0  0  0
   -3.2495    2.6863    0.8440 H   0  0  0  0  0  0  0  0  0  0  0  0
   -1.1743    2.2744   -0.4422 H   0  0  0  0  0  0  0  0  0  0  0  0
   -1.0387    1.0463   -1.6815 H   0  0  0  0  0  0  0  0  0  0  0  0
    0.6599    1.8956    1.1684 H   0  0  0  0  0  0  0  0  0  0  0  0
    0.6558    0.4425    2.1919 H   0  0  0  0  0  0  0  0  0  0  0  0
   -0.7877    1.4856    2.1210 H   0  0  0  0  0  0  0  0  0  0  0  0
  1  2  1  0  0  0  0
  1 34  1  0  0  0  0
  1 35  1  0  0  0  0
  1 36  1  0  0  0  0
  2  3  1  0  0  0  0
  2  4  1  0  0  0  0
  2 37  1  0  0  0  0
  3 38  1  0  0  0  0
  3 39  1  0  0  0  0
  3 40  1  0  0  0  0
  4  5  1  0  0  0  0
  4  6  1  0  0  0  0
  4 41  1  1  0  0  0
  5 42  1  0  0  0  0
  5 43  1  0  0  0  0
  5 44  1  0  0  0  0
  6  7  1  6  0  0  0
  6  8  1  0  0  0  0
  7 45  1  0  0  0  0
  7 46  1  0  0  0  0
  7 47  1  0  0  0  0
  8 48  1  0  0  0  0
  8 49  1  0  0  0  0
  9  8  1  0  0  0  0
  9 10  1  0  0  0  0
  9  6  1  0  0  0  0
  9 50  1  6  0  0  0
 10 11  1  0  0  0  0
 10 12  1  0  0  0  0
 10 51  1  6  0  0  0
 11 52  1  0  0  0  0
 11 53  1  0  0  0  0
 11 54  1  0  0  0  0
 12 13  1  0  0  0  0
 12 55  1  6  0  0  0
 13 14  1  0  0  0  0
 13 56  1  0  0  0  0
 13 57  1  0  0  0  0
 14 58  1  0  0  0  0
 14 59  1  0  0  0  0
 15 14  1  0  0  0  0
 15 16  1  0  0  0  0
 15 60  1  6  0  0  0
 16 17  1  0  0  0  0
 16 61  1  1  0  0  0
 17 18  1  0  0  0  0
 17 19  1  0  0  0  0
 17 62  1  1  0  0  0
 18 63  1  0  0  0  0
 19 20  2  0  0  0  0
 19 64  1  0  0  0  0
 20 21  1  0  0  0  0
 21 22  1  0  0  0  0
 21 65  1  0  0  0  0
 21 66  1  0  0  0  0
 22 23  1  0  0  0  0
 22 24  1  0  0  0  0
 22 67  1  6  0  0  0
 23 68  1  0  0  0  0
 24 25  1  0  0  0  0
 24 69  1  0  0  0  0
 24 70  1  0  0  0  0
 25 26  1  0  0  0  0
 25 71  1  0  0  0  0
 25 72  1  0  0  0  0
 26 27  1  1  0  0  0
 26 28  1  0  0  0  0
 26 20  1  0  0  0  0
 27 73  1  0  0  0  0
 27 74  1  0  0  0  0
 27 75  1  0  0  0  0
 28 29  1  1  0  0  0
 28 30  1  0  0  0  0
 28 16  1  0  0  0  0
 29 76  1  0  0  0  0
 30 31  1  0  0  0  0
 31 32  1  0  0  0  0
 31 77  1  0  0  0  0
 31 78  1  0  0  0  0
 32 33  1  1  0  0  0
 32 12  1  0  0  0  0
 32 15  1  0  0  0  0
 33 79  1  0  0  0  0
 33 80  1  0  0  0  0
 33 81  1  0  0  0  0
M  END
>  <IDENTIFIER>
CNP0436023.1

>  <Energy>
2550.28

$$$$
