
 OpenBabel09092510552D

157156  0  0  0  0  0  0  0  0999 V2000
   27.2798   15.7500    0.0000 C   0  0  0  0  0  0  0  0  0  0  0  0
   25.9808   15.0000    0.0000 C   0  0  0  0  0  0  0  0  0  0  0  0
   24.3298   14.6886    0.0175 C   0  0  0  0  0  0  0  0  0  0  0  0
   23.7284   13.0969   -0.0069 C   0  0  0  0  0  0  0  0  0  0  0  0
   22.0836   12.7500    0.0000 C   0  0  0  0  0  0  0  0  0  0  0  0
   20.7846   12.0000    0.0000 C   0  0  0  0  0  2  0  0  0  0  0  0
   19.4856   11.2500    0.0000 C   0  0  0  0  0  0  0  0  0  0  0  0
   18.1865   10.5000    0.0000 C   0  0  0  0  0  0  0  0  0  0  0  0
   16.8875    9.7500    0.0000 C   0  0  0  0  0  2  0  0  0  0  0  0
   15.5885    9.0000    0.0000 C   0  0  0  0  0  0  0  0  0  0  0  0
   13.9435    8.6543   -0.0016 C   0  0  0  0  0  0  0  0  0  0  0  0
   13.3417    7.0628    0.0159 C   0  0  0  0  0  0  0  0  0  0  0  0
   11.6913    6.7500    0.0000 C   0  0  0  0  0  0  0  0  0  0  0  0
   10.3923    6.0000    0.0000 C   0  0  0  0  0  0  0  0  0  0  0  0
    9.0933    5.2500    0.0000 C   0  0  0  0  0  0  0  0  0  0  0  0
    7.7942    4.5000    0.0000 C   0  0  0  0  0  0  0  0  0  0  0  0
    6.4952    3.7500    0.0000 C   0  0  0  0  0  0  0  0  0  0  0  0
    5.1962    3.0000    0.0000 C   0  0  0  0  0  0  0  0  0  0  0  0
    3.5765    2.7519   -0.1420 C   0  0  0  0  0  0  0  0  0  0  0  0
    3.0076    1.2240    0.2125 C   0  0  0  0  0  0  0  0  0  0  0  0
    1.4315    0.8019   -0.0153 C   0  0  0  0  0  0  0  0  0  0  0  0
    0.7288   -0.5499    0.5693 C   0  0  0  0  0  0  0  0  0  0  0  0
    0.7479   -0.6979    1.7805 O   0  0  0  0  0  0  0  0  0  0  0  0
   -0.0500   -1.4701   -0.2028 O   0  0  0  0  0  0  0  0  0  0  0  0
   -1.2990   -2.2500    0.0000 C   0  0  1  0  0  0  0  0  0  0  0  0
   -2.0490   -0.9510   -0.0000 C   0  0  0  0  0  0  0  0  0  0  0  0
   -2.7088    0.0963    0.8035 O   0  0  0  0  0  0  0  0  0  0  0  0
   -3.8036    0.9100    0.2685 C   0  0  0  0  0  0  0  0  0  0  0  0
   -4.2173    0.6052   -0.8407 O   0  0  0  0  0  0  0  0  0  0  0  0
   -4.5787    2.2212    0.9068 C   0  0  0  0  0  0  0  0  0  0  0  0
   -5.7990    2.9462    0.0000 C   0  0  0  0  0  0  0  0  0  0  0  0
   -6.5490    4.2452    0.0000 C   0  0  0  0  0  0  0  0  0  0  0  0
   -7.2990    5.5442    0.0000 C   0  0  0  0  0  0  0  0  0  0  0  0
   -8.0490    6.8433    0.0000 C   0  0  0  0  0  0  0  0  0  0  0  0
   -8.7990    8.1423    0.0000 C   0  0  0  0  0  0  0  0  0  0  0  0
   -9.5490    9.4413    0.0000 C   0  0  0  0  0  0  0  0  0  0  0  0
   -9.9187   11.0644    0.2283 C   0  0  0  0  0  0  0  0  0  0  0  0
  -11.3768   11.7445   -0.3321 C   0  0  0  0  0  0  0  0  0  0  0  0
  -11.7990   13.3385    0.0000 C   0  0  0  0  0  0  0  0  0  0  0  0
  -12.5490   14.6375    0.0000 C   0  0  0  0  0  0  0  0  0  0  0  0
  -13.2990   15.9365    0.0000 C   0  0  0  0  0  0  0  0  0  0  0  0
  -13.8481   13.8875    0.0000 C   0  0  0  0  0  0  0  0  0  0  0  0
   -0.5490   -3.5490    0.0000 C   0  0  0  0  0  0  0  0  0  0  0  0
    0.6228   -4.1289   -0.6869 O   0  0  0  0  0  0  0  0  0  0  0  0
    1.4068   -5.2345   -0.1557 C   0  0  0  0  0  0  0  0  0  0  0  0
    1.2680   -5.4724    1.0347 O   0  0  0  0  0  0  0  0  0  0  0  0
    2.4532   -6.2645   -0.9263 C   0  0  0  0  0  0  0  0  0  0  0  0
    3.2010   -7.4462    0.0000 C   0  0  0  0  0  0  0  0  0  0  0  0
    3.9510   -8.7452    0.0000 C   0  0  0  0  0  0  0  0  0  0  0  0
    4.7010  -10.0442    0.0000 C   0  0  0  0  0  0  0  0  0  0  0  0
    5.4510  -11.3433    0.0000 C   0  0  0  0  0  0  0  0  0  0  0  0
    6.2010  -12.6423    0.0000 C   0  0  0  0  0  0  0  0  0  0  0  0
    6.9510  -13.9413    0.0000 C   0  0  0  0  0  0  0  0  0  0  0  0
    7.3409  -15.5476   -0.2983 C   0  0  0  0  0  0  0  0  0  0  0  0
    8.7536  -16.2523    0.3365 C   0  0  0  0  0  0  0  0  0  0  0  0
    9.2010  -17.8385    0.0000 C   0  0  0  0  0  0  0  0  0  0  0  0
    9.9510  -19.1375    0.0000 C   0  0  3  0  0  3  0  0  0  0  0  0
   10.7010  -20.4365    0.0000 C   0  0  0  0  0  0  0  0  0  0  0  0
   11.2500  -18.3875    0.0000 C   0  0  0  0  0  2  0  0  0  0  0  0
   12.5490  -17.6375    0.0000 C   0  0  0  0  0  0  0  0  0  0  0  0
   27.9861   14.8893   -0.1210 H   0  0  0  0  0  0  0  0  0  0  0  0
   27.1002   16.2920   -0.9558 H   0  0  0  0  0  0  0  0  0  0  0  0
   28.2064   16.2850    0.0000 H   0  0  0  0  0  0  0  0  0  0  0  0
   26.1912   14.3761    0.8994 H   0  0  0  0  0  0  0  0  0  0  0  0
   26.1443   14.3621   -0.9063 H   0  0  0  0  0  0  0  0  0  0  0  0
   23.8947   15.2078   -0.8625 H   0  0  0  0  0  0  0  0  0  0  0  0
   23.9157   15.1774    0.9245 H   0  0  0  0  0  0  0  0  0  0  0  0
   24.1494   12.6129   -0.9132 H   0  0  0  0  0  0  0  0  0  0  0  0
   24.1657   12.5799    0.8729 H   0  0  0  0  0  0  0  0  0  0  0  0
   21.8447   13.3569    0.8982 H   0  0  0  0  0  0  0  0  0  0  0  0
   21.8289   13.3878   -0.8720 H   0  0  0  0  0  0  0  0  0  0  0  0
   19.8547   10.6944   -0.8960 H   0  0  0  0  0  0  0  0  0  0  0  0
   19.8547   10.6944    0.8960 H   0  0  0  0  0  0  0  0  0  0  0  0
   17.8174   11.0556    0.8960 H   0  0  0  0  0  0  0  0  0  0  0  0
   17.8174   11.0556   -0.8960 H   0  0  0  0  0  0  0  0  0  0  0  0
   15.8362    8.3753   -0.8835 H   0  0  0  0  0  0  0  0  0  0  0  0
   15.8342    8.3795    0.8870 H   0  0  0  0  0  0  0  0  0  0  0  0
   13.5122    9.1634    0.8860 H   0  0  0  0  0  0  0  0  0  0  0  0
   13.5169    9.1468   -0.9004 H   0  0  0  0  0  0  0  0  0  0  0  0
   13.7541    6.5754    0.9240 H   0  0  0  0  0  0  0  0  0  0  0  0
   13.7762    6.5421   -0.8634 H   0  0  0  0  0  0  0  0  0  0  0  0
   11.4916    7.3665   -0.9104 H   0  0  0  0  0  0  0  0  0  0  0  0
   11.4629    7.4653    0.8341 H   0  0  0  0  0  0  0  0  0  0  0  0
   10.7399    5.4172   -0.8940 H   0  0  0  0  0  0  0  0  0  0  0  0
   10.8123    5.5564    0.9629 H   0  0  0  0  0  0  0  0  0  0  0  0
    9.5565    4.2571    0.3287 H   0  0  0  0  0  0  0  0  0  0  0  0
    8.7942    5.8033    0.9404 H   0  0  0  0  0  0  0  0  0  0  0  0
    7.3404    5.4828   -0.3640 H   0  0  0  0  0  0  0  0  0  0  0  0
    8.1048    3.9233   -0.9271 H   0  0  0  0  0  0  0  0  0  0  0  0
    6.1199    4.1144   -1.0126 H   0  0  0  0  0  0  0  0  0  0  0  0
    6.0996    4.4058    0.8226 H   0  0  0  0  0  0  0  0  0  0  0  0
    5.4896    2.1821   -0.7076 H   0  0  0  0  0  0  0  0  0  0  0  0
    5.3030    2.5063    0.9977 H   0  0  0  0  0  0  0  0  0  0  0  0
    3.2945    2.9958   -1.1878 H   0  0  0  0  0  0  0  0  0  0  0  0
    3.0505    3.4663    0.5261 H   0  0  0  0  0  0  0  0  0  0  0  0
    3.2316    1.0623    1.2880 H   0  0  0  0  0  0  0  0  0  0  0  0
    3.6108    0.4907   -0.3630 H   0  0  0  0  0  0  0  0  0  0  0  0
    1.2266    0.8540   -1.1046 H   0  0  0  0  0  0  0  0  0  0  0  0
    0.8574    1.6265    0.4585 H   0  0  0  0  0  0  0  0  0  0  0  0
   -1.5972   -2.5450   -1.0480 H   0  0  0  0  0  0  0  0  0  0  0  0
   -3.0177   -1.4443   -0.2768 H   0  0  0  0  0  0  0  0  0  0  0  0
   -1.8039   -0.4046   -0.9553 H   0  0  0  0  0  0  0  0  0  0  0  0
   -3.7983    2.9900    1.0831 H   0  0  0  0  0  0  0  0  0  0  0  0
   -5.0084    1.9377    1.8900 H   0  0  0  0  0  0  0  0  0  0  0  0
   -6.5331    2.1225   -0.1942 H   0  0  0  0  0  0  0  0  0  0  0  0
   -5.2717    3.0366   -0.9780 H   0  0  0  0  0  0  0  0  0  0  0  0
   -7.0618    3.7750    0.8987 H   0  0  0  0  0  0  0  0  0  0  0  0
   -5.6036    4.7790    0.2714 H   0  0  0  0  0  0  0  0  0  0  0  0
   -8.2353    4.9832   -0.2799 H   0  0  0  0  0  0  0  0  0  0  0  0
   -7.2978    5.6496    1.1425 H   0  0  0  0  0  0  0  0  0  0  0  0
   -7.0305    7.3242    0.2221 H   0  0  0  0  0  0  0  0  0  0  0  0
   -8.1533    6.8024   -1.1213 H   0  0  0  0  0  0  0  0  0  0  0  0
   -8.0162    8.7672   -0.5434 H   0  0  0  0  0  0  0  0  0  0  0  0
   -8.6805    8.2112    1.1139 H   0  0  0  0  0  0  0  0  0  0  0  0
   -9.8627    9.4321   -1.0767 H   0  0  0  0  0  0  0  0  0  0  0  0
  -10.4698    9.0722    0.5158 H   0  0  0  0  0  0  0  0  0  0  0  0
   -9.8732   11.2437    1.3235 H   0  0  0  0  0  0  0  0  0  0  0  0
   -9.1005   11.6552   -0.2339 H   0  0  0  0  0  0  0  0  0  0  0  0
  -12.2053   11.1135    0.0526 H   0  0  0  0  0  0  0  0  0  0  0  0
  -11.3665   11.6337   -1.4367 H   0  0  0  0  0  0  0  0  0  0  0  0
  -10.7724   13.7291   -0.2295 H   0  0  0  0  0  0  0  0  0  0  0  0
  -11.7122   13.2300    1.1093 H   0  0  0  0  0  0  0  0  0  0  0  0
  -12.2251   14.8006   -1.0709 H   0  0  0  0  0  0  0  0  0  0  0  0
  -12.3994   16.5875    0.0994 H   0  0  0  0  0  0  0  0  0  0  0  0
  -13.7476   16.0218   -1.0389 H   0  0  0  0  0  0  0  0  0  0  0  0
  -13.8340   16.8631    0.0000 H   0  0  0  0  0  0  0  0  0  0  0  0
  -13.9072   13.5165    1.0594 H   0  0  0  0  0  0  0  0  0  0  0  0
  -13.8564   13.2915   -0.9612 H   0  0  0  0  0  0  0  0  0  0  0  0
  -14.7748   13.3525    0.0000 H   0  0  0  0  0  0  0  0  0  0  0  0
   -1.3223   -4.3554   -0.0015 H   0  0  0  0  0  0  0  0  0  0  0  0
   -0.2540   -3.5576    1.0732 H   0  0  0  0  0  0  0  0  0  0  0  0
    1.8539   -6.7827   -1.7036 H   0  0  0  0  0  0  0  0  0  0  0  0
    3.2422   -5.6760   -1.4392 H   0  0  0  0  0  0  0  0  0  0  0  0
    3.7921   -6.8182    0.7061 H   0  0  0  0  0  0  0  0  0  0  0  0
    2.2530   -7.7107    0.5484 H   0  0  0  0  0  0  0  0  0  0  0  0
    3.1463   -9.1961   -0.6409 H   0  0  0  0  0  0  0  0  0  0  0  0
    3.7144   -8.9413    1.0882 H   0  0  0  0  0  0  0  0  0  0  0  0
    5.5521   -9.5499    0.5601 H   0  0  0  0  0  0  0  0  0  0  0  0
    5.0346   -9.8452   -1.0621 H   0  0  0  0  0  0  0  0  0  0  0  0
    5.2567  -11.4578    1.1055 H   0  0  0  0  0  0  0  0  0  0  0  0
    4.5475  -11.7377   -0.5726 H   0  0  0  0  0  0  0  0  0  0  0  0
    5.3230  -13.3048    0.2887 H   0  0  0  0  0  0  0  0  0  0  0  0
    6.3161  -12.5822   -1.1165 H   0  0  0  0  0  0  0  0  0  0  0  0
    7.0921  -14.0153    1.1077 H   0  0  0  0  0  0  0  0  0  0  0  0
    7.9435  -13.5483   -0.3361 H   0  0  0  0  0  0  0  0  0  0  0  0
    7.3877  -15.6638   -1.4015 H   0  0  0  0  0  0  0  0  0  0  0  0
    6.4890  -16.1620    0.0615 H   0  0  0  0  0  0  0  0  0  0  0  0
    9.6003  -15.6148    0.0053 H   0  0  0  0  0  0  0  0  0  0  0  0
    8.6881  -16.1610    1.4409 H   0  0  0  0  0  0  0  0  0  0  0  0
    8.2330  -18.2916    0.3012 H   0  0  0  0  0  0  0  0  0  0  0  0
    9.1192  -17.7345   -1.1093 H   0  0  0  0  0  0  0  0  0  0  0  0
    9.8389  -21.0256    0.3762 H   0  0  0  0  0  0  0  0  0  0  0  0
   10.7231  -20.5506   -1.1105 H   0  0  0  0  0  0  0  0  0  0  0  0
   11.2360  -21.3631    0.0000 H   0  0  0  0  0  0  0  0  0  0  0  0
   13.0624  -18.3667   -0.6598 H   0  0  0  0  0  0  0  0  0  0  0  0
   12.1569  -16.7985   -0.6109 H   0  0  0  0  0  0  0  0  0  0  0  0
   13.4756  -17.1025    0.0000 H   0  0  0  0  0  0  0  0  0  0  0  0
  1  2  1  0  0  0  0
  1 61  1  0  0  0  0
  1 62  1  0  0  0  0
  1 63  1  0  0  0  0
  2  3  1  0  0  0  0
  2 64  1  0  0  0  0
  2 65  1  0  0  0  0
  3  4  1  0  0  0  0
  3 66  1  0  0  0  0
  3 67  1  0  0  0  0
  4  5  1  0  0  0  0
  4 68  1  0  0  0  0
  4 69  1  0  0  0  0
  5  6  1  0  0  0  0
  5 70  1  0  0  0  0
  5 71  1  0  0  0  0
  6  7  1  0  0  0  0
  7  8  1  0  0  0  0
  7 72  1  0  0  0  0
  7 73  1  0  0  0  0
  8  9  1  0  0  0  0
  8 74  1  0  0  0  0
  8 75  1  0  0  0  0
  9 10  1  0  0  0  0
 10 11  1  0  0  0  0
 10 76  1  0  0  0  0
 10 77  1  0  0  0  0
 11 12  1  0  0  0  0
 11 78  1  0  0  0  0
 11 79  1  0  0  0  0
 12 13  1  0  0  0  0
 12 80  1  0  0  0  0
 12 81  1  0  0  0  0
 13 14  1  0  0  0  0
 13 82  1  0  0  0  0
 13 83  1  0  0  0  0
 14 15  1  0  0  0  0
 14 84  1  0  0  0  0
 14 85  1  0  0  0  0
 15 16  1  0  0  0  0
 15 86  1  0  0  0  0
 15 87  1  0  0  0  0
 16 17  1  0  0  0  0
 16 88  1  0  0  0  0
 16 89  1  0  0  0  0
 17 18  1  0  0  0  0
 17 90  1  0  0  0  0
 17 91  1  0  0  0  0
 18 19  1  0  0  0  0
 18 92  1  0  0  0  0
 18 93  1  0  0  0  0
 19 20  1  0  0  0  0
 19 94  1  0  0  0  0
 19 95  1  0  0  0  0
 20 21  1  0  0  0  0
 20 96  1  0  0  0  0
 20 97  1  0  0  0  0
 21 22  1  0  0  0  0
 21 98  1  0  0  0  0
 21 99  1  0  0  0  0
 22 23  2  0  0  0  0
 22 24  1  0  0  0  0
 24 25  1  0  0  0  0
 25 26  1  0  0  0  0
 25 43  1  0  0  0  0
 25100  1  1  0  0  0
 26 27  1  0  0  0  0
 26101  1  0  0  0  0
 26102  1  0  0  0  0
 27 28  1  0  0  0  0
 28 29  2  0  0  0  0
 28 30  1  0  0  0  0
 30 31  1  0  0  0  0
 30103  1  0  0  0  0
 30104  1  0  0  0  0
 31 32  1  0  0  0  0
 31105  1  0  0  0  0
 31106  1  0  0  0  0
 32 33  1  0  0  0  0
 32107  1  0  0  0  0
 32108  1  0  0  0  0
 33 34  1  0  0  0  0
 33109  1  0  0  0  0
 33110  1  0  0  0  0
 34 35  1  0  0  0  0
 34111  1  0  0  0  0
 34112  1  0  0  0  0
 35 36  1  0  0  0  0
 35113  1  0  0  0  0
 35114  1  0  0  0  0
 36 37  1  0  0  0  0
 36115  1  0  0  0  0
 36116  1  0  0  0  0
 37 38  1  0  0  0  0
 37117  1  0  0  0  0
 37118  1  0  0  0  0
 38 39  1  0  0  0  0
 38119  1  0  0  0  0
 38120  1  0  0  0  0
 39 40  1  0  0  0  0
 39121  1  0  0  0  0
 39122  1  0  0  0  0
 40 41  1  0  0  0  0
 40 42  1  0  0  0  0
 40123  1  0  0  0  0
 41124  1  0  0  0  0
 41125  1  0  0  0  0
 41126  1  0  0  0  0
 42127  1  0  0  0  0
 42128  1  0  0  0  0
 42129  1  0  0  0  0
 43 44  1  0  0  0  0
 43130  1  0  0  0  0
 43131  1  0  0  0  0
 44 45  1  0  0  0  0
 45 46  2  0  0  0  0
 45 47  1  0  0  0  0
 47 48  1  0  0  0  0
 47132  1  0  0  0  0
 47133  1  0  0  0  0
 48 49  1  0  0  0  0
 48134  1  0  0  0  0
 48135  1  0  0  0  0
 49 50  1  0  0  0  0
 49136  1  0  0  0  0
 49137  1  0  0  0  0
 50 51  1  0  0  0  0
 50138  1  0  0  0  0
 50139  1  0  0  0  0
 51 52  1  0  0  0  0
 51140  1  0  0  0  0
 51141  1  0  0  0  0
 52 53  1  0  0  0  0
 52142  1  0  0  0  0
 52143  1  0  0  0  0
 53 54  1  0  0  0  0
 53144  1  0  0  0  0
 53145  1  0  0  0  0
 54 55  1  0  0  0  0
 54146  1  0  0  0  0
 54147  1  0  0  0  0
 55 56  1  0  0  0  0
 55148  1  0  0  0  0
 55149  1  0  0  0  0
 56 57  1  0  0  0  0
 56150  1  0  0  0  0
 56151  1  0  0  0  0
 57 58  1  0  0  0  0
 57 59  1  0  0  0  0
 58152  1  0  0  0  0
 58153  1  0  0  0  0
 58154  1  0  0  0  0
 59 60  1  0  0  0  0
 60155  1  0  0  0  0
 60156  1  0  0  0  0
 60157  1  0  0  0  0
M  END
>  <IDENTIFIER>
CNP0521926.1

>  <Energy>
13874.3

$$$$
