
 OpenBabel09092515063D

102108  0  0  0  0  0  0  0  0999 V2000
    8.4119    1.3757   -2.1179 C   0  0  0  0  0  0  0  0  0  0  0  0
    9.1758    1.4830   -0.7884 C   0  0  1  0  0  0  0  0  0  0  0  0
    8.3021    1.6991    0.3213 O   0  0  0  0  0  0  0  0  0  0  0  0
    7.6009    0.5387    0.7725 C   0  0  1  0  0  0  0  0  0  0  0  0
    6.4965    0.2346   -0.0911 O   0  0  0  0  0  0  0  0  0  0  0  0
    5.2248    0.3686    0.5565 C   0  0  1  0  0  0  0  0  0  0  0  0
    4.3635    1.4169   -0.1659 C   0  0  1  0  0  0  0  0  0  0  0  0
    5.0385    2.6448   -0.2794 O   0  0  0  0  0  0  0  0  0  0  0  0
    3.9216    0.8757   -1.5325 C   0  0  0  0  0  0  0  0  0  0  0  0
    3.1450   -0.4312   -1.3173 C   0  0  2  0  0  0  0  0  0  0  0  0
    1.9757   -0.1569   -0.5543 O   0  0  0  0  0  0  0  0  0  0  0  0
    0.7572   -0.6174   -1.1197 C   0  0  1  0  0  0  0  0  0  0  0  0
    0.4753   -2.0490   -0.5724 C   0  0  0  0  0  0  0  0  0  0  0  0
   -1.0276   -2.2781   -0.3917 C   0  0  0  0  0  0  0  0  0  0  0  0
   -1.6305   -1.3104    0.7056 C   0  0  1  0  0  0  0  0  0  0  0  0
   -1.4447   -1.9594    2.1046 C   0  0  0  0  0  0  0  0  0  0  0  0
   -0.8589    0.0830    0.6891 C   0  0  2  0  0  0  0  0  0  0  0  0
   -1.6427    1.2455    1.3517 C   0  0  0  0  0  0  0  0  0  0  0  0
   -3.1304    1.3368    0.9550 C   0  0  0  0  0  0  0  0  0  0  0  0
   -3.8010   -0.0106    1.3068 C   0  0  2  0  0  0  0  0  0  0  0  0
   -3.1602   -1.0797    0.3731 C   0  0  2  0  0  0  0  0  0  0  0  0
   -4.0594   -2.3263    0.2675 C   0  0  0  0  0  0  0  0  0  0  0  0
   -5.3708   -1.9083   -0.4472 C   0  0  0  0  0  0  0  0  0  0  0  0
   -6.1554   -0.7417    0.2562 C   0  0  2  0  0  0  0  0  0  0  0  0
   -7.5349   -1.3365    0.7225 C   0  0  0  0  0  0  0  0  0  0  0  0
   -6.3999    0.5177   -0.6517 C   0  0  1  0  0  0  0  0  0  0  0  0
   -7.5880    0.3668   -1.6148 C   0  0  0  0  0  0  0  0  0  0  0  0
   -8.7579    1.0072   -1.5971 C   0  0  0  0  0  0  0  0  0  0  0  0
   -9.5257    0.4744   -2.6917 C   0  0  0  0  0  0  0  0  0  0  0  0
  -10.6645    0.8068   -2.9788 O   0  0  0  0  0  0  0  0  0  0  0  0
   -8.8350   -0.4609   -3.3568 O   0  0  0  0  0  0  0  0  0  0  0  0
   -7.5972   -0.6206   -2.7644 C   0  0  0  0  0  0  0  0  0  0  0  0
   -6.3062    1.7544    0.3126 C   0  0  1  0  0  0  0  0  0  0  0  0
   -7.3825    2.6219    0.2914 O   0  0  0  0  0  0  0  0  0  0  0  0
   -7.3336    3.9432   -0.0233 C   0  0  0  0  0  0  0  0  0  0  0  0
   -6.2850    4.4914   -0.3289 O   0  0  0  0  0  0  0  0  0  0  0  0
   -6.1161    1.1776    1.7134 C   0  0  0  0  0  0  0  0  0  0  0  0
   -5.3787   -0.1556    1.4819 C   0  0  2  0  0  0  0  0  0  0  0  0
   -5.5825   -1.0280    2.5802 O   0  0  0  0  0  0  0  0  0  0  0  0
   -0.3684    0.3952   -0.7322 C   0  0  0  0  0  0  0  0  0  0  0  0
    3.9643   -1.4119   -0.6787 O   0  0  0  0  0  0  0  0  0  0  0  0
    4.4999   -1.0079    0.5872 C   0  0  2  0  0  0  0  0  0  0  0  0
    3.4665   -1.1259    1.7206 C   0  0  0  0  0  0  0  0  0  0  0  0
    8.5055   -0.6902    1.0043 C   0  0  0  0  0  0  0  0  0  0  0  0
    9.3831   -0.9673   -0.2157 C   0  0  2  0  0  0  0  0  0  0  0  0
   10.2465   -2.0558    0.0055 O   0  0  0  0  0  0  0  0  0  0  0  0
   10.1657    0.3119   -0.5536 C   0  0  2  0  0  0  0  0  0  0  0  0
   11.0924    0.6218    0.4688 O   0  0  0  0  0  0  0  0  0  0  0  0
    7.7930    2.2842   -2.2670 H   0  0  0  0  0  0  0  0  0  0  0  0
    7.7569    0.4865   -2.1678 H   0  0  0  0  0  0  0  0  0  0  0  0
    9.1368    1.3133   -2.9580 H   0  0  0  0  0  0  0  0  0  0  0  0
    9.8010    2.3974   -0.8928 H   0  0  0  0  0  0  0  0  0  0  0  0
    7.2894    0.7808    1.8104 H   0  0  0  0  0  0  0  0  0  0  0  0
    5.3081    0.7175    1.6082 H   0  0  0  0  0  0  0  0  0  0  0  0
    3.4472    1.6021    0.4357 H   0  0  0  0  0  0  0  0  0  0  0  0
    5.7580    2.5363   -0.9535 H   0  0  0  0  0  0  0  0  0  0  0  0
    4.8086    0.6799   -2.1753 H   0  0  0  0  0  0  0  0  0  0  0  0
    3.2714    1.6179   -2.0452 H   0  0  0  0  0  0  0  0  0  0  0  0
    2.9058   -0.8157   -2.3348 H   0  0  0  0  0  0  0  0  0  0  0  0
    0.7638   -0.5900   -2.2333 H   0  0  0  0  0  0  0  0  0  0  0  0
    0.9312   -2.1735    0.4313 H   0  0  0  0  0  0  0  0  0  0  0  0
    0.9516   -2.7982   -1.2398 H   0  0  0  0  0  0  0  0  0  0  0  0
   -1.2532   -3.3376   -0.1417 H   0  0  0  0  0  0  0  0  0  0  0  0
   -1.4751   -2.0807   -1.3911 H   0  0  0  0  0  0  0  0  0  0  0  0
   -0.3727   -2.1580    2.3085 H   0  0  0  0  0  0  0  0  0  0  0  0
   -1.9830   -2.9284    2.1623 H   0  0  0  0  0  0  0  0  0  0  0  0
   -1.7988   -1.3185    2.9329 H   0  0  0  0  0  0  0  0  0  0  0  0
    0.0880    0.0116    1.2727 H   0  0  0  0  0  0  0  0  0  0  0  0
   -1.1247    2.2120    1.1698 H   0  0  0  0  0  0  0  0  0  0  0  0
   -1.6133    1.0824    2.4518 H   0  0  0  0  0  0  0  0  0  0  0  0
   -3.2431    1.5842   -0.1224 H   0  0  0  0  0  0  0  0  0  0  0  0
   -3.5617    2.1605    1.5597 H   0  0  0  0  0  0  0  0  0  0  0  0
   -3.4857   -0.1711    2.3549 H   0  0  0  0  0  0  0  0  0  0  0  0
   -3.1794   -0.6631   -0.6599 H   0  0  0  0  0  0  0  0  0  0  0  0
   -4.2512   -2.7733    1.2652 H   0  0  0  0  0  0  0  0  0  0  0  0
   -3.5840   -3.1003   -0.3693 H   0  0  0  0  0  0  0  0  0  0  0  0
   -6.0040   -2.8102   -0.6000 H   0  0  0  0  0  0  0  0  0  0  0  0
   -5.0956   -1.5890   -1.4768 H   0  0  0  0  0  0  0  0  0  0  0  0
   -8.1011   -1.7549   -0.1347 H   0  0  0  0  0  0  0  0  0  0  0  0
   -8.2063   -0.6003    1.1998 H   0  0  0  0  0  0  0  0  0  0  0  0
   -7.3862   -2.1831    1.4267 H   0  0  0  0  0  0  0  0  0  0  0  0
   -5.5051    0.6542   -1.3009 H   0  0  0  0  0  0  0  0  0  0  0  0
   -9.1194    1.7543   -0.9115 H   0  0  0  0  0  0  0  0  0  0  0  0
   -6.7928   -0.3800   -3.4896 H   0  0  0  0  0  0  0  0  0  0  0  0
   -7.4864   -1.6638   -2.4063 H   0  0  0  0  0  0  0  0  0  0  0  0
   -5.3771    2.2958    0.0470 H   0  0  0  0  0  0  0  0  0  0  0  0
   -8.2487    4.5240   -0.0042 H   0  0  0  0  0  0  0  0  0  0  0  0
   -7.1227    0.9546    2.1198 H   0  0  0  0  0  0  0  0  0  0  0  0
   -5.6569    1.8691    2.4507 H   0  0  0  0  0  0  0  0  0  0  0  0
   -5.5052   -0.5024    3.4198 H   0  0  0  0  0  0  0  0  0  0  0  0
    0.0428    1.4238   -0.8302 H   0  0  0  0  0  0  0  0  0  0  0  0
   -1.2346    0.3231   -1.4238 H   0  0  0  0  0  0  0  0  0  0  0  0
    5.2747   -1.7575    0.8625 H   0  0  0  0  0  0  0  0  0  0  0  0
    2.6571   -0.3773    1.6583 H   0  0  0  0  0  0  0  0  0  0  0  0
    3.9716   -0.9734    2.6981 H   0  0  0  0  0  0  0  0  0  0  0  0
    3.0293   -2.1468    1.7202 H   0  0  0  0  0  0  0  0  0  0  0  0
    7.8915   -1.5772    1.2714 H   0  0  0  0  0  0  0  0  0  0  0  0
    9.1699   -0.4789    1.8710 H   0  0  0  0  0  0  0  0  0  0  0  0
    8.7257   -1.2359   -1.0683 H   0  0  0  0  0  0  0  0  0  0  0  0
   10.7792   -1.8671    0.8229 H   0  0  0  0  0  0  0  0  0  0  0  0
   10.7608    0.1557   -1.4795 H   0  0  0  0  0  0  0  0  0  0  0  0
   10.6362    1.1378    1.1828 H   0  0  0  0  0  0  0  0  0  0  0  0
  1 49  1  0  0  0  0
  1 50  1  0  0  0  0
  1 51  1  0  0  0  0
  2  1  1  0  0  0  0
  2  3  1  0  0  0  0
  2 52  1  6  0  0  0
  3  4  1  0  0  0  0
  4  5  1  0  0  0  0
  4 44  1  0  0  0  0
  4 53  1  1  0  0  0
  6  5  1  0  0  0  0
  6  7  1  0  0  0  0
  6 54  1  1  0  0  0
  7  8  1  0  0  0  0
  7  9  1  0  0  0  0
  7 55  1  1  0  0  0
  8 56  1  0  0  0  0
  9 10  1  0  0  0  0
  9 57  1  0  0  0  0
  9 58  1  0  0  0  0
 10 11  1  0  0  0  0
 10 41  1  0  0  0  0
 10 59  1  6  0  0  0
 12 11  1  0  0  0  0
 12 13  1  0  0  0  0
 12 60  1  6  0  0  0
 13 14  1  0  0  0  0
 13 61  1  0  0  0  0
 13 62  1  0  0  0  0
 14 15  1  0  0  0  0
 14 63  1  0  0  0  0
 14 64  1  0  0  0  0
 15 16  1  1  0  0  0
 15 17  1  0  0  0  0
 16 65  1  0  0  0  0
 16 66  1  0  0  0  0
 16 67  1  0  0  0  0
 17 18  1  0  0  0  0
 17 40  1  0  0  0  0
 17 68  1  1  0  0  0
 18 19  1  0  0  0  0
 18 69  1  0  0  0  0
 18 70  1  0  0  0  0
 19 71  1  0  0  0  0
 19 72  1  0  0  0  0
 20 19  1  0  0  0  0
 20 21  1  0  0  0  0
 20 73  1  1  0  0  0
 21 22  1  0  0  0  0
 21 15  1  0  0  0  0
 21 74  1  6  0  0  0
 22 23  1  0  0  0  0
 22 75  1  0  0  0  0
 22 76  1  0  0  0  0
 23 24  1  0  0  0  0
 23 77  1  0  0  0  0
 23 78  1  0  0  0  0
 24 25  1  1  0  0  0
 24 26  1  0  0  0  0
 25 79  1  0  0  0  0
 25 80  1  0  0  0  0
 25 81  1  0  0  0  0
 26 27  1  0  0  0  0
 26 33  1  0  0  0  0
 26 82  1  6  0  0  0
 27 28  2  0  0  0  0
 28 29  1  0  0  0  0
 28 83  1  0  0  0  0
 29 30  2  0  0  0  0
 29 31  1  0  0  0  0
 31 32  1  0  0  0  0
 32 27  1  0  0  0  0
 32 84  1  0  0  0  0
 32 85  1  0  0  0  0
 33 34  1  0  0  0  0
 33 37  1  0  0  0  0
 33 86  1  6  0  0  0
 34 35  1  0  0  0  0
 35 36  2  0  0  0  0
 35 87  1  0  0  0  0
 37 38  1  0  0  0  0
 37 88  1  0  0  0  0
 37 89  1  0  0  0  0
 38 39  1  1  0  0  0
 38 24  1  0  0  0  0
 38 20  1  0  0  0  0
 39 90  1  0  0  0  0
 40 12  1  0  0  0  0
 40 91  1  0  0  0  0
 40 92  1  0  0  0  0
 41 42  1  0  0  0  0
 42 43  1  0  0  0  0
 42  6  1  0  0  0  0
 42 93  1  1  0  0  0
 43 94  1  0  0  0  0
 43 95  1  0  0  0  0
 43 96  1  0  0  0  0
 44 45  1  0  0  0  0
 44 97  1  0  0  0  0
 44 98  1  0  0  0  0
 45 46  1  0  0  0  0
 45 47  1  0  0  0  0
 45 99  1  6  0  0  0
 46100  1  0  0  0  0
 47 48  1  0  0  0  0
 47  2  1  0  0  0  0
 47101  1  6  0  0  0
 48102  1  0  0  0  0
M  END
>  <IDENTIFIER>
CNP0122398.1

>  <Energy>
1501.68

$$$$
