
 OpenBabel09042519562D

 69 75  0  0  0  0  0  0  0  0999 V2000
   -4.0652    9.3484    0.0000 C   0  0  0  0  0  0  0  0  0  0  0  0
   -3.1835    8.1349    0.0000 O   0  0  0  0  0  0  0  0  0  0  0  0
   -3.8628    6.8506    0.0860 C   0  0  0  0  0  0  0  0  0  0  0  0
   -5.0101    6.8901    0.5110 O   0  0  0  0  0  0  0  0  0  0  0  0
   -3.4239    5.3313   -0.4252 C   0  0  2  0  0  0  0  0  0  0  0  0
   -4.5655    4.5114   -0.4005 O   0  0  0  0  0  0  0  0  0  0  0  0
   -2.2823    4.4891    0.3593 C   0  0  1  0  0  0  0  0  0  0  0  0
   -0.9156    5.3412    0.0000 C   0  0  2  0  0  0  0  0  0  0  0  0
   -1.0724    6.8330   -0.0000 C   0  0  0  0  0  0  0  0  0  0  0  0
    0.1658    5.0312   -1.8145 C   0  0  0  0  0  0  0  0  0  0  0  0
    0.0716    3.1240   -0.0000 C   0  0  2  0  0  0  0  0  0  0  0  0
    1.5634    3.2808   -0.0000 O   0  0  0  0  0  0  0  0  0  0  0  0
    0.0591    2.3418    1.6196 C   0  0  2  0  0  0  0  0  0  0  0  0
   -0.3265    3.6964    2.5239 C   0  0  0  0  0  0  0  0  0  0  0  0
   -0.3938    3.5573    3.7348 O   0  0  0  0  0  0  0  0  0  0  0  0
   -0.4828    5.2810    1.9026 C   0  0  1  0  0  0  0  0  0  0  0  0
    0.7035    5.9816    2.1837 O   0  0  0  0  0  0  0  0  0  0  0  0
   -0.9190    1.0296    1.2906 C   0  0  2  0  0  0  0  0  0  0  0  0
   -0.0132    0.2008    0.6383 O   0  0  0  0  0  0  0  0  0  0  0  0
   -1.0146   -0.6050    1.2355 C   0  0  2  0  0  0  0  0  0  0  0  0
   -0.1618   -1.5417    2.1034 C   0  0  0  0  0  0  0  0  0  0  0  0
    0.9440   -2.0662    1.1876 C   0  0  0  0  0  0  0  0  0  0  0  0
    2.1121   -1.9956    1.5335 O   0  0  0  0  0  0  0  0  0  0  0  0
    0.6474   -2.3058   -0.1254 O   0  0  0  0  0  0  0  0  0  0  0  0
   -0.6493   -2.5578   -0.5417 C   0  0  1  0  0  0  0  0  0  0  0  0
   -0.7172   -2.8320   -2.0314 C   0  0  0  0  0  0  0  0  0  0  0  0
   -1.1826   -3.9903   -2.6243 C   0  0  0  0  0  0  0  0  0  0  0  0
   -1.1416   -3.8620   -3.9317 O   0  0  0  0  0  0  0  0  0  0  0  0
   -0.6613   -2.6751   -4.2298 C   0  0  0  0  0  0  0  0  0  0  0  0
   -0.3665   -1.9889   -3.0703 C   0  0  0  0  0  0  0  0  0  0  0  0
   -1.7321   -1.5000    0.0000 C   0  0  1  0  0  0  0  0  0  0  0  0
   -3.0311   -2.2500    0.0000 C   0  0  0  0  0  0  0  0  0  0  0  0
   -2.2643   -0.4576   -1.1044 C   0  0  0  0  0  0  0  0  0  0  0  0
   -1.6371    0.8951   -1.1867 C   0  0  0  0  0  0  0  0  0  0  0  0
   -1.8156    1.5694    0.2055 C   0  0  1  0  0  0  0  0  0  0  0  0
   -1.4202    2.9672    0.0000 C   0  0  2  0  0  0  0  0  0  0  0  0
   -0.3055    3.9709    0.0000 C   0  0  0  0  0  0  0  0  0  0  0  0
   -3.2618   10.1086   -0.0848 H   0  0  0  0  0  0  0  0  0  0  0  0
   -4.5409    9.1960   -0.9927 H   0  0  0  0  0  0  0  0  0  0  0  0
   -4.6941   10.2140    0.0000 H   0  0  0  0  0  0  0  0  0  0  0  0
   -3.1025    5.4216   -1.4897 H   0  0  0  0  0  0  0  0  0  0  0  0
   -5.1075    4.7370   -1.2017 H   0  0  0  0  0  0  0  0  0  0  0  0
   -2.6597    4.4647    1.4055 H   0  0  0  0  0  0  0  0  0  0  0  0
    0.0133    7.0633    0.0068 H   0  0  0  0  0  0  0  0  0  0  0  0
   -1.3959    6.9068   -1.0589 H   0  0  0  0  0  0  0  0  0  0  0  0
   -1.1842    7.8971    0.0000 H   0  0  0  0  0  0  0  0  0  0  0  0
    1.1067    5.6290   -1.8526 H   0  0  0  0  0  0  0  0  0  0  0  0
   -0.4647    5.0469   -2.7384 H   0  0  0  0  0  0  0  0  0  0  0  0
    1.8920    2.6419   -0.6857 H   0  0  0  0  0  0  0  0  0  0  0  0
    1.0512    1.9954    1.9866 H   0  0  0  0  0  0  0  0  0  0  0  0
   -1.3212    5.7459    2.4782 H   0  0  0  0  0  0  0  0  0  0  0  0
    0.4511    6.9166    2.4007 H   0  0  0  0  0  0  0  0  0  0  0  0
    0.2616   -1.0306    2.9939 H   0  0  0  0  0  0  0  0  0  0  0  0
   -0.7929   -2.3923    2.4344 H   0  0  0  0  0  0  0  0  0  0  0  0
   -0.8753   -3.5300   -0.0486 H   0  0  0  0  0  0  0  0  0  0  0  0
   -1.5528   -4.8674   -2.1102 H   0  0  0  0  0  0  0  0  0  0  0  0
   -0.5333   -2.3041   -5.2385 H   0  0  0  0  0  0  0  0  0  0  0  0
    0.0317   -0.9866   -2.9992 H   0  0  0  0  0  0  0  0  0  0  0  0
   -3.6189   -1.5298    0.6199 H   0  0  0  0  0  0  0  0  0  0  0  0
   -2.7551   -3.0130    0.7584 H   0  0  0  0  0  0  0  0  0  0  0  0
   -3.9577   -2.7850    0.0000 H   0  0  0  0  0  0  0  0  0  0  0  0
   -3.3176   -0.1234   -0.8954 H   0  0  0  0  0  0  0  0  0  0  0  0
   -2.3922   -0.9052   -2.1080 H   0  0  0  0  0  0  0  0  0  0  0  0
   -2.2079    1.4710   -1.9544 H   0  0  0  0  0  0  0  0  0  0  0  0
   -0.5848    0.8522   -1.5418 H   0  0  0  0  0  0  0  0  0  0  0  0
   -2.8858    1.5671    0.5085 H   0  0  0  0  0  0  0  0  0  0  0  0
   -1.2688    3.6776   -1.3013 H   0  0  0  0  0  0  0  0  0  0  0  0
   -1.2682    3.6787   -1.3016 H   0  0  0  0  0  0  0  0  0  0  0  0
    0.4897    4.6869    0.0000 H   0  0  0  0  0  0  0  0  0  0  0  0
  1  2  1  0  0  0  0
  1 38  1  0  0  0  0
  1 39  1  0  0  0  0
  1 40  1  0  0  0  0
  2  3  1  0  0  0  0
  3  4  2  0  0  0  0
  3  5  1  0  0  0  0
  5  6  1  0  0  0  0
  5 41  1  6  0  0  0
  6 42  1  0  0  0  0
  7  5  1  0  0  0  0
  7  8  1  0  0  0  0
  7 43  1  6  0  0  0
  8  9  1  6  0  0  0
  8 10  1  0  0  0  0
  9 44  1  0  0  0  0
  9 45  1  0  0  0  0
  9 46  1  0  0  0  0
 10 11  1  0  0  0  0
 10 47  1  0  0  0  0
 10 48  1  0  0  0  0
 11 12  1  1  0  0  0
 11 13  1  0  0  0  0
 12 49  1  0  0  0  0
 13 14  1  0  0  0  0
 13 18  1  0  0  0  0
 13 50  1  6  0  0  0
 14 15  2  0  0  0  0
 14 16  1  0  0  0  0
 16 17  1  0  0  0  0
 16  8  1  0  0  0  0
 16 51  1  1  0  0  0
 17 52  1  0  0  0  0
 18 19  1  1  0  0  0
 20 19  1  1  0  0  0
 20 21  1  0  0  0  0
 20 18  1  0  0  0  0
 21 22  1  0  0  0  0
 21 53  1  0  0  0  0
 21 54  1  0  0  0  0
 22 23  2  0  0  0  0
 22 24  1  0  0  0  0
 24 25  1  0  0  0  0
 25 26  1  0  0  0  0
 25 31  1  0  0  0  0
 25 55  1  6  0  0  0
 26 27  2  0  0  0  0
 27 28  1  0  0  0  0
 27 56  1  0  0  0  0
 28 29  1  0  0  0  0
 29 30  2  0  0  0  0
 29 57  1  0  0  0  0
 30 26  1  0  0  0  0
 30 58  1  0  0  0  0
 31 32  1  1  0  0  0
 31 33  1  0  0  0  0
 31 20  1  0  0  0  0
 32 59  1  0  0  0  0
 32 60  1  0  0  0  0
 32 61  1  0  0  0  0
 33 34  1  0  0  0  0
 33 62  1  0  0  0  0
 33 63  1  0  0  0  0
 34 64  1  0  0  0  0
 34 65  1  0  0  0  0
 35 34  1  0  0  0  0
 35 36  1  0  0  0  0
 35 18  1  0  0  0  0
 35 66  1  6  0  0  0
 36 37  1  1  0  0  0
 36  7  1  0  0  0  0
 36 11  1  0  0  0  0
 37 67  1  0  0  0  0
 37 68  1  0  0  0  0
 37 69  1  0  0  0  0
M  END
>  <IDENTIFIER>
CNP0344512.11

>  <Energy>
54195.7

$$$$
