
 OpenBabel09092508023D

108116  0  0  0  0  0  0  0  0999 V2000
   -7.8206   -1.8448    2.0316 C   0  0  0  0  0  0  0  0  0  0  0  0
   -7.4638   -2.6086    0.9414 O   0  0  0  0  0  0  0  0  0  0  0  0
   -7.1890   -2.0447   -0.2563 C   0  0  0  0  0  0  0  0  0  0  0  0
   -7.9744   -2.1152   -1.3246 C   0  0  0  0  0  0  0  0  0  0  0  0
   -9.2931   -2.8279   -1.4304 C   0  0  0  0  0  0  0  0  0  0  0  0
   -9.2261   -3.8273   -2.4105 O   0  0  0  0  0  0  0  0  0  0  0  0
   -7.3067   -1.3264   -2.3603 C   0  0  0  0  0  0  0  0  0  0  0  0
   -7.7286   -1.1430   -3.4900 O   0  0  0  0  0  0  0  0  0  0  0  0
   -6.1546   -0.8017   -1.8991 O   0  0  0  0  0  0  0  0  0  0  0  0
   -6.0084   -1.2352   -0.6273 C   0  0  0  0  0  0  0  0  0  0  0  0
   -4.9198   -0.9949    0.1306 C   0  0  0  0  0  0  0  0  0  0  0  0
   -4.7490   -1.5768    1.3323 O   0  0  0  0  0  0  0  0  0  0  0  0
   -3.4472   -1.4694    1.6256 C   0  0  0  0  0  0  0  0  0  0  0  0
   -2.8096   -2.5002    2.1795 C   0  0  0  0  0  0  0  0  0  0  0  0
   -1.3262   -2.6064    2.2452 C   0  0  0  0  0  0  0  0  0  0  0  0
   -0.7443   -2.3997    0.8202 C   0  0  0  0  0  0  0  0  0  0  0  0
   -0.4683   -0.9788    0.4555 N   0  0  2  0  0  0  0  0  0  0  0  0
    1.0113   -0.6683    0.4605 C   0  0  2  0  0  0  0  0  0  0  0  0
    1.7280   -0.7966    1.8765 C   0  0  1  0  0  0  0  0  0  0  0  0
    1.4665   -2.0290    2.5014 O   0  0  0  0  0  0  0  0  0  0  0  0
    3.2860   -0.5538    1.8552 C   0  0  1  0  0  0  0  0  0  0  0  0
    3.8509   -0.7814    3.2449 C   0  0  0  0  0  0  0  0  0  0  0  0
    4.9328   -1.5387    3.4865 C   0  0  0  0  0  0  0  0  0  0  0  0
    5.7416   -2.1831    2.3928 C   0  0  0  0  0  0  0  0  0  0  0  0
    5.5064   -1.5166    1.0105 C   0  0  1  0  0  0  0  0  0  0  0  0
    6.2133   -2.2659   -0.1654 C   0  0  0  0  0  0  0  0  0  0  0  0
    7.7577   -2.2640   -0.0797 C   0  0  0  0  0  0  0  0  0  0  0  0
    8.1620   -3.6017   -0.6803 C   0  0  0  0  0  0  0  0  0  0  0  0
    7.1192   -4.5210   -0.0585 C   0  0  0  0  0  0  0  0  0  0  0  0
    5.8365   -3.7595   -0.3505 C   0  0  0  0  0  0  0  0  0  0  0  0
    3.9934   -1.4305    0.7758 C   0  0  0  0  0  0  0  0  0  0  0  0
    1.2780    0.7398   -0.1351 C   0  0  1  0  0  0  0  0  0  0  0  0
    0.9734    0.9461   -1.6191 C   0  0  0  0  0  0  0  0  0  0  0  0
    1.0013    2.4958   -1.7807 C   0  0  0  0  0  0  0  0  0  0  0  0
    0.0399    2.9979   -2.8684 C   0  0  0  0  0  0  0  0  0  0  0  0
    0.5521    4.3996   -3.2427 C   0  0  0  0  0  0  0  0  0  0  0  0
    2.0143    4.4309   -2.7669 C   0  0  0  0  0  0  0  0  0  0  0  0
    2.3308    2.9894   -2.3988 C   0  0  0  0  0  0  0  0  0  0  0  0
    0.8081    3.0566   -0.3061 C   0  0  1  0  0  0  0  0  0  0  0  0
    0.0141    4.3419   -0.0457 C   0  0  0  0  0  0  0  0  0  0  0  0
   -1.3565    4.4647   -0.3558 C   0  0  0  0  0  0  0  0  0  0  0  0
   -2.0470    5.6496   -0.0942 C   0  0  0  0  0  0  0  0  0  0  0  0
   -1.3879    6.7345    0.4815 C   0  0  0  0  0  0  0  0  0  0  0  0
   -0.0318    6.6353    0.7959 C   0  0  0  0  0  0  0  0  0  0  0  0
    0.6639    5.4516    0.5349 C   0  0  0  0  0  0  0  0  0  0  0  0
    0.4446    1.8269    0.5525 C   0  0  1  0  0  0  0  0  0  0  0  0
   -1.0461    1.4468    0.5204 C   0  0  0  0  0  0  0  0  0  0  0  0
   -1.3286    0.0559    1.1122 C   0  0  1  0  0  0  0  0  0  0  0  0
   -2.8833   -0.2141    1.0367 C   0  0  1  0  0  0  0  0  0  0  0  0
   -3.6981   -0.1874   -0.2932 C   0  0  2  0  0  0  0  0  0  0  0  0
   -4.1247    1.2224   -0.7564 C   0  0  0  0  0  0  0  0  0  0  0  0
   -7.9772   -2.5061    2.9079 H   0  0  0  0  0  0  0  0  0  0  0  0
   -8.7721   -1.3115    1.8166 H   0  0  0  0  0  0  0  0  0  0  0  0
   -7.0372   -1.0985    2.2743 H   0  0  0  0  0  0  0  0  0  0  0  0
  -10.1017   -2.0979   -1.6632 H   0  0  0  0  0  0  0  0  0  0  0  0
   -9.5593   -3.3049   -0.4633 H   0  0  0  0  0  0  0  0  0  0  0  0
   -9.4139   -3.3891   -3.2810 H   0  0  0  0  0  0  0  0  0  0  0  0
   -3.3925   -3.3712    2.4662 H   0  0  0  0  0  0  0  0  0  0  0  0
   -1.1161   -3.6495    2.5673 H   0  0  0  0  0  0  0  0  0  0  0  0
   -0.8836   -1.9346    3.0060 H   0  0  0  0  0  0  0  0  0  0  0  0
   -1.4179   -2.8573    0.0632 H   0  0  0  0  0  0  0  0  0  0  0  0
    0.1750   -3.0072    0.7084 H   0  0  0  0  0  0  0  0  0  0  0  0
    1.5066   -1.3965   -0.2144 H   0  0  0  0  0  0  0  0  0  0  0  0
    1.2976   -0.0307    2.5535 H   0  0  0  0  0  0  0  0  0  0  0  0
    1.9363   -2.7518    2.0196 H   0  0  0  0  0  0  0  0  0  0  0  0
    3.5058    0.5119    1.6449 H   0  0  0  0  0  0  0  0  0  0  0  0
    3.3543   -0.3075    4.0877 H   0  0  0  0  0  0  0  0  0  0  0  0
    5.2455   -1.6925    4.5151 H   0  0  0  0  0  0  0  0  0  0  0  0
    5.4885   -3.2641    2.3882 H   0  0  0  0  0  0  0  0  0  0  0  0
    6.8080   -2.0821    2.6695 H   0  0  0  0  0  0  0  0  0  0  0  0
    5.8959   -0.4737    1.0339 H   0  0  0  0  0  0  0  0  0  0  0  0
    5.9290   -1.7553   -1.1149 H   0  0  0  0  0  0  0  0  0  0  0  0
    8.0856   -2.3230    0.9759 H   0  0  0  0  0  0  0  0  0  0  0  0
    8.2427   -1.3687   -0.5229 H   0  0  0  0  0  0  0  0  0  0  0  0
    9.2089   -3.8907   -0.4458 H   0  0  0  0  0  0  0  0  0  0  0  0
    8.0285   -3.5803   -1.7858 H   0  0  0  0  0  0  0  0  0  0  0  0
    7.2773   -4.5690    1.0435 H   0  0  0  0  0  0  0  0  0  0  0  0
    7.1190   -5.5551   -0.4638 H   0  0  0  0  0  0  0  0  0  0  0  0
    4.9434   -4.1329    0.1884 H   0  0  0  0  0  0  0  0  0  0  0  0
    5.6397   -3.9143   -1.4376 H   0  0  0  0  0  0  0  0  0  0  0  0
    3.6096   -2.4645    0.7888 H   0  0  0  0  0  0  0  0  0  0  0  0
    3.7797   -1.0080   -0.2297 H   0  0  0  0  0  0  0  0  0  0  0  0
    2.3546    0.9893   -0.0573 H   0  0  0  0  0  0  0  0  0  0  0  0
   -0.0418    0.5608   -1.8352 H   0  0  0  0  0  0  0  0  0  0  0  0
    1.6442    0.3956   -2.3136 H   0  0  0  0  0  0  0  0  0  0  0  0
   -1.0490    2.9157   -2.6903 H   0  0  0  0  0  0  0  0  0  0  0  0
    0.2331    2.3564   -3.7608 H   0  0  0  0  0  0  0  0  0  0  0  0
    0.0033    5.2113   -2.7189 H   0  0  0  0  0  0  0  0  0  0  0  0
    0.4407    4.5447   -4.3388 H   0  0  0  0  0  0  0  0  0  0  0  0
    2.0503    5.0073   -1.8187 H   0  0  0  0  0  0  0  0  0  0  0  0
    2.7260    4.9157   -3.4677 H   0  0  0  0  0  0  0  0  0  0  0  0
    3.2314    2.8714   -1.7581 H   0  0  0  0  0  0  0  0  0  0  0  0
    2.5227    2.4343   -3.3463 H   0  0  0  0  0  0  0  0  0  0  0  0
    1.8462    3.2561    0.0520 H   0  0  0  0  0  0  0  0  0  0  0  0
   -1.9058    3.6557   -0.7985 H   0  0  0  0  0  0  0  0  0  0  0  0
   -3.1009    5.7257   -0.3369 H   0  0  0  0  0  0  0  0  0  0  0  0
   -1.9262    7.6508    0.6836 H   0  0  0  0  0  0  0  0  0  0  0  0
    0.4801    7.4768    1.2424 H   0  0  0  0  0  0  0  0  0  0  0  0
    1.7146    5.4023    0.7930 H   0  0  0  0  0  0  0  0  0  0  0  0
    0.7320    1.9737    1.6168 H   0  0  0  0  0  0  0  0  0  0  0  0
   -1.3743    1.4332   -0.5199 H   0  0  0  0  0  0  0  0  0  0  0  0
   -1.6359    2.2106    1.0699 H   0  0  0  0  0  0  0  0  0  0  0  0
   -1.0540    0.1103    2.1880 H   0  0  0  0  0  0  0  0  0  0  0  0
   -3.3465    0.5735    1.6776 H   0  0  0  0  0  0  0  0  0  0  0  0
   -3.1833   -0.7424   -1.1092 H   0  0  0  0  0  0  0  0  0  0  0  0
   -4.6704    1.7534    0.0516 H   0  0  0  0  0  0  0  0  0  0  0  0
   -4.7881    1.1589   -1.6394 H   0  0  0  0  0  0  0  0  0  0  0  0
   -3.2932    1.8523   -1.0925 H   0  0  0  0  0  0  0  0  0  0  0  0
  1  2  1  0  0  0  0
  1 52  1  0  0  0  0
  1 53  1  0  0  0  0
  1 54  1  0  0  0  0
  2  3  1  0  0  0  0
  3  4  2  0  0  0  0
  4  5  1  0  0  0  0
  4  7  1  0  0  0  0
  5  6  1  0  0  0  0
  5 55  1  0  0  0  0
  5 56  1  0  0  0  0
  6 57  1  0  0  0  0
  7  8  2  0  0  0  0
  7  9  1  0  0  0  0
  9 10  1  0  0  0  0
 10 11  2  0  0  0  0
 10  3  1  0  0  0  0
 11 12  1  0  0  0  0
 12 13  1  0  0  0  0
 13 14  2  0  0  0  0
 14 15  1  0  0  0  0
 14 58  1  0  0  0  0
 15 16  1  0  0  0  0
 15 59  1  0  0  0  0
 15 60  1  0  0  0  0
 16 61  1  0  0  0  0
 16 62  1  0  0  0  0
 17 16  1  1  0  0  0
 18 17  1  0  0  0  0
 18 19  1  0  0  0  0
 18 32  1  0  0  0  0
 18 63  1  6  0  0  0
 19 20  1  0  0  0  0
 19 21  1  0  0  0  0
 19 64  1  1  0  0  0
 20 65  1  0  0  0  0
 21 22  1  0  0  0  0
 21 31  1  0  0  0  0
 21 66  1  6  0  0  0
 22 23  2  0  0  0  0
 22 67  1  0  0  0  0
 23 24  1  0  0  0  0
 23 68  1  0  0  0  0
 24 25  1  0  0  0  0
 24 69  1  0  0  0  0
 24 70  1  0  0  0  0
 25 26  1  0  0  0  0
 25 31  1  0  0  0  0
 25 71  1  1  0  0  0
 26 27  1  0  0  0  0
 26 72  1  0  0  0  0
 27 28  1  0  0  0  0
 27 73  1  0  0  0  0
 27 74  1  0  0  0  0
 28 29  1  0  0  0  0
 28 75  1  0  0  0  0
 28 76  1  0  0  0  0
 29 30  1  0  0  0  0
 29 77  1  0  0  0  0
 29 78  1  0  0  0  0
 30 26  1  0  0  0  0
 30 79  1  0  0  0  0
 30 80  1  0  0  0  0
 31 81  1  0  0  0  0
 31 82  1  0  0  0  0
 32 33  1  0  0  0  0
 32 83  1  1  0  0  0
 33 34  1  0  0  0  0
 33 84  1  0  0  0  0
 33 85  1  0  0  0  0
 34 35  1  0  0  0  0
 34 39  1  0  0  0  0
 35 36  1  0  0  0  0
 35 86  1  0  0  0  0
 35 87  1  0  0  0  0
 36 37  1  0  0  0  0
 36 88  1  0  0  0  0
 36 89  1  0  0  0  0
 37 38  1  0  0  0  0
 37 90  1  0  0  0  0
 37 91  1  0  0  0  0
 38 34  1  0  0  0  0
 38 92  1  0  0  0  0
 38 93  1  0  0  0  0
 39 40  1  0  0  0  0
 39 46  1  0  0  0  0
 39 94  1  1  0  0  0
 40 41  2  0  0  0  0
 41 42  1  0  0  0  0
 41 95  1  0  0  0  0
 42 43  2  0  0  0  0
 42 96  1  0  0  0  0
 43 44  1  0  0  0  0
 43 97  1  0  0  0  0
 44 45  2  0  0  0  0
 44 98  1  0  0  0  0
 45 40  1  0  0  0  0
 45 99  1  0  0  0  0
 46 47  1  0  0  0  0
 46 32  1  0  0  0  0
 46100  1  1  0  0  0
 47101  1  0  0  0  0
 47102  1  0  0  0  0
 48 47  1  0  0  0  0
 48 49  1  0  0  0  0
 48 17  1  0  0  0  0
 48103  1  1  0  0  0
 49 50  1  0  0  0  0
 49 13  1  0  0  0  0
 49104  1  1  0  0  0
 50 51  1  0  0  0  0
 50 11  1  0  0  0  0
 50105  1  6  0  0  0
 51106  1  0  0  0  0
 51107  1  0  0  0  0
 51108  1  0  0  0  0
M  END
>  <IDENTIFIER>
CNP0451829.1

>  <Energy>
1654.57

$$$$
