
 OpenBabel09122507573D

 77 82  0  0  0  0  0  0  0  0999 V2000
    4.1151   -2.1021   -0.1721 C   0  0  0  0  0  0  0  0  0  0  0  0
    3.2983   -0.7958   -0.1528 C   0  0  1  0  0  0  0  0  0  0  0  0
    1.9166   -1.0166    0.4513 C   0  0  1  0  0  0  0  0  0  0  0  0
    2.0078   -0.3224    1.8053 C   0  0  2  0  0  0  0  0  0  0  0  0
    0.5817    0.1957    2.1203 C   0  0  0  0  0  0  0  0  0  0  0  0
   -0.2757   -0.4097    1.0117 C   0  0  1  0  0  0  0  0  0  0  0  0
   -1.6596    0.2114    0.7241 C   0  0  2  0  0  0  0  0  0  0  0  0
   -2.5619    0.1424    1.9738 C   0  0  0  0  0  0  0  0  0  0  0  0
   -3.9491    0.7479    1.7021 C   0  0  1  0  0  0  0  0  0  0  0  0
   -3.8492    2.1275    1.4616 O   0  0  0  0  0  0  0  0  0  0  0  0
   -4.6133    0.0231    0.5072 C   0  0  1  0  0  0  0  0  0  0  0  0
   -6.0710    0.5310    0.2599 C   0  0  0  0  0  0  0  0  0  0  0  0
   -6.7130    0.0214   -1.0673 C   0  0  1  0  0  0  0  0  0  0  0  0
   -6.6397    1.0084   -2.0628 O   0  0  0  0  0  0  0  0  0  0  0  0
   -6.0015   -1.2462   -1.5603 C   0  0  2  0  0  0  0  0  0  0  0  0
   -6.1296   -2.2622   -0.5964 O   0  0  0  0  0  0  0  0  0  0  0  0
   -4.4908   -0.9595   -1.8355 C   0  0  0  0  0  0  0  0  0  0  0  0
   -3.7610   -0.0011   -0.8037 C   0  0  1  0  0  0  0  0  0  0  0  0
   -3.6299    1.4345   -1.4163 C   0  0  0  0  0  0  0  0  0  0  0  0
   -2.3269   -0.5747   -0.4633 C   0  0  1  0  0  0  0  0  0  0  0  0
   -1.3778   -0.6729   -1.7052 C   0  0  0  0  0  0  0  0  0  0  0  0
    0.0188   -1.2237   -1.3261 C   0  0  0  0  0  0  0  0  0  0  0  0
    0.6625   -0.3666   -0.2067 C   0  0  2  0  0  0  0  0  0  0  0  0
    0.9404    1.0816   -0.7445 C   0  0  0  0  0  0  0  0  0  0  0  0
    2.8918    0.7621    1.6422 O   0  0  0  0  0  0  0  0  0  0  0  0
    3.9137    0.3213    0.7661 C   0  0  2  0  0  0  0  0  0  0  0  0
    4.3871    1.5413   -0.1110 C   0  0  0  0  0  0  0  0  0  0  0  0
    5.8089    1.2614   -0.5801 C   0  0  0  0  0  0  0  0  0  0  0  0
    6.7353    1.1782    0.6624 C   0  0  2  0  0  0  0  0  0  0  0  0
    7.9664    0.3011    0.3742 C   0  0  0  0  0  0  0  0  0  0  0  0
    7.6004   -1.0216    0.0812 O   0  0  0  0  0  0  0  0  0  0  0  0
    5.9400    0.7206    1.9126 C   0  0  0  0  0  0  0  0  0  0  0  0
    4.9703   -0.2446    1.5662 O   0  0  0  0  0  0  0  0  0  0  0  0
    3.6028   -2.8561   -0.8073 H   0  0  0  0  0  0  0  0  0  0  0  0
    4.2235   -2.5259    0.8494 H   0  0  0  0  0  0  0  0  0  0  0  0
    5.1218   -1.9228   -0.6002 H   0  0  0  0  0  0  0  0  0  0  0  0
    3.1874   -0.4930   -1.2148 H   0  0  0  0  0  0  0  0  0  0  0  0
    1.6755   -2.0958    0.6083 H   0  0  0  0  0  0  0  0  0  0  0  0
    2.4046   -1.0185    2.5791 H   0  0  0  0  0  0  0  0  0  0  0  0
    0.5641    1.3013    2.0096 H   0  0  0  0  0  0  0  0  0  0  0  0
    0.2308   -0.0433    3.1466 H   0  0  0  0  0  0  0  0  0  0  0  0
   -0.4416   -1.4798    1.2932 H   0  0  0  0  0  0  0  0  0  0  0  0
   -1.5124    1.2760    0.4673 H   0  0  0  0  0  0  0  0  0  0  0  0
   -2.0940    0.6827    2.8244 H   0  0  0  0  0  0  0  0  0  0  0  0
   -2.6861   -0.9217    2.2753 H   0  0  0  0  0  0  0  0  0  0  0  0
   -4.5916    0.5874    2.6001 H   0  0  0  0  0  0  0  0  0  0  0  0
   -3.6796    2.5613    2.3385 H   0  0  0  0  0  0  0  0  0  0  0  0
   -4.6867   -1.0392    0.8281 H   0  0  0  0  0  0  0  0  0  0  0  0
   -6.1493    1.6399    0.2769 H   0  0  0  0  0  0  0  0  0  0  0  0
   -6.6646    0.1608    1.1250 H   0  0  0  0  0  0  0  0  0  0  0  0
   -7.7939   -0.1632   -0.8625 H   0  0  0  0  0  0  0  0  0  0  0  0
   -7.2888    0.7567   -2.7716 H   0  0  0  0  0  0  0  0  0  0  0  0
   -6.4480   -1.6223   -2.5102 H   0  0  0  0  0  0  0  0  0  0  0  0
   -7.0685   -2.5831   -0.6392 H   0  0  0  0  0  0  0  0  0  0  0  0
   -4.3591   -0.5417   -2.8576 H   0  0  0  0  0  0  0  0  0  0  0  0
   -4.0144   -1.9636   -1.8692 H   0  0  0  0  0  0  0  0  0  0  0  0
   -3.1232    1.4061   -2.4010 H   0  0  0  0  0  0  0  0  0  0  0  0
   -3.0525    2.1300   -0.7859 H   0  0  0  0  0  0  0  0  0  0  0  0
   -4.5946    1.9296   -1.5882 H   0  0  0  0  0  0  0  0  0  0  0  0
   -2.4648   -1.6201   -0.1006 H   0  0  0  0  0  0  0  0  0  0  0  0
   -1.2484    0.3127   -2.1824 H   0  0  0  0  0  0  0  0  0  0  0  0
   -1.8201   -1.3383   -2.4752 H   0  0  0  0  0  0  0  0  0  0  0  0
    0.6783   -1.2613   -2.2196 H   0  0  0  0  0  0  0  0  0  0  0  0
   -0.1162   -2.2680   -0.9655 H   0  0  0  0  0  0  0  0  0  0  0  0
    1.5998    1.0382   -1.6336 H   0  0  0  0  0  0  0  0  0  0  0  0
    1.4104    1.7497   -0.0026 H   0  0  0  0  0  0  0  0  0  0  0  0
    0.0291    1.6120   -1.0709 H   0  0  0  0  0  0  0  0  0  0  0  0
    4.4197    2.4753    0.4927 H   0  0  0  0  0  0  0  0  0  0  0  0
    3.6971    1.7397   -0.9545 H   0  0  0  0  0  0  0  0  0  0  0  0
    6.1945    2.0272   -1.2868 H   0  0  0  0  0  0  0  0  0  0  0  0
    5.7723    0.2947   -1.1252 H   0  0  0  0  0  0  0  0  0  0  0  0
    7.1111    2.1953    0.9136 H   0  0  0  0  0  0  0  0  0  0  0  0
    8.6676    0.3246    1.2399 H   0  0  0  0  0  0  0  0  0  0  0  0
    8.5234    0.7151   -0.4927 H   0  0  0  0  0  0  0  0  0  0  0  0
    7.4915   -1.4889    0.9502 H   0  0  0  0  0  0  0  0  0  0  0  0
    5.4164    1.5900    2.3748 H   0  0  0  0  0  0  0  0  0  0  0  0
    6.6144    0.3487    2.7123 H   0  0  0  0  0  0  0  0  0  0  0  0
  1 34  1  0  0  0  0
  1 35  1  0  0  0  0
  1 36  1  0  0  0  0
  2  1  1  0  0  0  0
  2  3  1  0  0  0  0
  2 37  1  6  0  0  0
  3  4  1  0  0  0  0
  3 38  1  1  0  0  0
  4  5  1  0  0  0  0
  4 25  1  0  0  0  0
  4 39  1  1  0  0  0
  5 40  1  0  0  0  0
  5 41  1  0  0  0  0
  6  5  1  0  0  0  0
  6  7  1  0  0  0  0
  6 42  1  1  0  0  0
  7  8  1  0  0  0  0
  7 43  1  6  0  0  0
  8  9  1  0  0  0  0
  8 44  1  0  0  0  0
  8 45  1  0  0  0  0
  9 10  1  0  0  0  0
  9 11  1  0  0  0  0
  9 46  1  1  0  0  0
 10 47  1  0  0  0  0
 11 12  1  0  0  0  0
 11 48  1  1  0  0  0
 12 13  1  0  0  0  0
 12 49  1  0  0  0  0
 12 50  1  0  0  0  0
 13 14  1  0  0  0  0
 13 15  1  0  0  0  0
 13 51  1  1  0  0  0
 14 52  1  0  0  0  0
 15 16  1  0  0  0  0
 15 17  1  0  0  0  0
 15 53  1  6  0  0  0
 16 54  1  0  0  0  0
 17 18  1  0  0  0  0
 17 55  1  0  0  0  0
 17 56  1  0  0  0  0
 18 19  1  6  0  0  0
 18 20  1  0  0  0  0
 18 11  1  0  0  0  0
 19 57  1  0  0  0  0
 19 58  1  0  0  0  0
 19 59  1  0  0  0  0
 20 21  1  0  0  0  0
 20  7  1  0  0  0  0
 20 60  1  1  0  0  0
 21 22  1  0  0  0  0
 21 61  1  0  0  0  0
 21 62  1  0  0  0  0
 22 23  1  0  0  0  0
 22 63  1  0  0  0  0
 22 64  1  0  0  0  0
 23 24  1  6  0  0  0
 23  3  1  0  0  0  0
 23  6  1  0  0  0  0
 24 65  1  0  0  0  0
 24 66  1  0  0  0  0
 24 67  1  0  0  0  0
 26 25  1  1  0  0  0
 26 27  1  0  0  0  0
 26  2  1  0  0  0  0
 27 28  1  0  0  0  0
 27 68  1  0  0  0  0
 27 69  1  0  0  0  0
 28 29  1  0  0  0  0
 28 70  1  0  0  0  0
 28 71  1  0  0  0  0
 29 30  1  0  0  0  0
 29 32  1  0  0  0  0
 29 72  1  1  0  0  0
 30 31  1  0  0  0  0
 30 73  1  0  0  0  0
 30 74  1  0  0  0  0
 31 75  1  0  0  0  0
 32 33  1  0  0  0  0
 32 76  1  0  0  0  0
 32 77  1  0  0  0  0
 33 26  1  0  0  0  0
M  END
>  <IDENTIFIER>
CNP0185727.1

>  <Energy>
1133.18

$$$$
