
 OpenBabel09102523493D

 63 68  0  0  0  0  0  0  0  0999 V2000
    3.0240   -0.7903   -1.7606 C   0  0  0  0  0  0  0  0  0  0  0  0
    2.1849   -0.6626   -0.4570 C   0  0  2  0  0  0  0  0  0  0  0  0
    1.2172   -1.8883   -0.4321 C   0  0  0  0  0  0  0  0  0  0  0  0
   -0.1113   -1.7729    0.3809 C   0  0  1  0  0  0  0  0  0  0  0  0
    0.0235   -2.2493    1.6951 O   0  0  0  0  0  0  0  0  0  0  0  0
   -0.8075   -0.3507    0.3525 C   0  0  1  0  0  0  0  0  0  0  0  0
   -0.1894    0.4824   -0.8339 C   0  0  1  0  0  0  0  0  0  0  0  0
   -0.9379    1.7809   -1.0469 C   0  0  0  0  0  0  0  0  0  0  0  0
   -2.3980    1.4880   -1.4604 C   0  0  0  0  0  0  0  0  0  0  0  0
   -3.0325    0.1489   -0.8859 C   0  0  2  0  0  0  0  0  0  0  0  0
   -2.7309   -0.8936   -1.7874 O   0  0  0  0  0  0  0  0  0  0  0  0
   -4.5842    0.3050   -0.7655 C   0  0  0  0  0  0  0  0  0  0  0  0
   -4.9917    1.3596    0.2993 C   0  0  1  0  0  0  0  0  0  0  0  0
   -6.3897    1.4372    0.4146 O   0  0  0  0  0  0  0  0  0  0  0  0
   -4.3464    1.0781    1.6692 C   0  0  0  0  0  0  0  0  0  0  0  0
   -2.8164    0.8698    1.5396 C   0  0  0  0  0  0  0  0  0  0  0  0
   -2.4150   -0.2584    0.5065 C   0  0  2  0  0  0  0  0  0  0  0  0
   -3.0121   -1.6083    1.0816 C   0  0  0  0  0  0  0  0  0  0  0  0
   -2.8993   -2.7001    0.2063 O   0  0  0  0  0  0  0  0  0  0  0  0
    1.3311    0.6125   -0.5167 C   0  0  2  0  0  0  0  0  0  0  0  0
    2.0755    1.8051   -0.6212 O   0  0  0  0  0  0  0  0  0  0  0  0
    1.6121    1.4595    0.6714 C   0  0  2  0  0  0  0  0  0  0  0  0
    2.5062    0.6566    1.6091 C   0  0  0  0  0  0  0  0  0  0  0  0
    3.0723   -0.5301    0.8247 C   0  0  2  0  0  0  0  0  0  0  0  0
    4.5797   -0.3660    0.6032 C   0  0  0  0  0  0  0  0  0  0  0  0
    5.4541   -1.4006    0.9882 C   0  0  0  0  0  0  0  0  0  0  0  0
    6.7661   -1.2911    0.8032 O   0  0  0  0  0  0  0  0  0  0  0  0
    7.3253   -0.2158    0.2613 C   0  0  0  0  0  0  0  0  0  0  0  0
    8.5335   -0.1725    0.1155 O   0  0  0  0  0  0  0  0  0  0  0  0
    6.5334    0.8627   -0.1382 C   0  0  0  0  0  0  0  0  0  0  0  0
    5.1524    0.7854    0.0360 C   0  0  0  0  0  0  0  0  0  0  0  0
    2.3676   -0.8466   -2.6558 H   0  0  0  0  0  0  0  0  0  0  0  0
    3.6558   -1.7036   -1.7302 H   0  0  0  0  0  0  0  0  0  0  0  0
    3.6712    0.0905   -1.9319 H   0  0  0  0  0  0  0  0  0  0  0  0
    1.7451   -2.8483   -0.2424 H   0  0  0  0  0  0  0  0  0  0  0  0
    0.8516   -1.9824   -1.4819 H   0  0  0  0  0  0  0  0  0  0  0  0
   -0.7182   -2.5121   -0.1610 H   0  0  0  0  0  0  0  0  0  0  0  0
    0.7332   -1.7187    2.1339 H   0  0  0  0  0  0  0  0  0  0  0  0
   -0.4387    0.1294    1.2824 H   0  0  0  0  0  0  0  0  0  0  0  0
   -0.2930   -0.0639   -1.7968 H   0  0  0  0  0  0  0  0  0  0  0  0
   -0.4635    2.4243   -1.8191 H   0  0  0  0  0  0  0  0  0  0  0  0
   -0.9079    2.3590   -0.1087 H   0  0  0  0  0  0  0  0  0  0  0  0
   -2.4715    1.4288   -2.5684 H   0  0  0  0  0  0  0  0  0  0  0  0
   -2.9409    2.4118   -1.2005 H   0  0  0  0  0  0  0  0  0  0  0  0
   -3.2327   -0.7366   -2.6302 H   0  0  0  0  0  0  0  0  0  0  0  0
   -5.0320   -0.6723   -0.4917 H   0  0  0  0  0  0  0  0  0  0  0  0
   -5.0174    0.5909   -1.7488 H   0  0  0  0  0  0  0  0  0  0  0  0
   -4.6494    2.3590   -0.0220 H   0  0  0  0  0  0  0  0  0  0  0  0
   -6.7160    0.5472    0.7110 H   0  0  0  0  0  0  0  0  0  0  0  0
   -4.8277    0.2019    2.1385 H   0  0  0  0  0  0  0  0  0  0  0  0
   -4.5524    1.9263    2.3575 H   0  0  0  0  0  0  0  0  0  0  0  0
   -2.4034    0.6342    2.5445 H   0  0  0  0  0  0  0  0  0  0  0  0
   -2.4005    1.8479    1.2554 H   0  0  0  0  0  0  0  0  0  0  0  0
   -4.0781   -1.5420    1.3608 H   0  0  0  0  0  0  0  0  0  0  0  0
   -2.5080   -1.8610    2.0381 H   0  0  0  0  0  0  0  0  0  0  0  0
   -3.7399   -2.7600   -0.3184 H   0  0  0  0  0  0  0  0  0  0  0  0
    0.9739    2.2861    1.0424 H   0  0  0  0  0  0  0  0  0  0  0  0
    1.8123    0.2684    2.3827 H   0  0  0  0  0  0  0  0  0  0  0  0
    3.2702    1.2618    2.1431 H   0  0  0  0  0  0  0  0  0  0  0  0
    2.9618   -1.4546    1.4332 H   0  0  0  0  0  0  0  0  0  0  0  0
    5.0684   -2.3096    1.4312 H   0  0  0  0  0  0  0  0  0  0  0  0
    6.9794    1.7470   -0.5767 H   0  0  0  0  0  0  0  0  0  0  0  0
    4.5412    1.6212   -0.2689 H   0  0  0  0  0  0  0  0  0  0  0  0
  1 32  1  0  0  0  0
  1 33  1  0  0  0  0
  1 34  1  0  0  0  0
  2  1  1  6  0  0  0
  2  3  1  0  0  0  0
  3  4  1  0  0  0  0
  3 35  1  0  0  0  0
  3 36  1  0  0  0  0
  4  5  1  0  0  0  0
  4 37  1  6  0  0  0
  5 38  1  0  0  0  0
  6  4  1  0  0  0  0
  6  7  1  0  0  0  0
  6 39  1  1  0  0  0
  7  8  1  0  0  0  0
  7 20  1  0  0  0  0
  7 40  1  6  0  0  0
  8  9  1  0  0  0  0
  8 41  1  0  0  0  0
  8 42  1  0  0  0  0
  9 10  1  0  0  0  0
  9 43  1  0  0  0  0
  9 44  1  0  0  0  0
 10 11  1  6  0  0  0
 10 12  1  0  0  0  0
 11 45  1  0  0  0  0
 12 13  1  0  0  0  0
 12 46  1  0  0  0  0
 12 47  1  0  0  0  0
 13 14  1  0  0  0  0
 13 15  1  0  0  0  0
 13 48  1  6  0  0  0
 14 49  1  0  0  0  0
 15 16  1  0  0  0  0
 15 50  1  0  0  0  0
 15 51  1  0  0  0  0
 16 17  1  0  0  0  0
 16 52  1  0  0  0  0
 16 53  1  0  0  0  0
 17 18  1  1  0  0  0
 17  6  1  0  0  0  0
 17 10  1  0  0  0  0
 18 19  1  0  0  0  0
 18 54  1  0  0  0  0
 18 55  1  0  0  0  0
 19 56  1  0  0  0  0
 20 21  1  6  0  0  0
 20  2  1  0  0  0  0
 21 22  1  0  0  0  0
 22 23  1  0  0  0  0
 22 20  1  0  0  0  0
 22 57  1  1  0  0  0
 23 24  1  0  0  0  0
 23 58  1  0  0  0  0
 23 59  1  0  0  0  0
 24 25  1  0  0  0  0
 24  2  1  0  0  0  0
 24 60  1  1  0  0  0
 25 26  2  0  0  0  0
 26 27  1  0  0  0  0
 26 61  1  0  0  0  0
 27 28  1  0  0  0  0
 28 29  2  0  0  0  0
 28 30  1  0  0  0  0
 30 31  2  0  0  0  0
 30 62  1  0  0  0  0
 31 25  1  0  0  0  0
 31 63  1  0  0  0  0
M  END
>  <IDENTIFIER>
CNP0218629.1

>  <Energy>
2498.05

$$$$
