
 OpenBabel09092509243D

 74 78  0  0  0  0  0  0  0  0999 V2000
   -2.6083    7.7213   -2.5589 C   0  0  0  0  0  0  0  0  0  0  0  0
   -2.1285    6.9041   -1.5146 O   0  0  0  0  0  0  0  0  0  0  0  0
   -2.0654    5.5673   -1.9630 C   0  0  0  0  0  0  0  0  0  0  0  0
   -1.5205    4.6884   -0.8360 C   0  0  0  0  0  0  0  0  0  0  0  0
   -1.3253    3.2446   -1.3118 C   0  0  0  0  0  0  0  0  0  0  0  0
   -0.7884    2.4232   -0.2382 N   0  0  0  0  0  0  0  0  0  0  0  0
    0.4912    1.9553   -0.1799 C   0  0  0  0  0  0  0  0  0  0  0  0
    1.3363    2.1594   -1.0372 O   0  0  0  0  0  0  0  0  0  0  0  0
    0.6373    1.0081    0.9524 C   0  0  1  0  0  0  0  0  0  0  0  0
    1.7673    0.7804    1.9717 C   0  0  2  0  0  0  0  0  0  0  0  0
    2.5282   -0.5115    1.7167 C   0  0  0  0  0  0  0  0  0  0  0  0
    2.5685   -0.9769    0.5862 O   0  0  0  0  0  0  0  0  0  0  0  0
    3.1511   -1.1604    2.7479 N   0  0  0  0  0  0  0  0  0  0  0  0
    3.9305   -2.3451    2.6125 C   0  0  0  0  0  0  0  0  0  0  0  0
    3.8502   -3.3125    3.6213 C   0  0  0  0  0  0  0  0  0  0  0  0
    4.6005   -4.4836    3.5408 C   0  0  0  0  0  0  0  0  0  0  0  0
    5.4778   -4.6825    2.4752 C   0  0  0  0  0  0  0  0  0  0  0  0
    5.6034   -3.7066    1.4656 C   0  0  0  0  0  0  0  0  0  0  0  0
    6.4887   -3.8319    0.4420 O   0  0  0  0  0  0  0  0  0  0  0  0
    7.4090   -4.8529    0.3020 C   0  0  0  0  0  0  0  0  0  0  0  0
    4.8080   -2.5510    1.5288 C   0  0  0  0  0  0  0  0  0  0  0  0
    0.8737    0.8431    3.2799 C   0  0  1  0  0  0  0  0  0  0  0  0
    0.7973    2.2965    3.6024 C   0  0  0  0  0  0  0  0  0  0  0  0
   -0.0020    2.7989    2.6297 C   0  0  0  0  0  0  0  0  0  0  0  0
   -0.4371    1.5702    1.8645 C   0  0  2  0  0  0  0  0  0  0  0  0
   -0.4713    0.5919    2.8669 O   0  0  0  0  0  0  0  0  0  0  0  0
   -1.5716    1.9278    0.8949 C   0  0  2  0  0  0  0  0  0  0  0  0
   -2.4204    0.7112    0.5515 C   0  0  0  0  0  0  0  0  0  0  0  0
   -3.1367    0.2516    1.4297 O   0  0  0  0  0  0  0  0  0  0  0  0
   -2.3731    0.1160   -0.6762 N   0  0  0  0  0  0  0  0  0  0  0  0
   -3.1553   -1.0605   -1.0299 C   0  0  1  0  0  0  0  0  0  0  0  0
   -4.0157   -0.6998   -2.2821 C   0  0  0  0  0  0  0  0  0  0  0  0
   -4.4336   -1.9635   -3.0209 C   0  0  0  0  0  0  0  0  0  0  0  0
   -3.1844   -2.7049   -3.5698 C   0  0  0  0  0  0  0  0  0  0  0  0
   -1.8934   -2.4373   -2.7507 C   0  0  0  0  0  0  0  0  0  0  0  0
   -2.1927   -2.2825   -1.2556 C   0  0  2  0  0  0  0  0  0  0  0  0
   -2.7384   -3.5981   -0.6616 C   0  0  0  0  0  0  0  0  0  0  0  0
   -2.5418    8.7799   -2.2338 H   0  0  0  0  0  0  0  0  0  0  0  0
   -3.6772    7.5028   -2.7730 H   0  0  0  0  0  0  0  0  0  0  0  0
   -1.9838    7.6328   -3.4769 H   0  0  0  0  0  0  0  0  0  0  0  0
   -1.3727    5.4846   -2.8327 H   0  0  0  0  0  0  0  0  0  0  0  0
   -3.0796    5.1953   -2.2376 H   0  0  0  0  0  0  0  0  0  0  0  0
   -2.2144    4.7290    0.0300 H   0  0  0  0  0  0  0  0  0  0  0  0
   -0.5307    5.0852   -0.5172 H   0  0  0  0  0  0  0  0  0  0  0  0
   -0.6152    3.2664   -2.1654 H   0  0  0  0  0  0  0  0  0  0  0  0
   -2.2808    2.8075   -1.6758 H   0  0  0  0  0  0  0  0  0  0  0  0
    0.2401    0.0226    0.6051 H   0  0  0  0  0  0  0  0  0  0  0  0
    2.5278    1.5939    2.0180 H   0  0  0  0  0  0  0  0  0  0  0  0
    3.0110   -0.8108    3.7039 H   0  0  0  0  0  0  0  0  0  0  0  0
    3.1817   -3.1662    4.4603 H   0  0  0  0  0  0  0  0  0  0  0  0
    4.5098   -5.2345    4.3144 H   0  0  0  0  0  0  0  0  0  0  0  0
    6.0615   -5.5923    2.4532 H   0  0  0  0  0  0  0  0  0  0  0  0
    8.0337   -4.6624   -0.5944 H   0  0  0  0  0  0  0  0  0  0  0  0
    6.8885   -5.8257    0.1768 H   0  0  0  0  0  0  0  0  0  0  0  0
    8.0774   -4.8919    1.1898 H   0  0  0  0  0  0  0  0  0  0  0  0
    4.9187   -1.7976    0.7583 H   0  0  0  0  0  0  0  0  0  0  0  0
    1.2265    0.2820    4.1652 H   0  0  0  0  0  0  0  0  0  0  0  0
    1.2248    2.8345    4.4377 H   0  0  0  0  0  0  0  0  0  0  0  0
   -0.3480    3.8218    2.5532 H   0  0  0  0  0  0  0  0  0  0  0  0
   -2.2335    2.7132    1.3227 H   0  0  0  0  0  0  0  0  0  0  0  0
   -1.7297    0.4781   -1.3938 H   0  0  0  0  0  0  0  0  0  0  0  0
   -3.8338   -1.3411   -0.1938 H   0  0  0  0  0  0  0  0  0  0  0  0
   -3.4267   -0.0943   -3.0070 H   0  0  0  0  0  0  0  0  0  0  0  0
   -4.8872   -0.0864   -1.9674 H   0  0  0  0  0  0  0  0  0  0  0  0
   -5.1383   -1.7627   -3.8560 H   0  0  0  0  0  0  0  0  0  0  0  0
   -4.9788   -2.5902   -2.2862 H   0  0  0  0  0  0  0  0  0  0  0  0
   -2.9588   -2.3811   -4.6091 H   0  0  0  0  0  0  0  0  0  0  0  0
   -3.4340   -3.7870   -3.6062 H   0  0  0  0  0  0  0  0  0  0  0  0
   -1.4568   -1.4673   -3.0778 H   0  0  0  0  0  0  0  0  0  0  0  0
   -1.1337   -3.2198   -2.9634 H   0  0  0  0  0  0  0  0  0  0  0  0
   -1.2473   -2.0964   -0.6966 H   0  0  0  0  0  0  0  0  0  0  0  0
   -3.6926   -3.9207   -1.1165 H   0  0  0  0  0  0  0  0  0  0  0  0
   -2.9026   -3.4783    0.4307 H   0  0  0  0  0  0  0  0  0  0  0  0
   -1.9969   -4.4121   -0.8071 H   0  0  0  0  0  0  0  0  0  0  0  0
  1  2  1  0  0  0  0
  1 38  1  0  0  0  0
  1 39  1  0  0  0  0
  1 40  1  0  0  0  0
  2  3  1  0  0  0  0
  3  4  1  0  0  0  0
  3 41  1  0  0  0  0
  3 42  1  0  0  0  0
  4  5  1  0  0  0  0
  4 43  1  0  0  0  0
  4 44  1  0  0  0  0
  5  6  1  0  0  0  0
  5 45  1  0  0  0  0
  5 46  1  0  0  0  0
  6  7  1  0  0  0  0
  7  8  2  0  0  0  0
  9  7  1  0  0  0  0
  9 10  1  0  0  0  0
  9 47  1  6  0  0  0
 10 11  1  0  0  0  0
 10 22  1  0  0  0  0
 10 48  1  6  0  0  0
 11 12  2  0  0  0  0
 11 13  1  0  0  0  0
 13 14  1  0  0  0  0
 13 49  1  0  0  0  0
 14 15  2  0  0  0  0
 15 16  1  0  0  0  0
 15 50  1  0  0  0  0
 16 17  2  0  0  0  0
 16 51  1  0  0  0  0
 17 18  1  0  0  0  0
 17 52  1  0  0  0  0
 18 19  1  0  0  0  0
 18 21  2  0  0  0  0
 19 20  1  0  0  0  0
 20 53  1  0  0  0  0
 20 54  1  0  0  0  0
 20 55  1  0  0  0  0
 21 14  1  0  0  0  0
 21 56  1  0  0  0  0
 22 23  1  0  0  0  0
 22 57  1  1  0  0  0
 23 24  2  0  0  0  0
 23 58  1  0  0  0  0
 24 59  1  0  0  0  0
 25 24  1  1  0  0  0
 25 26  1  0  0  0  0
 25 27  1  0  0  0  0
 25  9  1  0  0  0  0
 26 22  1  0  0  0  0
 27 28  1  0  0  0  0
 27  6  1  0  0  0  0
 27 60  1  1  0  0  0
 28 29  2  0  0  0  0
 28 30  1  0  0  0  0
 30 61  1  0  0  0  0
 31 30  1  0  0  0  0
 31 32  1  0  0  0  0
 31 62  1  1  0  0  0
 32 33  1  0  0  0  0
 32 63  1  0  0  0  0
 32 64  1  0  0  0  0
 33 34  1  0  0  0  0
 33 65  1  0  0  0  0
 33 66  1  0  0  0  0
 34 35  1  0  0  0  0
 34 67  1  0  0  0  0
 34 68  1  0  0  0  0
 35 36  1  0  0  0  0
 35 69  1  0  0  0  0
 35 70  1  0  0  0  0
 36 37  1  0  0  0  0
 36 31  1  0  0  0  0
 36 71  1  1  0  0  0
 37 72  1  0  0  0  0
 37 73  1  0  0  0  0
 37 74  1  0  0  0  0
M  END
>  <IDENTIFIER>
CNP0528482.2

>  <Energy>
1202.81

$$$$
