
 OpenBabel09092516433D

 40 42  0  0  0  0  0  0  0  0999 V2000
    1.8576    2.7956   -1.1427 C   0  0  0  0  0  0  0  0  0  0  0  0
    0.8332    2.2103   -0.4893 C   0  0  0  0  0  0  0  0  0  0  0  0
   -0.5870    2.6325   -0.8466 C   0  0  0  0  0  0  0  0  0  0  0  0
   -1.4766    1.4584   -1.2786 C   0  0  0  0  0  0  0  0  0  0  0  0
   -1.9605    0.6584   -0.0518 C   0  0  2  0  0  0  0  0  0  0  0  0
   -0.9967   -0.3061    0.6888 C   0  0  2  0  0  0  0  0  0  0  0  0
    0.4703   -0.2314    0.2076 C   0  0  1  0  0  0  0  0  0  0  0  0
    1.0694    1.1488    0.5859 C   0  0  1  0  0  0  0  0  0  0  0  0
    2.5185    0.8214    0.9601 C   0  0  0  0  0  0  0  0  0  0  0  0
    2.3215   -0.4403    1.7864 C   0  0  0  0  0  0  0  0  0  0  0  0
    1.3965   -1.2915    0.8983 C   0  0  2  0  0  0  0  0  0  0  0  0
    2.2095   -2.0705   -0.1673 C   0  0  0  0  0  0  0  0  0  0  0  0
    0.6648   -2.2167    1.6693 O   0  0  0  0  0  0  0  0  0  0  0  0
   -2.1566   -0.8538   -0.1535 C   0  0  0  0  0  0  0  0  0  0  0  0
   -3.3392   -1.3897    0.6637 C   0  0  0  0  0  0  0  0  0  0  0  0
   -1.8428   -1.6368   -1.4403 C   0  0  0  0  0  0  0  0  0  0  0  0
    1.6810    3.5483   -1.9049 H   0  0  0  0  0  0  0  0  0  0  0  0
    2.8939    2.5556   -0.9445 H   0  0  0  0  0  0  0  0  0  0  0  0
   -0.5566    3.3571   -1.6903 H   0  0  0  0  0  0  0  0  0  0  0  0
   -1.0594    3.1576    0.0123 H   0  0  0  0  0  0  0  0  0  0  0  0
   -0.9601    0.8800   -2.0665 H   0  0  0  0  0  0  0  0  0  0  0  0
   -2.3994    1.8722   -1.7381 H   0  0  0  0  0  0  0  0  0  0  0  0
   -2.5811    1.2042    0.6929 H   0  0  0  0  0  0  0  0  0  0  0  0
   -1.1738   -0.2107    1.7839 H   0  0  0  0  0  0  0  0  0  0  0  0
    0.5760   -0.3580   -0.8872 H   0  0  0  0  0  0  0  0  0  0  0  0
    0.6067    1.5047    1.5374 H   0  0  0  0  0  0  0  0  0  0  0  0
    3.0215    1.6410    1.5174 H   0  0  0  0  0  0  0  0  0  0  0  0
    3.1242    0.5754    0.0634 H   0  0  0  0  0  0  0  0  0  0  0  0
    1.7715   -0.1525    2.7127 H   0  0  0  0  0  0  0  0  0  0  0  0
    3.2581   -0.9531    2.0943 H   0  0  0  0  0  0  0  0  0  0  0  0
    2.9147   -2.7740    0.3242 H   0  0  0  0  0  0  0  0  0  0  0  0
    2.7974   -1.4029   -0.8298 H   0  0  0  0  0  0  0  0  0  0  0  0
    1.5204   -2.6601   -0.8085 H   0  0  0  0  0  0  0  0  0  0  0  0
    1.3169   -2.7685    2.1756 H   0  0  0  0  0  0  0  0  0  0  0  0
   -3.1450   -2.4440    0.9514 H   0  0  0  0  0  0  0  0  0  0  0  0
   -4.2625   -1.3485    0.0494 H   0  0  0  0  0  0  0  0  0  0  0  0
   -3.5126   -0.8033    1.5922 H   0  0  0  0  0  0  0  0  0  0  0  0
   -1.6443   -2.6970   -1.1772 H   0  0  0  0  0  0  0  0  0  0  0  0
   -0.9771   -1.2792   -2.0207 H   0  0  0  0  0  0  0  0  0  0  0  0
   -2.7289   -1.6028   -2.1080 H   0  0  0  0  0  0  0  0  0  0  0  0
  1  2  2  0  0  0  0
  1 17  1  0  0  0  0
  1 18  1  0  0  0  0
  2  3  1  0  0  0  0
  3  4  1  0  0  0  0
  3 19  1  0  0  0  0
  3 20  1  0  0  0  0
  4 21  1  0  0  0  0
  4 22  1  0  0  0  0
  5  4  1  0  0  0  0
  5  6  1  0  0  0  0
  5 23  1  1  0  0  0
  6  7  1  0  0  0  0
  6 14  1  0  0  0  0
  6 24  1  1  0  0  0
  7  8  1  0  0  0  0
  7 11  1  0  0  0  0
  7 25  1  6  0  0  0
  8  9  1  0  0  0  0
  8  2  1  0  0  0  0
  8 26  1  1  0  0  0
  9 10  1  0  0  0  0
  9 27  1  0  0  0  0
  9 28  1  0  0  0  0
 10 11  1  0  0  0  0
 10 29  1  0  0  0  0
 10 30  1  0  0  0  0
 11 12  1  0  0  0  0
 11 13  1  1  0  0  0
 12 31  1  0  0  0  0
 12 32  1  0  0  0  0
 12 33  1  0  0  0  0
 13 34  1  0  0  0  0
 14 15  1  0  0  0  0
 14 16  1  0  0  0  0
 14  5  1  0  0  0  0
 15 35  1  0  0  0  0
 15 36  1  0  0  0  0
 15 37  1  0  0  0  0
 16 38  1  0  0  0  0
 16 39  1  0  0  0  0
 16 40  1  0  0  0  0
M  END
>  <IDENTIFIER>
CNP0141421.9

>  <Energy>
1769.16

$$$$
