
 OpenBabel09122502592D

172171  0  0  0  0  0  0  0  0999 V2000
   28.7798   13.1519    0.0000 C   0  0  0  0  0  0  0  0  0  0  0  0
   28.0298   14.4510    0.0000 C   0  0  0  0  0  0  0  0  0  0  0  0
   27.2798   15.7500    0.0000 C   0  0  3  0  0  3  0  0  0  0  0  0
   26.5298   17.0490    0.0000 C   0  0  0  0  0  0  0  0  0  0  0  0
   25.9081   14.6616    0.0294 C   0  0  0  0  0  0  0  0  0  0  0  0
   24.2866   14.5332    0.0030 C   0  0  0  0  0  0  0  0  0  0  0  0
   23.6941   12.9715    0.0469 C   0  0  0  0  0  0  0  0  0  0  0  0
   22.0836   12.7500    0.0000 C   0  0  0  0  0  0  0  0  0  0  0  0
   20.7846   12.0000    0.0000 C   0  0  0  0  0  2  0  0  0  0  0  0
   19.4856   11.2500    0.0000 C   0  0  0  0  0  0  0  0  0  0  0  0
   18.1865   10.5000    0.0000 C   0  0  0  0  0  0  0  0  0  0  0  0
   16.8875    9.7500    0.0000 C   0  0  0  0  0  2  0  0  0  0  0  0
   15.5885    9.0000    0.0000 C   0  0  0  0  0  0  0  0  0  0  0  0
   13.9460    8.6505   -0.0728 C   0  0  0  0  0  0  0  0  0  0  0  0
   13.3381    7.0695    0.0889 C   0  0  0  0  0  0  0  0  0  0  0  0
   11.6913    6.7500    0.0000 C   0  0  0  0  0  0  0  0  0  0  0  0
   10.3923    6.0000    0.0000 C   0  0  0  0  0  0  0  0  0  0  0  0
    9.0933    5.2500    0.0000 C   0  0  0  0  0  0  0  0  0  0  0  0
    7.7942    4.5000    0.0000 C   0  0  0  0  0  0  0  0  0  0  0  0
    6.4952    3.7500    0.0000 C   0  0  0  0  0  0  0  0  0  0  0  0
    5.1962    3.0000    0.0000 C   0  0  0  0  0  0  0  0  0  0  0  0
    3.5624    3.0676   -0.2868 C   0  0  0  0  0  0  0  0  0  0  0  0
    2.6821    1.6481   -0.1197 C   0  0  0  0  0  0  0  0  0  0  0  0
    1.0468    1.4866   -0.4181 C   0  0  0  0  0  0  0  0  0  0  0  0
    0.2714    0.0572   -0.2169 C   0  0  0  0  0  0  0  0  0  0  0  0
    0.9595   -0.8640    0.1934 O   0  0  0  0  0  0  0  0  0  0  0  0
   -1.1230   -0.2176   -0.4795 O   0  0  0  0  0  0  0  0  0  0  0  0
   -1.8321   -1.4846   -0.2489 C   0  0  0  0  0  0  0  0  0  0  0  0
   -3.4302   -1.7221   -0.6841 C   0  0  1  0  0  0  0  0  0  0  0  0
   -4.0960   -3.2012   -0.3882 C   0  0  0  0  0  0  0  0  0  0  0  0
   -5.4062   -3.5663   -0.9265 O   0  0  0  0  0  0  0  0  0  0  0  0
   -6.5749   -4.0494   -0.2557 C   0  0  0  0  0  0  0  0  0  0  0  0
   -6.6776   -3.8116    0.9375 O   0  0  0  0  0  0  0  0  0  0  0  0
   -7.7841   -4.9179   -0.9374 C   0  0  0  0  0  0  0  0  0  0  0  0
   -9.0933   -5.2500    0.0000 C   0  0  0  0  0  0  0  0  0  0  0  0
  -10.3923   -6.0000    0.0000 C   0  0  0  0  0  0  0  0  0  0  0  0
  -11.6913   -6.7500    0.0000 C   0  0  0  0  0  0  0  0  0  0  0  0
  -13.3414   -7.0654   -0.0042 C   0  0  0  0  0  0  0  0  0  0  0  0
  -13.9439   -8.6557    0.0414 C   0  0  0  0  0  0  0  0  0  0  0  0
  -15.5885   -9.0000    0.0000 C   0  0  0  0  0  0  0  0  0  0  0  0
  -16.8875   -9.7500    0.0000 C   0  0  0  0  0  2  0  0  0  0  0  0
  -18.1865  -10.5000    0.0000 C   0  0  3  0  0  0  0  0  0  0  0  0
  -19.4856  -11.2500    0.0000 C   0  0  0  0  0  0  0  0  0  0  0  0
  -18.9365   -9.2010    0.0000 C   0  0  0  0  0  0  0  0  0  0  0  0
  -19.6865   -7.9019    0.0000 C   0  0  0  0  0  0  0  0  0  0  0  0
   -4.2290   -0.8220   -0.0076 O   0  0  0  0  0  0  0  0  0  0  0  0
   -5.2044   -0.0346   -0.5309 C   0  0  0  0  0  0  0  0  0  0  0  0
   -5.4502   -0.0318   -1.7309 O   0  0  0  0  0  0  0  0  0  0  0  0
   -5.9546    0.8354    0.4269 C   0  0  0  0  0  0  0  0  0  0  0  0
   -6.9628    1.8343   -0.1911 C   0  0  0  0  0  0  0  0  0  0  0  0
   -7.4556    2.7649    0.9340 C   0  0  0  0  0  0  0  0  0  0  0  0
   -7.9279    4.1598    0.5094 C   0  0  0  0  0  0  0  0  0  0  0  0
   -9.4162    4.5476    0.1580 C   0  0  0  0  0  0  0  0  0  0  0  0
   -9.3481    6.0933    0.0000 C   0  0  0  0  0  0  0  0  0  0  0  0
  -10.0981    7.3923    0.0000 C   0  0  0  0  0  0  0  0  0  0  0  0
  -10.8481    8.6913    0.0000 C   0  0  0  0  0  0  0  0  0  0  0  0
  -11.2791   10.2687   -0.3956 C   0  0  0  0  0  0  0  0  0  0  0  0
  -12.7688   10.9413    0.0957 C   0  0  0  0  0  0  0  0  0  0  0  0
  -13.0981   12.5885    0.0000 C   0  0  0  0  0  0  0  0  0  0  0  0
  -13.8481   13.8875    0.0000 C   0  0  0  0  0  0  0  0  0  0  0  0
  -14.5981   15.1865    0.0000 C   0  0  0  0  0  0  0  0  0  0  0  0
  -15.3481   16.4856    0.0000 C   0  0  0  0  0  0  0  0  0  0  0  0
  -16.0981   17.7846    0.0000 C   0  0  0  0  0  0  0  0  0  0  0  0
  -16.8481   19.0836    0.0000 C   0  0  0  0  0  0  0  0  0  0  0  0
  -17.3971   17.0346    0.0000 C   0  0  0  0  0  0  0  0  0  0  0  0
   28.2089   12.6634    0.8248 H   0  0  0  0  0  0  0  0  0  0  0  0
   29.8004   13.4991    0.3193 H   0  0  0  0  0  0  0  0  0  0  0  0
   29.3148   12.2252    0.0000 H   0  0  0  0  0  0  0  0  0  0  0  0
   28.7198   14.9029   -0.7513 H   0  0  0  0  0  0  0  0  0  0  0  0
   28.3375   14.7314    1.0458 H   0  0  0  0  0  0  0  0  0  0  0  0
   27.4453   17.6688    0.0901 H   0  0  0  0  0  0  0  0  0  0  0  0
   26.2389   16.9942   -1.0716 H   0  0  0  0  0  0  0  0  0  0  0  0
   25.9948   17.9756    0.0000 H   0  0  0  0  0  0  0  0  0  0  0  0
   26.0079   14.0776    0.9889 H   0  0  0  0  0  0  0  0  0  0  0  0
   26.0105   14.0095   -0.8880 H   0  0  0  0  0  0  0  0  0  0  0  0
   23.8739   15.0902    0.8711 H   0  0  0  0  0  0  0  0  0  0  0  0
   23.9126   15.0219   -0.9222 H   0  0  0  0  0  0  0  0  0  0  0  0
   24.0691   12.4948    0.9772 H   0  0  0  0  0  0  0  0  0  0  0  0
   24.1278   12.4175   -0.8124 H   0  0  0  0  0  0  0  0  0  0  0  0
   21.8838   13.3378   -0.9205 H   0  0  0  0  0  0  0  0  0  0  0  0
   21.8254   13.4266    0.8415 H   0  0  0  0  0  0  0  0  0  0  0  0
   19.8547   10.6943    0.8959 H   0  0  0  0  0  0  0  0  0  0  0  0
   19.8547   10.6944   -0.8960 H   0  0  0  0  0  0  0  0  0  0  0  0
   17.8174   11.0557   -0.8959 H   0  0  0  0  0  0  0  0  0  0  0  0
   17.8174   11.0556    0.8960 H   0  0  0  0  0  0  0  0  0  0  0  0
   15.7697    8.4916    0.9699 H   0  0  0  0  0  0  0  0  0  0  0  0
   15.8939    8.2746   -0.7827 H   0  0  0  0  0  0  0  0  0  0  0  0
   13.5839    9.0321   -1.0505 H   0  0  0  0  0  0  0  0  0  0  0  0
   13.4571    9.2587    0.7171 H   0  0  0  0  0  0  0  0  0  0  0  0
   13.8271    6.4546   -0.6958 H   0  0  0  0  0  0  0  0  0  0  0  0
   13.6889    6.6893    1.0712 H   0  0  0  0  0  0  0  0  0  0  0  0
   11.4129    7.5342    0.7480 H   0  0  0  0  0  0  0  0  0  0  0  0
   11.5484    7.2800   -0.9761 H   0  0  0  0  0  0  0  0  0  0  0  0
   10.9535    5.3207   -0.7220 H   0  0  0  0  0  0  0  0  0  0  0  0
   10.5781    5.6878    1.0637 H   0  0  0  0  0  0  0  0  0  0  0  0
    8.9840    5.4825   -1.1041 H   0  0  0  0  0  0  0  0  0  0  0  0
    9.5756    4.2171    0.0725 H   0  0  0  0  0  0  0  0  0  0  0  0
    7.3058    5.5283   -0.0961 H   0  0  0  0  0  0  0  0  0  0  0  0
    7.8962    4.2845    1.1064 H   0  0  0  0  0  0  0  0  0  0  0  0
    5.9166    4.4494    0.6854 H   0  0  0  0  0  0  0  0  0  0  0  0
    6.3418    3.9973   -1.0831 H   0  0  0  0  0  0  0  0  0  0  0  0
    5.2018    2.5190    1.0100 H   0  0  0  0  0  0  0  0  0  0  0  0
    5.4501    2.1449   -0.6724 H   0  0  0  0  0  0  0  0  0  0  0  0
    3.4219    3.4256   -1.3277 H   0  0  0  0  0  0  0  0  0  0  0  0
    3.1233    3.8246    0.3963 H   0  0  0  0  0  0  0  0  0  0  0  0
    3.1781    0.9044   -0.7783 H   0  0  0  0  0  0  0  0  0  0  0  0
    2.8402    1.3122    0.9266 H   0  0  0  0  0  0  0  0  0  0  0  0
    0.5260    2.2249    0.2264 H   0  0  0  0  0  0  0  0  0  0  0  0
    0.8889    1.7896   -1.4735 H   0  0  0  0  0  0  0  0  0  0  0  0
   -1.7600   -1.7108    0.8366 H   0  0  0  0  0  0  0  0  0  0  0  0
   -1.2617   -2.2759   -0.7771 H   0  0  0  0  0  0  0  0  0  0  0  0
   -3.4849   -1.5635   -1.7819 H   0  0  0  0  0  0  0  0  0  0  0  0
   -3.3802   -3.9318   -0.8188 H   0  0  0  0  0  0  0  0  0  0  0  0
   -4.0868   -3.3682    0.7095 H   0  0  0  0  0  0  0  0  0  0  0  0
   -7.3479   -5.8763   -1.2907 H   0  0  0  0  0  0  0  0  0  0  0  0
   -8.1495   -4.3612   -1.8254 H   0  0  0  0  0  0  0  0  0  0  0  0
   -9.3574   -4.1870    0.2540 H   0  0  0  0  0  0  0  0  0  0  0  0
   -8.5948   -5.6716    0.9039 H   0  0  0  0  0  0  0  0  0  0  0  0
  -10.7287   -5.4087   -0.8870 H   0  0  0  0  0  0  0  0  0  0  0  0
  -10.7311   -5.5060    0.9521 H   0  0  0  0  0  0  0  0  0  0  0  0
  -11.4714   -7.3909   -0.8873 H   0  0  0  0  0  0  0  0  0  0  0  0
  -11.4752   -7.4217    0.8685 H   0  0  0  0  0  0  0  0  0  0  0  0
  -13.7762   -6.5346    0.8683 H   0  0  0  0  0  0  0  0  0  0  0  0
  -13.7544   -6.5889   -0.9183 H   0  0  0  0  0  0  0  0  0  0  0  0
  -13.5470   -9.1134    0.9721 H   0  0  0  0  0  0  0  0  0  0  0  0
  -13.4851   -9.1980   -0.8115 H   0  0  0  0  0  0  0  0  0  0  0  0
  -15.8008   -8.4340   -0.9310 H   0  0  0  0  0  0  0  0  0  0  0  0
  -15.8677   -8.3230    0.8341 H   0  0  0  0  0  0  0  0  0  0  0  0
  -17.8917  -10.8177   -1.0361 H   0  0  0  0  0  0  0  0  0  0  0  0
  -19.6887  -11.2285    1.1005 H   0  0  0  0  0  0  0  0  0  0  0  0
  -19.0508  -12.2678   -0.1488 H   0  0  0  0  0  0  0  0  0  0  0  0
  -20.4123  -11.7850    0.0000 H   0  0  0  0  0  0  0  0  0  0  0  0
  -19.2014   -9.2075    1.0985 H   0  0  0  0  0  0  0  0  0  0  0  0
  -19.3124   -9.3262   -1.0844 H   0  0  0  0  0  0  0  0  0  0  0  0
  -19.2063   -7.3796   -0.8726 H   0  0  0  0  0  0  0  0  0  0  0  0
  -20.7396   -8.2821   -0.1202 H   0  0  0  0  0  0  0  0  0  0  0  0
  -20.2215   -6.9752    0.0000 H   0  0  0  0  0  0  0  0  0  0  0  0
   -6.4635    0.1984    1.1827 H   0  0  0  0  0  0  0  0  0  0  0  0
   -5.1593    1.4179    0.9421 H   0  0  0  0  0  0  0  0  0  0  0  0
   -6.3942    2.4333   -0.9362 H   0  0  0  0  0  0  0  0  0  0  0  0
   -7.8125    1.3351   -0.7029 H   0  0  0  0  0  0  0  0  0  0  0  0
   -6.5260    3.0088    1.5032 H   0  0  0  0  0  0  0  0  0  0  0  0
   -8.1340    2.2740    1.6622 H   0  0  0  0  0  0  0  0  0  0  0  0
   -7.6933    4.7447    1.4287 H   0  0  0  0  0  0  0  0  0  0  0  0
   -7.2330    4.5267   -0.2809 H   0  0  0  0  0  0  0  0  0  0  0  0
  -10.0632    4.2822    1.0206 H   0  0  0  0  0  0  0  0  0  0  0  0
   -9.7868    4.0529   -0.7640 H   0  0  0  0  0  0  0  0  0  0  0  0
   -8.6226    6.2287   -0.8420 H   0  0  0  0  0  0  0  0  0  0  0  0
   -8.7678    6.3945    0.9054 H   0  0  0  0  0  0  0  0  0  0  0  0
  -10.7709    6.9190    0.7750 H   0  0  0  0  0  0  0  0  0  0  0  0
  -10.4716    7.1631   -1.0313 H   0  0  0  0  0  0  0  0  0  0  0  0
  -11.9038    8.3307   -0.1578 H   0  0  0  0  0  0  0  0  0  0  0  0
  -10.7469    8.9326    1.0877 H   0  0  0  0  0  0  0  0  0  0  0  0
  -10.4642   10.9192   -0.0114 H   0  0  0  0  0  0  0  0  0  0  0  0
  -11.2636   10.3579   -1.5022 H   0  0  0  0  0  0  0  0  0  0  0  0
  -12.9315   10.6629    1.1586 H   0  0  0  0  0  0  0  0  0  0  0  0
  -13.5433   10.4096   -0.4958 H   0  0  0  0  0  0  0  0  0  0  0  0
  -12.5458   12.7245   -0.9648 H   0  0  0  0  0  0  0  0  0  0  0  0
  -12.3274   12.8815    0.7551 H   0  0  0  0  0  0  0  0  0  0  0  0
  -14.3550   13.4382    0.9126 H   0  0  0  0  0  0  0  0  0  0  0  0
  -14.3881   13.5614   -0.9327 H   0  0  0  0  0  0  0  0  0  0  0  0
  -14.2015   15.4137    1.0342 H   0  0  0  0  0  0  0  0  0  0  0  0
  -15.6328   14.7258    0.1088 H   0  0  0  0  0  0  0  0  0  0  0  0
  -15.4262   16.3793   -1.1232 H   0  0  0  0  0  0  0  0  0  0  0  0
  -14.3862   17.0815   -0.0081 H   0  0  0  0  0  0  0  0  0  0  0  0
  -15.8740   17.9363    1.0956 H   0  0  0  0  0  0  0  0  0  0  0  0
  -15.9536   19.7461    0.1020 H   0  0  0  0  0  0  0  0  0  0  0  0
  -17.0905   19.1134   -1.0947 H   0  0  0  0  0  0  0  0  0  0  0  0
  -17.3831   20.0102    0.0000 H   0  0  0  0  0  0  0  0  0  0  0  0
  -17.4952   16.6971   -1.0667 H   0  0  0  0  0  0  0  0  0  0  0  0
  -17.4093   16.4101    0.9442 H   0  0  0  0  0  0  0  0  0  0  0  0
  -18.3237   16.4996    0.0000 H   0  0  0  0  0  0  0  0  0  0  0  0
  1  2  1  0  0  0  0
  1 66  1  0  0  0  0
  1 67  1  0  0  0  0
  1 68  1  0  0  0  0
  2  3  1  0  0  0  0
  2 69  1  0  0  0  0
  2 70  1  0  0  0  0
  3  4  1  0  0  0  0
  3  5  1  0  0  0  0
  4 71  1  0  0  0  0
  4 72  1  0  0  0  0
  4 73  1  0  0  0  0
  5  6  1  0  0  0  0
  5 74  1  0  0  0  0
  5 75  1  0  0  0  0
  6  7  1  0  0  0  0
  6 76  1  0  0  0  0
  6 77  1  0  0  0  0
  7  8  1  0  0  0  0
  7 78  1  0  0  0  0
  7 79  1  0  0  0  0
  8  9  1  0  0  0  0
  8 80  1  0  0  0  0
  8 81  1  0  0  0  0
  9 10  1  0  0  0  0
 10 11  1  0  0  0  0
 10 82  1  0  0  0  0
 10 83  1  0  0  0  0
 11 12  1  0  0  0  0
 11 84  1  0  0  0  0
 11 85  1  0  0  0  0
 12 13  1  0  0  0  0
 13 14  1  0  0  0  0
 13 86  1  0  0  0  0
 13 87  1  0  0  0  0
 14 15  1  0  0  0  0
 14 88  1  0  0  0  0
 14 89  1  0  0  0  0
 15 16  1  0  0  0  0
 15 90  1  0  0  0  0
 15 91  1  0  0  0  0
 16 17  1  0  0  0  0
 16 92  1  0  0  0  0
 16 93  1  0  0  0  0
 17 18  1  0  0  0  0
 17 94  1  0  0  0  0
 17 95  1  0  0  0  0
 18 19  1  0  0  0  0
 18 96  1  0  0  0  0
 18 97  1  0  0  0  0
 19 20  1  0  0  0  0
 19 98  1  0  0  0  0
 19 99  1  0  0  0  0
 20 21  1  0  0  0  0
 20100  1  0  0  0  0
 20101  1  0  0  0  0
 21 22  1  0  0  0  0
 21102  1  0  0  0  0
 21103  1  0  0  0  0
 22 23  1  0  0  0  0
 22104  1  0  0  0  0
 22105  1  0  0  0  0
 23 24  1  0  0  0  0
 23106  1  0  0  0  0
 23107  1  0  0  0  0
 24 25  1  0  0  0  0
 24108  1  0  0  0  0
 24109  1  0  0  0  0
 25 26  2  0  0  0  0
 25 27  1  0  0  0  0
 27 28  1  0  0  0  0
 28110  1  0  0  0  0
 28111  1  0  0  0  0
 29 28  1  0  0  0  0
 29 30  1  0  0  0  0
 29 46  1  0  0  0  0
 29112  1  6  0  0  0
 30 31  1  0  0  0  0
 30113  1  0  0  0  0
 30114  1  0  0  0  0
 31 32  1  0  0  0  0
 32 33  2  0  0  0  0
 32 34  1  0  0  0  0
 34 35  1  0  0  0  0
 34115  1  0  0  0  0
 34116  1  0  0  0  0
 35 36  1  0  0  0  0
 35117  1  0  0  0  0
 35118  1  0  0  0  0
 36 37  1  0  0  0  0
 36119  1  0  0  0  0
 36120  1  0  0  0  0
 37 38  1  0  0  0  0
 37121  1  0  0  0  0
 37122  1  0  0  0  0
 38 39  1  0  0  0  0
 38123  1  0  0  0  0
 38124  1  0  0  0  0
 39 40  1  0  0  0  0
 39125  1  0  0  0  0
 39126  1  0  0  0  0
 40 41  1  0  0  0  0
 40127  1  0  0  0  0
 40128  1  0  0  0  0
 41 42  1  0  0  0  0
 42 43  1  0  0  0  0
 42 44  1  0  0  0  0
 42129  1  0  0  0  0
 43130  1  0  0  0  0
 43131  1  0  0  0  0
 43132  1  0  0  0  0
 44 45  1  0  0  0  0
 44133  1  0  0  0  0
 44134  1  0  0  0  0
 45135  1  0  0  0  0
 45136  1  0  0  0  0
 45137  1  0  0  0  0
 46 47  1  0  0  0  0
 47 48  2  0  0  0  0
 47 49  1  0  0  0  0
 49 50  1  0  0  0  0
 49138  1  0  0  0  0
 49139  1  0  0  0  0
 50 51  1  0  0  0  0
 50140  1  0  0  0  0
 50141  1  0  0  0  0
 51 52  1  0  0  0  0
 51142  1  0  0  0  0
 51143  1  0  0  0  0
 52 53  1  0  0  0  0
 52144  1  0  0  0  0
 52145  1  0  0  0  0
 53 54  1  0  0  0  0
 53146  1  0  0  0  0
 53147  1  0  0  0  0
 54 55  1  0  0  0  0
 54148  1  0  0  0  0
 54149  1  0  0  0  0
 55 56  1  0  0  0  0
 55150  1  0  0  0  0
 55151  1  0  0  0  0
 56 57  1  0  0  0  0
 56152  1  0  0  0  0
 56153  1  0  0  0  0
 57 58  1  0  0  0  0
 57154  1  0  0  0  0
 57155  1  0  0  0  0
 58 59  1  0  0  0  0
 58156  1  0  0  0  0
 58157  1  0  0  0  0
 59 60  1  0  0  0  0
 59158  1  0  0  0  0
 59159  1  0  0  0  0
 60 61  1  0  0  0  0
 60160  1  0  0  0  0
 60161  1  0  0  0  0
 61 62  1  0  0  0  0
 61162  1  0  0  0  0
 61163  1  0  0  0  0
 62 63  1  0  0  0  0
 62164  1  0  0  0  0
 62165  1  0  0  0  0
 63 64  1  0  0  0  0
 63 65  1  0  0  0  0
 63166  1  0  0  0  0
 64167  1  0  0  0  0
 64168  1  0  0  0  0
 64169  1  0  0  0  0
 65170  1  0  0  0  0
 65171  1  0  0  0  0
 65172  1  0  0  0  0
M  END
>  <IDENTIFIER>
CNP0546106.1

>  <Energy>
13276.3

$$$$
