
 OpenBabel09102520313D

 60 64  0  0  0  0  0  0  0  0999 V2000
   -0.3729   -1.3273    1.5528 C   0  0  0  0  0  0  0  0  0  0  0  0
   -1.1307   -0.3851    0.8912 O   0  0  0  0  0  0  0  0  0  0  0  0
   -2.4775   -0.4149    0.7003 C   0  0  0  0  0  0  0  0  0  0  0  0
   -3.3148   -1.3693    1.2957 C   0  0  0  0  0  0  0  0  0  0  0  0
   -2.9997   -2.3564    2.1404 O   0  0  0  0  0  0  0  0  0  0  0  0
   -4.1691   -3.0423    2.4513 C   0  0  0  0  0  0  0  0  0  0  0  0
   -5.1887   -2.4140    1.7431 O   0  0  0  0  0  0  0  0  0  0  0  0
   -4.6407   -1.4095    1.0545 C   0  0  0  0  0  0  0  0  0  0  0  0
   -5.2686   -0.5142    0.1986 C   0  0  0  0  0  0  0  0  0  0  0  0
   -4.4833    0.4795   -0.4213 C   0  0  0  0  0  0  0  0  0  0  0  0
   -3.0795    0.5342   -0.1729 C   0  0  0  0  0  0  0  0  0  0  0  0
   -2.1902    1.5554   -0.8668 C   0  0  2  0  0  0  0  0  0  0  0  0
   -1.6974    2.5633    0.1662 C   0  0  0  0  0  0  0  0  0  0  0  0
   -2.5499    3.3919    0.8037 N   0  0  0  0  0  0  0  0  0  0  0  0
   -1.8344    4.0486    1.6982 N   0  0  0  0  0  0  0  0  0  0  0  0
   -0.5823    3.6362    1.6454 N   0  0  0  0  0  0  0  0  0  0  0  0
   -0.4500    2.7208    0.6956 N   0  0  0  0  0  0  0  0  0  0  0  0
    0.8202    2.0589    0.4731 C   0  0  0  0  0  0  0  0  0  0  0  0
    1.1877    1.4457   -0.7388 C   0  0  0  0  0  0  0  0  0  0  0  0
    2.4162    0.7835   -0.8635 C   0  0  0  0  0  0  0  0  0  0  0  0
    3.3190    0.7190    0.2190 C   0  0  0  0  0  0  0  0  0  0  0  0
    4.6276   -0.0114    0.1580 C   0  0  0  0  0  0  0  0  0  0  0  0
    5.3329   -0.0208    1.1584 O   0  0  0  0  0  0  0  0  0  0  0  0
    5.0588   -0.6543   -0.9675 N   0  0  0  0  0  0  0  0  0  0  0  0
    6.3073   -1.3998   -1.0270 C   0  0  0  0  0  0  0  0  0  0  0  0
    6.2001   -2.8217   -0.4196 C   0  0  1  0  0  0  0  0  0  0  0  0
    5.9192   -2.8786    1.0867 C   0  0  0  0  0  0  0  0  0  0  0  0
    5.2536   -3.5887   -1.1213 O   0  0  0  0  0  0  0  0  0  0  0  0
    2.9600    1.3635    1.4150 C   0  0  0  0  0  0  0  0  0  0  0  0
    1.7410    2.0247    1.5350 C   0  0  0  0  0  0  0  0  0  0  0  0
   -2.8609    2.2354   -2.0125 N   0  0  0  0  0  0  0  0  0  0  0  0
   -2.7921    1.4310   -3.2473 C   0  0  0  0  0  0  0  0  0  0  0  0
   -4.2504    2.6366   -1.7100 C   0  0  0  0  0  0  0  0  0  0  0  0
   -5.1514    1.4447   -1.3621 C   0  0  0  0  0  0  0  0  0  0  0  0
    0.6947   -1.0286    1.5047 H   0  0  0  0  0  0  0  0  0  0  0  0
   -0.4800   -2.3158    1.0560 H   0  0  0  0  0  0  0  0  0  0  0  0
   -0.6741   -1.3927    2.6182 H   0  0  0  0  0  0  0  0  0  0  0  0
   -4.3668   -2.9822    3.5427 H   0  0  0  0  0  0  0  0  0  0  0  0
   -4.0834   -4.1038    2.1365 H   0  0  0  0  0  0  0  0  0  0  0  0
   -6.3349   -0.5813    0.0227 H   0  0  0  0  0  0  0  0  0  0  0  0
   -1.3587    0.9638   -1.2621 H   0  0  0  0  0  0  0  0  0  0  0  0
    0.5644    1.4805   -1.6115 H   0  0  0  0  0  0  0  0  0  0  0  0
    2.6300    0.3260   -1.8157 H   0  0  0  0  0  0  0  0  0  0  0  0
    4.5231   -0.5912   -1.8414 H   0  0  0  0  0  0  0  0  0  0  0  0
    7.1336   -0.8098   -0.5729 H   0  0  0  0  0  0  0  0  0  0  0  0
    6.5706   -1.5486   -2.0975 H   0  0  0  0  0  0  0  0  0  0  0  0
    7.1922   -3.3004   -0.5700 H   0  0  0  0  0  0  0  0  0  0  0  0
    4.9105   -2.4830    1.3236 H   0  0  0  0  0  0  0  0  0  0  0  0
    6.6904   -2.3075    1.6453 H   0  0  0  0  0  0  0  0  0  0  0  0
    5.9499   -3.9351    1.4285 H   0  0  0  0  0  0  0  0  0  0  0  0
    4.3588   -3.1941   -0.9487 H   0  0  0  0  0  0  0  0  0  0  0  0
    3.6180    1.3495    2.2749 H   0  0  0  0  0  0  0  0  0  0  0  0
    1.5047    2.4892    2.4839 H   0  0  0  0  0  0  0  0  0  0  0  0
   -1.7321    1.2833   -3.5446 H   0  0  0  0  0  0  0  0  0  0  0  0
   -3.2964    1.9609   -4.0839 H   0  0  0  0  0  0  0  0  0  0  0  0
   -3.2603    0.4321   -3.1113 H   0  0  0  0  0  0  0  0  0  0  0  0
   -4.6939    3.2124   -2.5514 H   0  0  0  0  0  0  0  0  0  0  0  0
   -4.2507    3.3324   -0.8529 H   0  0  0  0  0  0  0  0  0  0  0  0
   -5.4392    0.8792   -2.2735 H   0  0  0  0  0  0  0  0  0  0  0  0
   -6.0798    1.8574   -0.9097 H   0  0  0  0  0  0  0  0  0  0  0  0
  1  2  1  0  0  0  0
  1 35  1  0  0  0  0
  1 36  1  0  0  0  0
  1 37  1  0  0  0  0
  2  3  1  0  0  0  0
  3  4  2  0  0  0  0
  4  5  1  0  0  0  0
  5  6  1  0  0  0  0
  6  7  1  0  0  0  0
  6 38  1  0  0  0  0
  6 39  1  0  0  0  0
  7  8  1  0  0  0  0
  8  9  2  0  0  0  0
  8  4  1  0  0  0  0
  9 10  1  0  0  0  0
  9 40  1  0  0  0  0
 10 11  2  0  0  0  0
 11 12  1  0  0  0  0
 11  3  1  0  0  0  0
 12 13  1  0  0  0  0
 12 31  1  0  0  0  0
 12 41  1  6  0  0  0
 13 14  2  0  0  0  0
 14 15  1  0  0  0  0
 15 16  2  0  0  0  0
 16 17  1  0  0  0  0
 17 18  1  0  0  0  0
 17 13  1  0  0  0  0
 18 19  2  0  0  0  0
 19 20  1  0  0  0  0
 19 42  1  0  0  0  0
 20 21  2  0  0  0  0
 20 43  1  0  0  0  0
 21 22  1  0  0  0  0
 21 29  1  0  0  0  0
 22 23  2  0  0  0  0
 22 24  1  0  0  0  0
 24 25  1  0  0  0  0
 24 44  1  0  0  0  0
 25 26  1  0  0  0  0
 25 45  1  0  0  0  0
 25 46  1  0  0  0  0
 26 27  1  0  0  0  0
 26 28  1  0  0  0  0
 26 47  1  6  0  0  0
 27 48  1  0  0  0  0
 27 49  1  0  0  0  0
 27 50  1  0  0  0  0
 28 51  1  0  0  0  0
 29 30  2  0  0  0  0
 29 52  1  0  0  0  0
 30 18  1  0  0  0  0
 30 53  1  0  0  0  0
 31 32  1  0  0  0  0
 31 33  1  0  0  0  0
 32 54  1  0  0  0  0
 32 55  1  0  0  0  0
 32 56  1  0  0  0  0
 33 34  1  0  0  0  0
 33 57  1  0  0  0  0
 33 58  1  0  0  0  0
 34 10  1  0  0  0  0
 34 59  1  0  0  0  0
 34 60  1  0  0  0  0
M  END
>  <IDENTIFIER>
CNP0589177.4

>  <Energy>
732.17

$$$$
