
 OpenBabel09052516093D

 42 44  0  0  0  0  0  0  0  0999 V2000
   -2.3633    3.2676    0.2629 O   0  0  0  0  0  0  0  0  0  0  0  0
   -3.2999    2.4938    0.1574 C   0  0  0  0  0  0  0  0  0  0  0  0
   -4.7033    3.0476    0.1198 C   0  0  0  0  0  0  0  0  0  0  0  0
   -4.7051    4.4485    0.1976 O   0  0  0  0  0  0  0  0  0  0  0  0
   -3.1172    1.1406    0.0761 N   0  0  0  0  0  0  0  0  0  0  0  0
   -1.8748    0.4069    0.1191 C   0  0  0  0  0  0  0  0  0  0  0  0
   -0.6032    1.0193    0.2625 C   0  0  0  0  0  0  0  0  0  0  0  0
    0.5642    0.2462    0.3182 C   0  0  0  0  0  0  0  0  0  0  0  0
    0.4895   -1.1525    0.2417 C   0  0  0  0  0  0  0  0  0  0  0  0
   -0.7482   -1.7717    0.0951 C   0  0  0  0  0  0  0  0  0  0  0  0
   -1.9202   -1.0099    0.0254 C   0  0  0  0  0  0  0  0  0  0  0  0
   -3.0965   -1.6598   -0.1363 O   0  0  0  0  0  0  0  0  0  0  0  0
   -3.6938   -1.8157   -1.3461 C   0  0  0  0  0  0  0  0  0  0  0  0
   -3.1498   -1.4154   -2.3680 O   0  0  0  0  0  0  0  0  0  0  0  0
   -5.0324   -2.4934   -1.4183 C   0  0  0  0  0  0  0  0  0  0  0  0
   -5.4797   -2.6036   -2.7438 O   0  0  0  0  0  0  0  0  0  0  0  0
    1.6207   -1.9016    0.3071 O   0  0  0  0  0  0  0  0  0  0  0  0
    2.8567   -1.3549    0.4410 C   0  0  0  0  0  0  0  0  0  0  0  0
    3.9835   -2.1782    0.5069 C   0  0  0  0  0  0  0  0  0  0  0  0
    5.2569   -1.6139    0.6409 C   0  0  0  0  0  0  0  0  0  0  0  0
    5.4129   -0.2188    0.7064 C   0  0  0  0  0  0  0  0  0  0  0  0
    6.7812    0.3907    0.8457 C   0  0  0  0  0  0  0  0  0  0  0  0
    7.0568    1.2240   -0.2473 O   0  0  0  0  0  0  0  0  0  0  0  0
    4.2785    0.6075    0.6435 C   0  0  0  0  0  0  0  0  0  0  0  0
    3.0030    0.0424    0.5136 C   0  0  0  0  0  0  0  0  0  0  0  0
    1.8409    0.8573    0.4549 N   0  0  0  0  0  0  0  0  0  0  0  0
   -5.3073    2.6166    0.9505 H   0  0  0  0  0  0  0  0  0  0  0  0
   -5.1882    2.7481   -0.8331 H   0  0  0  0  0  0  0  0  0  0  0  0
   -4.5612    4.6801    1.1528 H   0  0  0  0  0  0  0  0  0  0  0  0
   -3.9819    0.5861   -0.0097 H   0  0  0  0  0  0  0  0  0  0  0  0
   -0.4694    2.0815    0.3366 H   0  0  0  0  0  0  0  0  0  0  0  0
   -0.8030   -2.8514    0.0283 H   0  0  0  0  0  0  0  0  0  0  0  0
   -5.7754   -1.9364   -0.8046 H   0  0  0  0  0  0  0  0  0  0  0  0
   -4.9438   -3.5136   -0.9909 H   0  0  0  0  0  0  0  0  0  0  0  0
   -5.8182   -1.7074   -3.0052 H   0  0  0  0  0  0  0  0  0  0  0  0
    3.8751   -3.2535    0.4541 H   0  0  0  0  0  0  0  0  0  0  0  0
    6.1198   -2.2663    0.6901 H   0  0  0  0  0  0  0  0  0  0  0  0
    7.5749   -0.3858    0.9381 H   0  0  0  0  0  0  0  0  0  0  0  0
    6.8188    0.9964    1.7758 H   0  0  0  0  0  0  0  0  0  0  0  0
    7.3037    0.6270   -1.0016 H   0  0  0  0  0  0  0  0  0  0  0  0
    4.3883    1.6841    0.6963 H   0  0  0  0  0  0  0  0  0  0  0  0
    1.9243    1.8840    0.5090 H   0  0  0  0  0  0  0  0  0  0  0  0
  1  2  2  0  0  0  0
  2  3  1  0  0  0  0
  2  5  1  0  0  0  0
  3  4  1  0  0  0  0
  3 27  1  0  0  0  0
  3 28  1  0  0  0  0
  4 29  1  0  0  0  0
  5  6  1  0  0  0  0
  5 30  1  0  0  0  0
  6  7  2  0  0  0  0
  7  8  1  0  0  0  0
  7 31  1  0  0  0  0
  8  9  2  0  0  0  0
  9 10  1  0  0  0  0
  9 17  1  0  0  0  0
 10 11  2  0  0  0  0
 10 32  1  0  0  0  0
 11 12  1  0  0  0  0
 11  6  1  0  0  0  0
 12 13  1  0  0  0  0
 13 14  2  0  0  0  0
 13 15  1  0  0  0  0
 15 16  1  0  0  0  0
 15 33  1  0  0  0  0
 15 34  1  0  0  0  0
 16 35  1  0  0  0  0
 17 18  1  0  0  0  0
 18 19  2  0  0  0  0
 19 20  1  0  0  0  0
 19 36  1  0  0  0  0
 20 21  2  0  0  0  0
 20 37  1  0  0  0  0
 21 22  1  0  0  0  0
 21 24  1  0  0  0  0
 22 23  1  0  0  0  0
 22 38  1  0  0  0  0
 22 39  1  0  0  0  0
 23 40  1  0  0  0  0
 24 25  2  0  0  0  0
 24 41  1  0  0  0  0
 25 26  1  0  0  0  0
 25 18  1  0  0  0  0
 26  8  1  0  0  0  0
 26 42  1  0  0  0  0
M  END
>  <IDENTIFIER>
CNP0351020.0

>  <Energy>
338.68

$$$$
