
 OpenBabel09062505373D

 49 52  0  0  0  0  0  0  0  0999 V2000
    8.4701    0.1461    0.2310 C   0  0  0  0  0  0  0  0  0  0  0  0
    7.5424   -0.7895   -0.1802 O   0  0  0  0  0  0  0  0  0  0  0  0
    6.1960   -0.6820   -0.0350 C   0  0  0  0  0  0  0  0  0  0  0  0
    5.3841   -1.7004   -0.5522 C   0  0  0  0  0  0  0  0  0  0  0  0
    3.9907   -1.6269   -0.4411 C   0  0  0  0  0  0  0  0  0  0  0  0
    3.3908   -0.5366    0.2067 C   0  0  0  0  0  0  0  0  0  0  0  0
    1.8905   -0.4375    0.3263 C   0  0  0  0  0  0  0  0  0  0  0  0
    1.2488    0.1410   -0.9180 C   0  0  0  0  0  0  0  0  0  0  0  0
    1.9464    0.4334   -1.8812 O   0  0  0  0  0  0  0  0  0  0  0  0
   -0.0950    0.3906   -0.9659 N   0  0  0  0  0  0  0  0  0  0  0  0
   -0.7483    1.0207   -2.0954 C   0  0  0  0  0  0  0  0  0  0  0  0
   -2.2371    0.8812   -1.7805 C   0  0  0  0  0  0  0  0  0  0  0  0
   -2.2478    0.9373   -0.2600 C   0  0  1  0  0  0  0  0  0  0  0  0
   -1.0227    0.0964    0.1115 C   0  0  0  0  0  0  0  0  0  0  0  0
   -2.1461    2.3623    0.2749 C   0  0  0  0  0  0  0  0  0  0  0  0
   -1.2392    3.1439    0.0323 O   0  0  0  0  0  0  0  0  0  0  0  0
   -3.1788    2.6818    1.0804 N   0  0  0  0  0  0  0  0  0  0  0  0
   -4.0220    1.5667    1.1535 C   0  0  0  0  0  0  0  0  0  0  0  0
   -5.2070    1.4609    1.8752 C   0  0  0  0  0  0  0  0  0  0  0  0
   -5.9140    0.2493    1.8137 C   0  0  0  0  0  0  0  0  0  0  0  0
   -5.4348   -0.8314    1.0401 C   0  0  0  0  0  0  0  0  0  0  0  0
   -6.1658   -1.9757    1.0155 O   0  0  0  0  0  0  0  0  0  0  0  0
   -5.8503   -3.1146    0.3039 C   0  0  0  0  0  0  0  0  0  0  0  0
   -4.2219   -0.6894    0.3204 C   0  0  0  0  0  0  0  0  0  0  0  0
   -3.5363    0.5244    0.3975 C   0  0  0  0  0  0  0  0  0  0  0  0
    4.2019    0.4801    0.7343 C   0  0  0  0  0  0  0  0  0  0  0  0
    5.5906    0.4144    0.6105 C   0  0  0  0  0  0  0  0  0  0  0  0
    9.4878   -0.2155   -0.0203 H   0  0  0  0  0  0  0  0  0  0  0  0
    8.4079    0.2944    1.3303 H   0  0  0  0  0  0  0  0  0  0  0  0
    8.2977    1.1108   -0.2932 H   0  0  0  0  0  0  0  0  0  0  0  0
    5.8355   -2.5510   -1.0478 H   0  0  0  0  0  0  0  0  0  0  0  0
    3.3813   -2.4226   -0.8515 H   0  0  0  0  0  0  0  0  0  0  0  0
    1.6522    0.2510    1.1660 H   0  0  0  0  0  0  0  0  0  0  0  0
    1.4601   -1.4300    0.5806 H   0  0  0  0  0  0  0  0  0  0  0  0
   -0.5221    0.5198   -3.0640 H   0  0  0  0  0  0  0  0  0  0  0  0
   -0.4233    2.0823   -2.1428 H   0  0  0  0  0  0  0  0  0  0  0  0
   -2.5331   -0.1547   -2.0658 H   0  0  0  0  0  0  0  0  0  0  0  0
   -2.9030    1.5936   -2.3122 H   0  0  0  0  0  0  0  0  0  0  0  0
   -1.2291   -0.9957    0.0904 H   0  0  0  0  0  0  0  0  0  0  0  0
   -0.6560    0.3941    1.1172 H   0  0  0  0  0  0  0  0  0  0  0  0
   -3.3170    3.5845    1.5585 H   0  0  0  0  0  0  0  0  0  0  0  0
   -5.5746    2.2891    2.4667 H   0  0  0  0  0  0  0  0  0  0  0  0
   -6.8394    0.1471    2.3664 H   0  0  0  0  0  0  0  0  0  0  0  0
   -6.6348   -3.8792    0.4773 H   0  0  0  0  0  0  0  0  0  0  0  0
   -4.8751   -3.5227    0.6451 H   0  0  0  0  0  0  0  0  0  0  0  0
   -5.8101   -2.8885   -0.7832 H   0  0  0  0  0  0  0  0  0  0  0  0
   -3.8193   -1.4915   -0.2829 H   0  0  0  0  0  0  0  0  0  0  0  0
    3.7571    1.3348    1.2289 H   0  0  0  0  0  0  0  0  0  0  0  0
    6.1820    1.2227    1.0185 H   0  0  0  0  0  0  0  0  0  0  0  0
  1  2  1  0  0  0  0
  1 28  1  0  0  0  0
  1 29  1  0  0  0  0
  1 30  1  0  0  0  0
  2  3  1  0  0  0  0
  3  4  2  0  0  0  0
  4  5  1  0  0  0  0
  4 31  1  0  0  0  0
  5  6  2  0  0  0  0
  5 32  1  0  0  0  0
  6  7  1  0  0  0  0
  6 26  1  0  0  0  0
  7  8  1  0  0  0  0
  7 33  1  0  0  0  0
  7 34  1  0  0  0  0
  8  9  2  0  0  0  0
  8 10  1  0  0  0  0
 10 11  1  0  0  0  0
 11 12  1  0  0  0  0
 11 35  1  0  0  0  0
 11 36  1  0  0  0  0
 12 37  1  0  0  0  0
 12 38  1  0  0  0  0
 13 12  1  0  0  0  0
 13 14  1  0  0  0  0
 13 15  1  1  0  0  0
 14 10  1  0  0  0  0
 14 39  1  0  0  0  0
 14 40  1  0  0  0  0
 15 16  2  0  0  0  0
 15 17  1  0  0  0  0
 17 18  1  0  0  0  0
 17 41  1  0  0  0  0
 18 19  2  0  0  0  0
 19 20  1  0  0  0  0
 19 42  1  0  0  0  0
 20 21  2  0  0  0  0
 20 43  1  0  0  0  0
 21 22  1  0  0  0  0
 21 24  1  0  0  0  0
 22 23  1  0  0  0  0
 23 44  1  0  0  0  0
 23 45  1  0  0  0  0
 23 46  1  0  0  0  0
 24 25  2  0  0  0  0
 24 47  1  0  0  0  0
 25 18  1  0  0  0  0
 25 13  1  0  0  0  0
 26 27  2  0  0  0  0
 26 48  1  0  0  0  0
 27  3  1  0  0  0  0
 27 49  1  0  0  0  0
M  END
>  <IDENTIFIER>
CNP0523434.1

>  <Energy>
439.012

$$$$
