
 OpenBabel09092522153D

 44 47  0  0  0  0  0  0  0  0999 V2000
    6.9861    2.6644   -0.2269 C   0  0  0  0  0  0  0  0  0  0  0  0
    5.8285    2.2391    0.3919 O   0  0  0  0  0  0  0  0  0  0  0  0
    5.0990    1.1497    0.0389 C   0  0  0  0  0  0  0  0  0  0  0  0
    5.4697    0.2993   -1.0239 C   0  0  0  0  0  0  0  0  0  0  0  0
    4.6810   -0.8078   -1.3472 C   0  0  0  0  0  0  0  0  0  0  0  0
    3.5221   -1.0778   -0.6221 C   0  0  0  0  0  0  0  0  0  0  0  0
    3.1430   -0.2410    0.4345 C   0  0  0  0  0  0  0  0  0  0  0  0
    1.6382   -0.5867    1.3444 S   0  0  0  0  0  0  0  0  0  0  0  0
    1.3437   -2.0941    1.4329 O   0  0  0  0  0  0  0  0  0  0  0  0
    1.7370   -0.1819    2.8231 O   0  0  0  0  0  0  0  0  0  0  0  0
    0.1603    0.2139    0.7351 N   0  0  0  0  0  0  0  0  0  0  0  0
   -0.1026   -0.1799   -0.6560 C   0  0  0  0  0  0  0  0  0  0  0  0
   -1.4661   -0.7435   -0.3117 C   0  0  0  0  0  0  0  0  0  0  0  0
   -1.7540   -2.2014   -0.7019 C   0  0  0  0  0  0  0  0  0  0  0  0
   -3.2015   -2.0706   -0.8547 C   0  0  0  0  0  0  0  0  0  0  0  0
   -3.9727   -2.9992   -1.0398 O   0  0  0  0  0  0  0  0  0  0  0  0
   -3.5741   -0.7803   -0.8007 N   0  0  0  0  0  0  0  0  0  0  0  0
   -4.9391   -0.3114   -0.9120 C   0  0  0  0  0  0  0  0  0  0  0  0
   -5.4991   -0.0038    0.4845 C   0  0  0  0  0  0  0  0  0  0  0  0
   -4.7642    1.1393    1.1626 C   0  0  0  0  0  0  0  0  0  0  0  0
   -6.2113    1.3194    0.7134 C   0  0  0  0  0  0  0  0  0  0  0  0
   -2.5503    0.0873   -0.6776 O   0  0  0  0  0  0  0  0  0  0  0  0
   -1.0812   -0.4651    1.1377 C   0  0  0  0  0  0  0  0  0  0  0  0
    3.9309    0.8686    0.7627 C   0  0  0  0  0  0  0  0  0  0  0  0
    7.3545    3.5784    0.2823 H   0  0  0  0  0  0  0  0  0  0  0  0
    6.7829    2.9089   -1.2911 H   0  0  0  0  0  0  0  0  0  0  0  0
    7.7693    1.8798   -0.1580 H   0  0  0  0  0  0  0  0  0  0  0  0
    6.3621    0.4850   -1.6063 H   0  0  0  0  0  0  0  0  0  0  0  0
    4.9679   -1.4562   -2.1651 H   0  0  0  0  0  0  0  0  0  0  0  0
    2.9159   -1.9363   -0.8832 H   0  0  0  0  0  0  0  0  0  0  0  0
    0.5898   -0.9747   -1.0155 H   0  0  0  0  0  0  0  0  0  0  0  0
   -0.1479    0.6976   -1.3363 H   0  0  0  0  0  0  0  0  0  0  0  0
   -1.4320   -2.9191    0.0828 H   0  0  0  0  0  0  0  0  0  0  0  0
   -1.3487   -2.4779   -1.6985 H   0  0  0  0  0  0  0  0  0  0  0  0
   -5.5903   -1.0983   -1.3480 H   0  0  0  0  0  0  0  0  0  0  0  0
   -4.9689    0.5554   -1.6082 H   0  0  0  0  0  0  0  0  0  0  0  0
   -5.5560   -0.8259    1.2305 H   0  0  0  0  0  0  0  0  0  0  0  0
   -4.1889    1.8826    0.5719 H   0  0  0  0  0  0  0  0  0  0  0  0
   -4.7916    1.1995    2.2717 H   0  0  0  0  0  0  0  0  0  0  0  0
   -6.4087    1.7823   -0.2766 H   0  0  0  0  0  0  0  0  0  0  0  0
   -7.0413    1.0804    1.4114 H   0  0  0  0  0  0  0  0  0  0  0  0
   -0.9102   -1.3783    1.7439 H   0  0  0  0  0  0  0  0  0  0  0  0
   -1.7712    0.2478    1.6414 H   0  0  0  0  0  0  0  0  0  0  0  0
    3.6369    1.5196    1.5779 H   0  0  0  0  0  0  0  0  0  0  0  0
  1  2  1  0  0  0  0
  1 25  1  0  0  0  0
  1 26  1  0  0  0  0
  1 27  1  0  0  0  0
  2  3  1  0  0  0  0
  3  4  2  0  0  0  0
  4  5  1  0  0  0  0
  4 28  1  0  0  0  0
  5  6  2  0  0  0  0
  5 29  1  0  0  0  0
  6  7  1  0  0  0  0
  6 30  1  0  0  0  0
  7  8  1  0  0  0  0
  7 24  2  0  0  0  0
  8  9  2  0  0  0  0
  8 10  2  0  0  0  0
  8 11  1  0  0  0  0
 11 12  1  0  0  0  0
 12 13  1  0  0  0  0
 12 31  1  0  0  0  0
 12 32  1  0  0  0  0
 13 14  1  0  0  0  0
 13 23  1  0  0  0  0
 14 15  1  0  0  0  0
 14 33  1  0  0  0  0
 14 34  1  0  0  0  0
 15 16  2  0  0  0  0
 15 17  1  0  0  0  0
 17 18  1  0  0  0  0
 17 22  1  0  0  0  0
 18 19  1  0  0  0  0
 18 35  1  0  0  0  0
 18 36  1  0  0  0  0
 19 20  1  0  0  0  0
 19 37  1  0  0  0  0
 20 21  1  0  0  0  0
 20 38  1  0  0  0  0
 20 39  1  0  0  0  0
 21 19  1  0  0  0  0
 21 40  1  0  0  0  0
 21 41  1  0  0  0  0
 22 13  1  0  0  0  0
 23 11  1  0  0  0  0
 23 42  1  0  0  0  0
 23 43  1  0  0  0  0
 24  3  1  0  0  0  0
 24 44  1  0  0  0  0
M  END
>  <IDENTIFIER>
CNP0575952.0

>  <Energy>
2483.62

$$$$
