
 OpenBabel09132503102D

 67 71  0  0  0  0  0  0  0  0999 V2000
   -9.6538   -5.7135    0.0000 C   0  0  0  0  0  0  0  0  0  0  0  0
   -8.3548   -6.4635    0.0000 O   0  0  0  0  0  0  0  0  0  0  0  0
   -7.1129   -5.8540    0.0323 C   0  0  0  0  0  0  0  0  0  0  0  0
   -7.0601   -4.4477    0.0737 C   0  0  0  0  0  0  0  0  0  0  0  0
   -5.8575   -3.7664    0.1512 C   0  0  0  0  0  0  0  0  0  0  0  0
   -4.6417   -4.4510    0.1850 C   0  0  0  0  0  0  0  0  0  0  0  0
   -3.3900   -3.6678    0.3679 C   0  0  0  0  0  0  0  0  0  0  0  0
   -2.3128   -4.2385    0.4598 O   0  0  0  0  0  0  0  0  0  0  0  0
   -3.4858   -2.3325    0.6254 O   0  0  0  0  0  0  0  0  0  0  0  0
   -3.0279   -1.7823    1.8105 C   0  0  2  0  0  0  0  0  0  0  0  0
   -3.5045   -0.3393    1.9947 C   0  0  2  0  0  0  0  0  0  0  0  0
   -4.8679    0.1159    1.5665 C   0  0  0  0  0  0  0  0  0  0  0  0
   -5.0675    1.4503    1.4797 C   0  0  0  0  0  0  0  0  0  0  0  0
   -4.0440    2.3385    1.7143 O   0  0  0  0  0  0  0  0  0  0  0  0
   -2.7099    1.9628    1.9315 C   0  0  2  0  0  0  0  0  0  0  0  0
   -1.7765    2.9377    1.4973 O   0  0  0  0  0  0  0  0  0  0  0  0
   -2.1279    3.6163    0.3028 C   0  0  1  0  0  0  0  0  0  0  0  0
   -3.0502    4.6855    0.6322 O   0  0  0  0  0  0  0  0  0  0  0  0
   -2.7027    5.9157    0.0000 C   0  0  1  0  0  0  0  0  0  0  0  0
   -3.7447    6.9947    0.0000 C   0  0  0  0  0  0  0  0  0  0  0  0
   -4.7867    8.0737    0.0000 O   0  0  0  0  0  0  0  0  0  0  0  0
   -1.3069    6.4261    0.4747 C   0  0  1  0  0  0  0  0  0  0  0  0
   -1.3635    7.0346    1.7415 O   0  0  0  0  0  0  0  0  0  0  0  0
   -0.2762    5.2693    0.5285 C   0  0  1  0  0  0  0  0  0  0  0  0
    0.9866    5.7128    0.1053 O   0  0  0  0  0  0  0  0  0  0  0  0
   -0.7734    4.0962   -0.3326 C   0  0  1  0  0  0  0  0  0  0  0  0
    0.1520    3.0420   -0.3407 O   0  0  0  0  0  0  0  0  0  0  0  0
   -2.4511    0.5407    1.3517 C   0  0  2  0  0  0  0  0  0  0  0  0
   -1.1435   -0.1997    1.6716 C   0  0  1  0  0  0  0  0  0  0  0  0
    0.2049    0.1523    1.0517 C   0  0  0  0  0  0  0  0  0  0  0  0
    0.1082    0.0778   -0.3428 O   0  0  0  0  0  0  0  0  0  0  0  0
   -1.0647   -0.8271    2.9262 O   0  0  0  0  0  0  0  0  0  0  0  0
   -1.4895   -1.6304    1.8236 C   0  0  2  0  0  0  0  0  0  0  0  0
   -4.6459   -5.8599    0.1104 C   0  0  0  0  0  0  0  0  0  0  0  0
   -5.8511   -6.5891    0.0359 C   0  0  0  0  0  0  0  0  0  0  0  0
   -5.7567   -7.9635    0.0000 O   0  0  0  0  0  0  0  0  0  0  0  0
   -7.0557   -8.7135    0.0000 C   0  0  0  0  0  0  0  0  0  0  0  0
   -9.6128   -5.3331    1.0431 H   0  0  0  0  0  0  0  0  0  0  0  0
  -10.3268   -6.5942   -0.0423 H   0  0  0  0  0  0  0  0  0  0  0  0
  -10.5804   -5.1785    0.0000 H   0  0  0  0  0  0  0  0  0  0  0  0
   -7.9607   -3.8496    0.0652 H   0  0  0  0  0  0  0  0  0  0  0  0
   -5.8887   -2.6867    0.2043 H   0  0  0  0  0  0  0  0  0  0  0  0
   -3.4161   -2.3992    2.6526 H   0  0  0  0  0  0  0  0  0  0  0  0
   -3.4372   -0.1563    3.0954 H   0  0  0  0  0  0  0  0  0  0  0  0
   -5.6554   -0.5864    1.3187 H   0  0  0  0  0  0  0  0  0  0  0  0
   -6.0412    1.8288    1.1879 H   0  0  0  0  0  0  0  0  0  0  0  0
   -2.5776    1.9183    3.0341 H   0  0  0  0  0  0  0  0  0  0  0  0
   -2.5943    2.9123   -0.4245 H   0  0  0  0  0  0  0  0  0  0  0  0
   -2.5911    5.7122   -1.0942 H   0  0  0  0  0  0  0  0  0  0  0  0
   -3.7495    6.9627    1.1108 H   0  0  0  0  0  0  0  0  0  0  0  0
   -4.4876    6.2621   -0.3982 H   0  0  0  0  0  0  0  0  0  0  0  0
   -4.6138    8.5927   -0.8267 H   0  0  0  0  0  0  0  0  0  0  0  0
   -0.9785    7.1641   -0.2986 H   0  0  0  0  0  0  0  0  0  0  0  0
   -1.4875    8.0087    1.5950 H   0  0  0  0  0  0  0  0  0  0  0  0
   -0.2000    4.8676    1.5673 H   0  0  0  0  0  0  0  0  0  0  0  0
    1.3620    6.2507    0.8506 H   0  0  0  0  0  0  0  0  0  0  0  0
   -0.9296    4.4339   -1.3833 H   0  0  0  0  0  0  0  0  0  0  0  0
    0.8761    3.2946   -0.9715 H   0  0  0  0  0  0  0  0  0  0  0  0
   -2.5737    0.5342    0.2443 H   0  0  0  0  0  0  0  0  0  0  0  0
    0.9860   -0.5556    1.4106 H   0  0  0  0  0  0  0  0  0  0  0  0
    0.4748    1.1821    1.3662 H   0  0  0  0  0  0  0  0  0  0  0  0
    1.0017    0.3291   -0.6947 H   0  0  0  0  0  0  0  0  0  0  0  0
   -0.7672   -2.4647    1.7039 H   0  0  0  0  0  0  0  0  0  0  0  0
   -3.7089   -6.4026    0.1410 H   0  0  0  0  0  0  0  0  0  0  0  0
   -7.3324   -8.5437   -1.0637 H   0  0  0  0  0  0  0  0  0  0  0  0
   -6.6303   -9.7342    0.0869 H   0  0  0  0  0  0  0  0  0  0  0  0
   -7.9823   -9.2485    0.0000 H   0  0  0  0  0  0  0  0  0  0  0  0
  1  2  1  0  0  0  0
  1 38  1  0  0  0  0
  1 39  1  0  0  0  0
  1 40  1  0  0  0  0
  2  3  1  0  0  0  0
  3  4  2  0  0  0  0
  4  5  1  0  0  0  0
  4 41  1  0  0  0  0
  5  6  2  0  0  0  0
  5 42  1  0  0  0  0
  6  7  1  0  0  0  0
  6 34  1  0  0  0  0
  7  8  2  0  0  0  0
  7  9  1  0  0  0  0
 10  9  1  0  0  0  0
 10 11  1  0  0  0  0
 10 43  1  1  0  0  0
 11 12  1  0  0  0  0
 11 44  1  1  0  0  0
 12 13  2  0  0  0  0
 12 45  1  0  0  0  0
 13 14  1  0  0  0  0
 13 46  1  0  0  0  0
 14 15  1  0  0  0  0
 15 16  1  0  0  0  0
 15 47  1  1  0  0  0
 17 16  1  0  0  0  0
 17 18  1  0  0  0  0
 17 48  1  6  0  0  0
 18 19  1  0  0  0  0
 19 20  1  0  0  0  0
 19 22  1  0  0  0  0
 19 49  1  6  0  0  0
 20 21  1  0  0  0  0
 20 50  1  0  0  0  0
 20 51  1  0  0  0  0
 21 52  1  0  0  0  0
 22 23  1  0  0  0  0
 22 24  1  0  0  0  0
 22 53  1  6  0  0  0
 23 54  1  0  0  0  0
 24 25  1  0  0  0  0
 24 26  1  0  0  0  0
 24 55  1  6  0  0  0
 25 56  1  0  0  0  0
 26 27  1  0  0  0  0
 26 17  1  0  0  0  0
 26 57  1  6  0  0  0
 27 58  1  0  0  0  0
 28 15  1  0  0  0  0
 28 29  1  0  0  0  0
 28 11  1  0  0  0  0
 28 59  1  1  0  0  0
 29 30  1  6  0  0  0
 29 32  1  0  0  0  0
 30 31  1  0  0  0  0
 30 60  1  0  0  0  0
 30 61  1  0  0  0  0
 31 62  1  0  0  0  0
 33 32  1  0  0  0  0
 33 10  1  0  0  0  0
 33 29  1  0  0  0  0
 33 63  1  1  0  0  0
 34 35  2  0  0  0  0
 34 64  1  0  0  0  0
 35 36  1  0  0  0  0
 35  3  1  0  0  0  0
 36 37  1  0  0  0  0
 37 65  1  0  0  0  0
 37 66  1  0  0  0  0
 37 67  1  0  0  0  0
M  END
>  <IDENTIFIER>
CNP0353715.12

>  <Energy>
3521.57

$$$$
