
 OpenBabel09112507173D

 80 82  0  0  0  0  0  0  0  0999 V2000
    2.6394    6.2139   -3.5219 C   0  0  0  0  0  0  0  0  0  0  0  0
    3.3397    6.0474   -2.3451 O   0  0  0  0  0  0  0  0  0  0  0  0
    2.9403    5.3035   -1.2797 C   0  0  0  0  0  0  0  0  0  0  0  0
    1.6956    4.6390   -1.2450 C   0  0  0  0  0  0  0  0  0  0  0  0
    1.3293    3.8512   -0.1413 C   0  0  0  0  0  0  0  0  0  0  0  0
   -0.0084    3.1957   -0.1499 C   0  0  0  0  0  0  0  0  0  0  0  0
   -0.3411    1.9187    0.2172 C   0  0  0  0  0  0  0  0  0  0  0  0
    0.7222    0.8662    0.5471 C   0  0  0  0  0  0  0  0  0  0  0  0
    1.2718    0.1879   -0.7536 C   0  0  2  0  0  0  0  0  0  0  0  0
    0.2828   -0.8834   -1.3015 C   0  0  0  0  0  0  0  0  0  0  0  0
   -0.0522   -2.0353   -0.3273 C   0  0  0  0  0  0  0  0  0  0  0  0
   -0.8646   -2.9678   -0.9834 O   0  0  0  0  0  0  0  0  0  0  0  0
    2.7399   -0.2732   -0.6420 C   0  0  0  0  0  0  0  0  0  0  0  0
    3.7106    0.6891   -0.2933 C   0  0  0  0  0  0  0  0  0  0  0  0
    5.0650    0.3691   -0.2286 C   0  0  0  0  0  0  0  0  0  0  0  0
    5.4934   -0.9205   -0.5226 C   0  0  0  0  0  0  0  0  0  0  0  0
    4.5661   -1.9040   -0.8895 C   0  0  0  0  0  0  0  0  0  0  0  0
    5.0439   -3.2927   -1.2382 C   0  0  0  0  0  0  0  0  0  0  0  0
    4.4988   -4.3376   -0.2609 C   0  0  0  0  0  0  0  0  0  0  0  0
    4.9938   -5.6081   -0.5849 O   0  0  0  0  0  0  0  0  0  0  0  0
    3.1969   -1.5774   -0.9536 C   0  0  0  0  0  0  0  0  0  0  0  0
   -1.7933    1.5416    0.1706 C   0  0  0  0  0  0  0  0  0  0  0  0
   -2.6192    2.3961   -0.1280 O   0  0  0  0  0  0  0  0  0  0  0  0
   -2.2148    0.2767    0.4606 O   0  0  0  0  0  0  0  0  0  0  0  0
   -3.5538   -0.0850    0.5696 C   0  0  2  0  0  0  0  0  0  0  0  0
   -3.8499   -0.8048    1.8918 C   0  0  2  0  0  0  0  0  0  0  0  0
   -3.2220   -2.0438    1.8809 O   0  0  0  0  0  0  0  0  0  0  0  0
   -2.3362   -2.5101    2.7958 C   0  0  0  0  0  0  0  0  0  0  0  0
   -1.8831   -3.9317    2.7077 C   0  0  0  0  0  0  0  0  0  0  0  0
   -1.9187   -1.7962    3.6960 O   0  0  0  0  0  0  0  0  0  0  0  0
   -5.3876   -1.0369    1.9768 C   0  0  1  0  0  0  0  0  0  0  0  0
   -6.0221   -0.0280    2.7248 O   0  0  0  0  0  0  0  0  0  0  0  0
   -6.0404   -1.1220    0.5607 C   0  0  2  0  0  0  0  0  0  0  0  0
   -7.4002   -1.8259    0.6256 C   0  0  0  0  0  0  0  0  0  0  0  0
   -7.9833   -1.8878   -0.6479 O   0  0  0  0  0  0  0  0  0  0  0  0
   -5.1862   -1.7846   -0.3544 O   0  0  0  0  0  0  0  0  0  0  0  0
   -3.9695   -1.0552   -0.5822 C   0  0  1  0  0  0  0  0  0  0  0  0
   -4.0093   -0.3886   -1.8154 O   0  0  0  0  0  0  0  0  0  0  0  0
    2.2015    3.7788    0.9592 C   0  0  0  0  0  0  0  0  0  0  0  0
    3.4280    4.4438    0.9368 C   0  0  0  0  0  0  0  0  0  0  0  0
    3.8042    5.1991   -0.1800 C   0  0  0  0  0  0  0  0  0  0  0  0
    4.9927    5.8378   -0.2020 O   0  0  0  0  0  0  0  0  0  0  0  0
    3.2250    6.8666   -4.2014 H   0  0  0  0  0  0  0  0  0  0  0  0
    1.6596    6.6964   -3.3228 H   0  0  0  0  0  0  0  0  0  0  0  0
    2.4893    5.2313   -4.0185 H   0  0  0  0  0  0  0  0  0  0  0  0
    1.0131    4.7131   -2.0819 H   0  0  0  0  0  0  0  0  0  0  0  0
   -0.7941    3.8472   -0.5222 H   0  0  0  0  0  0  0  0  0  0  0  0
    0.3820    0.1448    1.3142 H   0  0  0  0  0  0  0  0  0  0  0  0
    1.5416    1.3516    1.0751 H   0  0  0  0  0  0  0  0  0  0  0  0
    1.3397    0.9829   -1.5309 H   0  0  0  0  0  0  0  0  0  0  0  0
    0.7030   -1.3016   -2.2413 H   0  0  0  0  0  0  0  0  0  0  0  0
   -0.6723   -0.3904   -1.5793 H   0  0  0  0  0  0  0  0  0  0  0  0
   -0.5948   -1.6449    0.5553 H   0  0  0  0  0  0  0  0  0  0  0  0
    0.8572   -2.5471    0.0408 H   0  0  0  0  0  0  0  0  0  0  0  0
   -1.1162   -3.6444   -0.3019 H   0  0  0  0  0  0  0  0  0  0  0  0
    3.4276    1.7062   -0.0869 H   0  0  0  0  0  0  0  0  0  0  0  0
    5.7869    1.1304    0.0390 H   0  0  0  0  0  0  0  0  0  0  0  0
    6.5516   -1.1464   -0.4752 H   0  0  0  0  0  0  0  0  0  0  0  0
    6.1548   -3.3397   -1.2039 H   0  0  0  0  0  0  0  0  0  0  0  0
    4.7253   -3.5367   -2.2749 H   0  0  0  0  0  0  0  0  0  0  0  0
    3.3858   -4.3525   -0.2549 H   0  0  0  0  0  0  0  0  0  0  0  0
    4.8324   -4.0860    0.7687 H   0  0  0  0  0  0  0  0  0  0  0  0
    4.4846   -5.9167   -1.3792 H   0  0  0  0  0  0  0  0  0  0  0  0
    2.5209   -2.3489   -1.2783 H   0  0  0  0  0  0  0  0  0  0  0  0
   -4.2025    0.8184    0.5435 H   0  0  0  0  0  0  0  0  0  0  0  0
   -3.5213   -0.2079    2.7725 H   0  0  0  0  0  0  0  0  0  0  0  0
   -2.3694   -4.4364    1.8458 H   0  0  0  0  0  0  0  0  0  0  0  0
   -2.1646   -4.4700    3.6373 H   0  0  0  0  0  0  0  0  0  0  0  0
   -0.7823   -3.9714    2.5757 H   0  0  0  0  0  0  0  0  0  0  0  0
   -5.5262   -1.9875    2.5400 H   0  0  0  0  0  0  0  0  0  0  0  0
   -5.7966    0.8458    2.3110 H   0  0  0  0  0  0  0  0  0  0  0  0
   -6.2338   -0.0962    0.1685 H   0  0  0  0  0  0  0  0  0  0  0  0
   -8.0824   -1.3044    1.3354 H   0  0  0  0  0  0  0  0  0  0  0  0
   -7.2682   -2.8634    1.0007 H   0  0  0  0  0  0  0  0  0  0  0  0
   -8.3815   -0.9951   -0.8220 H   0  0  0  0  0  0  0  0  0  0  0  0
   -3.1800   -1.8300   -0.6467 H   0  0  0  0  0  0  0  0  0  0  0  0
   -4.7954    0.2135   -1.7910 H   0  0  0  0  0  0  0  0  0  0  0  0
    1.9354    3.2420    1.8576 H   0  0  0  0  0  0  0  0  0  0  0  0
    4.0840    4.3772    1.7959 H   0  0  0  0  0  0  0  0  0  0  0  0
    5.6142    5.7952    0.5391 H   0  0  0  0  0  0  0  0  0  0  0  0
  1  2  1  0  0  0  0
  1 43  1  0  0  0  0
  1 44  1  0  0  0  0
  1 45  1  0  0  0  0
  2  3  1  0  0  0  0
  3  4  2  0  0  0  0
  4  5  1  0  0  0  0
  4 46  1  0  0  0  0
  5  6  1  0  0  0  0
  5 39  2  0  0  0  0
  6  7  2  0  0  0  0
  6 47  1  0  0  0  0
  7  8  1  0  0  0  0
  7 22  1  0  0  0  0
  8 48  1  0  0  0  0
  8 49  1  0  0  0  0
  9  8  1  0  0  0  0
  9 10  1  0  0  0  0
  9 13  1  0  0  0  0
  9 50  1  6  0  0  0
 10 11  1  0  0  0  0
 10 51  1  0  0  0  0
 10 52  1  0  0  0  0
 11 12  1  0  0  0  0
 11 53  1  0  0  0  0
 11 54  1  0  0  0  0
 12 55  1  0  0  0  0
 13 14  2  0  0  0  0
 14 15  1  0  0  0  0
 14 56  1  0  0  0  0
 15 16  2  0  0  0  0
 15 57  1  0  0  0  0
 16 17  1  0  0  0  0
 16 58  1  0  0  0  0
 17 18  1  0  0  0  0
 17 21  2  0  0  0  0
 18 19  1  0  0  0  0
 18 59  1  0  0  0  0
 18 60  1  0  0  0  0
 19 20  1  0  0  0  0
 19 61  1  0  0  0  0
 19 62  1  0  0  0  0
 20 63  1  0  0  0  0
 21 13  1  0  0  0  0
 21 64  1  0  0  0  0
 22 23  2  0  0  0  0
 22 24  1  0  0  0  0
 25 24  1  0  0  0  0
 25 26  1  0  0  0  0
 25 65  1  6  0  0  0
 26 27  1  0  0  0  0
 26 31  1  0  0  0  0
 26 66  1  1  0  0  0
 27 28  1  0  0  0  0
 28 29  1  0  0  0  0
 28 30  2  0  0  0  0
 29 67  1  0  0  0  0
 29 68  1  0  0  0  0
 29 69  1  0  0  0  0
 31 32  1  0  0  0  0
 31 33  1  0  0  0  0
 31 70  1  1  0  0  0
 32 71  1  0  0  0  0
 33 34  1  0  0  0  0
 33 36  1  0  0  0  0
 33 72  1  6  0  0  0
 34 35  1  0  0  0  0
 34 73  1  0  0  0  0
 34 74  1  0  0  0  0
 35 75  1  0  0  0  0
 36 37  1  0  0  0  0
 37 38  1  0  0  0  0
 37 25  1  0  0  0  0
 37 76  1  6  0  0  0
 38 77  1  0  0  0  0
 39 40  1  0  0  0  0
 39 78  1  0  0  0  0
 40 41  2  0  0  0  0
 40 79  1  0  0  0  0
 41 42  1  0  0  0  0
 41  3  1  0  0  0  0
 42 80  1  0  0  0  0
M  END
>  <IDENTIFIER>
CNP0124460.1

>  <Energy>
710.904

$$$$
