
 OpenBabel09112500093D

 62 64  0  0  0  0  0  0  0  0999 V2000
    1.1144   -1.9335    3.0305 C   0  0  0  0  0  0  0  0  0  0  0  0
    0.2110   -1.1003    2.1533 C   0  0  0  0  0  0  0  0  0  0  0  0
    0.4398   -0.7615    0.8491 C   0  0  0  0  0  0  0  0  0  0  0  0
   -0.6142   -0.0163   -0.0073 C   0  0  0  0  0  0  0  0  0  0  0  0
   -1.7664    0.8684    0.6069 C   0  0  1  0  0  0  0  0  0  0  0  0
   -1.0720    1.8404    1.6100 C   0  0  0  0  0  0  0  0  0  0  0  0
   -2.4887    1.8028   -0.4599 C   0  0  0  0  0  0  0  0  0  0  0  0
   -3.8407    2.2871    0.0498 C   0  0  0  0  0  0  0  0  0  0  0  0
   -4.8258    1.0987    0.1504 C   0  0  0  0  0  0  0  0  0  0  0  0
   -4.1708   -0.2582    0.5921 C   0  0  0  0  0  0  0  0  0  0  0  0
   -5.1769   -1.0130    1.4910 C   0  0  0  0  0  0  0  0  0  0  0  0
   -3.8712   -1.1843   -0.6158 C   0  0  0  0  0  0  0  0  0  0  0  0
   -2.8677    0.0218    1.3825 C   0  0  0  0  0  0  0  0  0  0  0  0
   -0.4451   -0.0916   -1.3611 C   0  0  0  0  0  0  0  0  0  0  0  0
    0.6250   -0.9317   -1.9993 C   0  0  0  0  0  0  0  0  0  0  0  0
    1.9194   -0.7422   -1.2347 C   0  0  1  0  0  0  0  0  0  0  0  0
    2.3775    0.7139   -1.0690 C   0  0  2  0  0  0  0  0  0  0  0  0
    3.1151    1.1057   -2.1718 O   0  0  0  0  0  0  0  0  0  0  0  0
    2.8277    2.1514   -2.9892 C   0  0  0  0  0  0  0  0  0  0  0  0
    3.7688    2.4897   -4.0995 C   0  0  0  0  0  0  0  0  0  0  0  0
    1.8169    2.8201   -2.8307 O   0  0  0  0  0  0  0  0  0  0  0  0
    3.1762    0.7706    0.0891 O   0  0  0  0  0  0  0  0  0  0  0  0
    3.0438   -0.4751    0.7434 C   0  0  2  0  0  0  0  0  0  0  0  0
    4.1747   -1.2204    0.4411 O   0  0  0  0  0  0  0  0  0  0  0  0
    5.0872   -1.6839    1.3333 C   0  0  0  0  0  0  0  0  0  0  0  0
    6.3185   -2.3660    0.8318 C   0  0  0  0  0  0  0  0  0  0  0  0
    4.9282   -1.5379    2.5370 O   0  0  0  0  0  0  0  0  0  0  0  0
    1.7834   -1.1919    0.1956 C   0  0  1  0  0  0  0  0  0  0  0  0
    0.6134   -2.1103    4.0058 H   0  0  0  0  0  0  0  0  0  0  0  0
    2.0732   -1.4489    3.2676 H   0  0  0  0  0  0  0  0  0  0  0  0
    1.2963   -2.9219    2.5598 H   0  0  0  0  0  0  0  0  0  0  0  0
   -0.6935   -0.8306    2.6556 H   0  0  0  0  0  0  0  0  0  0  0  0
   -0.3036    2.4493    1.0855 H   0  0  0  0  0  0  0  0  0  0  0  0
   -0.5662    1.3326    2.4474 H   0  0  0  0  0  0  0  0  0  0  0  0
   -1.7889    2.5411    2.0812 H   0  0  0  0  0  0  0  0  0  0  0  0
   -2.7653    1.3127   -1.4059 H   0  0  0  0  0  0  0  0  0  0  0  0
   -1.8236    2.6500   -0.7370 H   0  0  0  0  0  0  0  0  0  0  0  0
   -4.2846    3.0648   -0.6089 H   0  0  0  0  0  0  0  0  0  0  0  0
   -3.6993    2.7514    1.0458 H   0  0  0  0  0  0  0  0  0  0  0  0
   -5.3489    0.9318   -0.8167 H   0  0  0  0  0  0  0  0  0  0  0  0
   -5.6067    1.4406    0.8657 H   0  0  0  0  0  0  0  0  0  0  0  0
   -6.1218   -1.2141    0.9406 H   0  0  0  0  0  0  0  0  0  0  0  0
   -5.4249   -0.4129    2.3936 H   0  0  0  0  0  0  0  0  0  0  0  0
   -4.7556   -1.9832    1.8323 H   0  0  0  0  0  0  0  0  0  0  0  0
   -4.8082   -1.4112   -1.1691 H   0  0  0  0  0  0  0  0  0  0  0  0
   -3.4418   -2.1474   -0.2643 H   0  0  0  0  0  0  0  0  0  0  0  0
   -3.1593   -0.7636   -1.3413 H   0  0  0  0  0  0  0  0  0  0  0  0
   -2.4927   -0.9414    1.7596 H   0  0  0  0  0  0  0  0  0  0  0  0
   -3.1988    0.6123    2.2670 H   0  0  0  0  0  0  0  0  0  0  0  0
   -1.0447    0.4486   -2.0707 H   0  0  0  0  0  0  0  0  0  0  0  0
    0.7331   -0.6626   -3.0720 H   0  0  0  0  0  0  0  0  0  0  0  0
    0.3407   -2.0049   -1.9326 H   0  0  0  0  0  0  0  0  0  0  0  0
    2.7458   -1.3319   -1.6986 H   0  0  0  0  0  0  0  0  0  0  0  0
    1.5260    1.3993   -0.8731 H   0  0  0  0  0  0  0  0  0  0  0  0
    4.6324    1.7911   -4.0979 H   0  0  0  0  0  0  0  0  0  0  0  0
    4.1462    3.5252   -3.9658 H   0  0  0  0  0  0  0  0  0  0  0  0
    3.2442    2.4117   -5.0744 H   0  0  0  0  0  0  0  0  0  0  0  0
    2.9788   -0.2875    1.8245 H   0  0  0  0  0  0  0  0  0  0  0  0
    6.3113   -2.4047   -0.2783 H   0  0  0  0  0  0  0  0  0  0  0  0
    6.3657   -3.4003    1.2301 H   0  0  0  0  0  0  0  0  0  0  0  0
    7.2164   -1.8024    1.1630 H   0  0  0  0  0  0  0  0  0  0  0  0
    1.8345   -2.2991    0.2895 H   0  0  0  0  0  0  0  0  0  0  0  0
  1  2  1  0  0  0  0
  1 29  1  0  0  0  0
  1 30  1  0  0  0  0
  1 31  1  0  0  0  0
  2  3  2  0  0  0  0
  2 32  1  0  0  0  0
  3  4  1  0  0  0  0
  4  5  1  0  0  0  0
  4 14  2  0  0  0  0
  5  6  1  1  0  0  0
  5  7  1  0  0  0  0
  6 33  1  0  0  0  0
  6 34  1  0  0  0  0
  6 35  1  0  0  0  0
  7  8  1  0  0  0  0
  7 36  1  0  0  0  0
  7 37  1  0  0  0  0
  8  9  1  0  0  0  0
  8 38  1  0  0  0  0
  8 39  1  0  0  0  0
  9 10  1  0  0  0  0
  9 40  1  0  0  0  0
  9 41  1  0  0  0  0
 10 11  1  0  0  0  0
 10 12  1  0  0  0  0
 10 13  1  0  0  0  0
 11 42  1  0  0  0  0
 11 43  1  0  0  0  0
 11 44  1  0  0  0  0
 12 45  1  0  0  0  0
 12 46  1  0  0  0  0
 12 47  1  0  0  0  0
 13  5  1  0  0  0  0
 13 48  1  0  0  0  0
 13 49  1  0  0  0  0
 14 15  1  0  0  0  0
 14 50  1  0  0  0  0
 15 51  1  0  0  0  0
 15 52  1  0  0  0  0
 16 15  1  0  0  0  0
 16 17  1  0  0  0  0
 16 53  1  6  0  0  0
 17 18  1  0  0  0  0
 17 22  1  0  0  0  0
 17 54  1  1  0  0  0
 18 19  1  0  0  0  0
 19 20  1  0  0  0  0
 19 21  2  0  0  0  0
 20 55  1  0  0  0  0
 20 56  1  0  0  0  0
 20 57  1  0  0  0  0
 22 23  1  0  0  0  0
 23 24  1  0  0  0  0
 23 28  1  0  0  0  0
 23 58  1  1  0  0  0
 24 25  1  0  0  0  0
 25 26  1  0  0  0  0
 25 27  2  0  0  0  0
 26 59  1  0  0  0  0
 26 60  1  0  0  0  0
 26 61  1  0  0  0  0
 28  3  1  0  0  0  0
 28 16  1  0  0  0  0
 28 62  1  1  0  0  0
M  END
>  <IDENTIFIER>
CNP0249820.5

>  <Energy>
658.92

$$$$
