
 OpenBabel09102504323D

143144  0  0  0  0  0  0  0  0999 V2000
  -14.3512    1.8696    2.1378 N   0  0  0  0  0  0  0  0  0  0  0  0
  -14.1088    3.0231    1.6278 C   0  0  0  0  0  0  0  0  0  0  0  0
  -14.9218    4.1349    1.9781 N   0  0  0  0  0  0  0  0  0  0  0  0
  -13.0107    3.2158    0.7339 N   0  0  0  0  0  0  0  0  0  0  0  0
  -12.1574    2.1465    0.2115 C   0  0  2  0  0  0  0  0  0  0  0  0
  -10.9504    2.7587   -0.5395 C   0  0  2  0  0  0  0  0  0  0  0  0
  -11.3716    3.6925   -1.5103 O   0  0  0  0  0  0  0  0  0  0  0  0
  -10.0849    1.6492   -1.1798 C   0  0  1  0  0  0  0  0  0  0  0  0
   -9.4690    0.8445   -0.1749 O   0  0  0  0  0  0  0  0  0  0  0  0
   -8.0565    0.7273   -0.3390 C   0  0  1  0  0  0  0  0  0  0  0  0
   -7.4358    0.6613    1.0678 C   0  0  2  0  0  0  0  0  0  0  0  0
   -6.0314    0.7836    1.0233 O   0  0  0  0  0  0  0  0  0  0  0  0
   -7.8869   -0.6257    1.8392 C   0  0  1  0  0  0  0  0  0  0  0  0
   -8.8121   -0.3169    2.8517 O   0  0  0  0  0  0  0  0  0  0  0  0
   -8.4675   -1.7537    0.9252 C   0  0  2  0  0  0  0  0  0  0  0  0
   -8.4513   -2.9462    1.6313 O   0  0  0  0  0  0  0  0  0  0  0  0
   -9.5381   -3.6834    1.9790 C   0  0  0  0  0  0  0  0  0  0  0  0
   -9.3681   -4.8100    2.7046 N   0  0  0  0  0  0  0  0  0  0  0  0
  -10.6655   -3.3364    1.6551 O   0  0  0  0  0  0  0  0  0  0  0  0
   -7.6283   -1.8748   -0.3542 C   0  0  2  0  0  0  0  0  0  0  0  0
   -6.3218   -2.1361    0.0300 O   0  0  0  0  0  0  0  0  0  0  0  0
   -5.5255   -3.1462   -0.4049 C   0  0  0  0  0  0  0  0  0  0  0  0
   -5.8435   -3.8436   -1.3581 O   0  0  0  0  0  0  0  0  0  0  0  0
   -4.2154   -3.3664    0.2952 C   0  0  0  0  0  0  0  0  0  0  0  0
   -2.9934   -3.0607   -0.6050 C   0  0  1  0  0  0  0  0  0  0  0  0
   -3.0357   -1.6818   -1.1006 N   0  0  0  0  0  0  0  0  0  0  0  0
   -1.6452   -3.3198    0.1146 C   0  0  0  0  0  0  0  0  0  0  0  0
   -1.4883   -2.5707    1.4528 C   0  0  0  0  0  0  0  0  0  0  0  0
   -0.1234   -2.8224    2.1088 C   0  0  0  0  0  0  0  0  0  0  0  0
    0.9764   -2.1843    1.4028 N   0  0  0  0  0  0  0  0  0  0  0  0
    1.1206   -0.8280    1.3448 C   0  0  0  0  0  0  0  0  0  0  0  0
    0.2819   -0.0968    1.8528 O   0  0  0  0  0  0  0  0  0  0  0  0
    2.3710   -0.2083    0.7647 C   0  0  0  0  0  0  0  0  0  0  0  0
    2.1696    0.7424   -0.4518 C   0  0  1  0  0  0  0  0  0  0  0  0
    1.1540    1.7644   -0.1761 N   0  0  0  0  0  0  0  0  0  0  0  0
    3.4905    1.4804   -0.7801 C   0  0  0  0  0  0  0  0  0  0  0  0
    4.6717    0.5690   -1.1921 C   0  0  0  0  0  0  0  0  0  0  0  0
    5.9967    1.3531   -1.2436 C   0  0  0  0  0  0  0  0  0  0  0  0
    6.3484    1.8329    0.0847 N   0  0  0  0  0  0  0  0  0  0  0  0
    7.4460    2.5881    0.3461 C   0  0  0  0  0  0  0  0  0  0  0  0
    8.2266    2.8838   -0.5471 O   0  0  0  0  0  0  0  0  0  0  0  0
    7.6251    3.1087    1.7554 C   0  0  0  0  0  0  0  0  0  0  0  0
    8.8753    3.9821    2.0286 C   0  0  1  0  0  0  0  0  0  0  0  0
    8.6443    4.7754    3.2412 N   0  0  0  0  0  0  0  0  0  0  0  0
   10.1673    3.1662    2.2612 C   0  0  0  0  0  0  0  0  0  0  0  0
   10.6776    2.3173    1.0889 C   0  0  0  0  0  0  0  0  0  0  0  0
   11.9702    1.6084    1.5196 C   0  0  0  0  0  0  0  0  0  0  0  0
   12.5327    0.7907    0.4607 N   0  0  0  0  0  0  0  0  0  0  0  0
   13.6614    0.0610    0.6782 C   0  0  0  0  0  0  0  0  0  0  0  0
   14.2040    0.0938    1.7747 O   0  0  0  0  0  0  0  0  0  0  0  0
   14.2555   -0.7693   -0.4416 C   0  0  0  0  0  0  0  0  0  0  0  0
   15.4972   -1.6021   -0.0111 C   0  0  1  0  0  0  0  0  0  0  0  0
   15.1174   -2.6487    0.9466 N   0  0  0  0  0  0  0  0  0  0  0  0
   16.2132   -2.2837   -1.1972 C   0  0  0  0  0  0  0  0  0  0  0  0
   16.8278   -1.2893   -2.1993 C   0  0  0  0  0  0  0  0  0  0  0  0
   17.6506   -2.0031   -3.2796 C   0  0  0  0  0  0  0  0  0  0  0  0
   18.7791   -2.7206   -2.6912 N   0  0  0  0  0  0  0  0  0  0  0  0
   -7.7187   -0.5475   -1.1859 C   0  0  2  0  0  0  0  0  0  0  0  0
   -6.5325   -0.3573   -1.8822 O   0  0  0  0  0  0  0  0  0  0  0  0
   -6.3927   -0.3676   -3.2352 C   0  0  0  0  0  0  0  0  0  0  0  0
   -5.1973   -0.0568   -3.7826 N   0  0  0  0  0  0  0  0  0  0  0  0
   -7.3327   -0.6550   -3.9631 O   0  0  0  0  0  0  0  0  0  0  0  0
  -10.8527    0.8524   -2.0690 O   0  0  0  0  0  0  0  0  0  0  0  0
  -11.9243    0.1913   -1.4094 C   0  0  2  0  0  0  0  0  0  0  0  0
  -12.6269   -0.6871   -2.4605 C   0  0  0  0  0  0  0  0  0  0  0  0
  -13.6701   -1.4395   -1.9019 O   0  0  0  0  0  0  0  0  0  0  0  0
  -12.9148    1.2149   -0.7732 C   0  0  1  0  0  0  0  0  0  0  0  0
  -13.9801    0.5520   -0.1420 O   0  0  0  0  0  0  0  0  0  0  0  0
  -15.1349    1.7215    2.7900 H   0  0  0  0  0  0  0  0  0  0  0  0
  -15.7198    4.0246    2.6206 H   0  0  0  0  0  0  0  0  0  0  0  0
  -14.7332    5.0657    1.5792 H   0  0  0  0  0  0  0  0  0  0  0  0
  -12.7967    4.1907    0.4764 H   0  0  0  0  0  0  0  0  0  0  0  0
  -11.7578    1.5453    1.0588 H   0  0  0  0  0  0  0  0  0  0  0  0
  -10.3181    3.3169    0.1856 H   0  0  0  0  0  0  0  0  0  0  0  0
  -11.6940    3.2082   -2.3132 H   0  0  0  0  0  0  0  0  0  0  0  0
   -9.3482    2.1982   -1.8079 H   0  0  0  0  0  0  0  0  0  0  0  0
   -7.6307    1.6342   -0.8273 H   0  0  0  0  0  0  0  0  0  0  0  0
   -7.7714    1.5536    1.6411 H   0  0  0  0  0  0  0  0  0  0  0  0
   -5.6522    0.0639    0.4663 H   0  0  0  0  0  0  0  0  0  0  0  0
   -6.9768   -1.0085    2.3527 H   0  0  0  0  0  0  0  0  0  0  0  0
   -9.6052    0.0888    2.4161 H   0  0  0  0  0  0  0  0  0  0  0  0
   -9.5010   -1.4922    0.6099 H   0  0  0  0  0  0  0  0  0  0  0  0
   -8.4227   -5.1069    2.9878 H   0  0  0  0  0  0  0  0  0  0  0  0
  -10.1779   -5.3813    2.9877 H   0  0  0  0  0  0  0  0  0  0  0  0
   -7.9990   -2.7027   -0.9999 H   0  0  0  0  0  0  0  0  0  0  0  0
   -4.1741   -4.4139    0.6662 H   0  0  0  0  0  0  0  0  0  0  0  0
   -4.1994   -2.6858    1.1711 H   0  0  0  0  0  0  0  0  0  0  0  0
   -3.0184   -3.7399   -1.4869 H   0  0  0  0  0  0  0  0  0  0  0  0
   -3.1538   -1.0063   -0.3120 H   0  0  0  0  0  0  0  0  0  0  0  0
   -3.8480   -1.5721   -1.7473 H   0  0  0  0  0  0  0  0  0  0  0  0
   -0.8223   -3.0347   -0.5771 H   0  0  0  0  0  0  0  0  0  0  0  0
   -1.5551   -4.4092    0.3204 H   0  0  0  0  0  0  0  0  0  0  0  0
   -2.2514   -2.9566    2.1598 H   0  0  0  0  0  0  0  0  0  0  0  0
   -1.6560   -1.4841    1.3281 H   0  0  0  0  0  0  0  0  0  0  0  0
    0.0485   -3.9197    2.1675 H   0  0  0  0  0  0  0  0  0  0  0  0
   -0.1395   -2.4335    3.1507 H   0  0  0  0  0  0  0  0  0  0  0  0
    1.7127   -2.7896    1.0099 H   0  0  0  0  0  0  0  0  0  0  0  0
    3.0607   -1.0233    0.4711 H   0  0  0  0  0  0  0  0  0  0  0  0
    2.8495    0.3598    1.5923 H   0  0  0  0  0  0  0  0  0  0  0  0
    1.8400    0.1549   -1.3368 H   0  0  0  0  0  0  0  0  0  0  0  0
    1.3622    2.2587    0.7236 H   0  0  0  0  0  0  0  0  0  0  0  0
    0.2008    1.3397   -0.1362 H   0  0  0  0  0  0  0  0  0  0  0  0
    3.7511    2.0709    0.1218 H   0  0  0  0  0  0  0  0  0  0  0  0
    3.3167    2.2091   -1.6026 H   0  0  0  0  0  0  0  0  0  0  0  0
    4.4478    0.1189   -2.1830 H   0  0  0  0  0  0  0  0  0  0  0  0
    4.8324   -0.2522   -0.4669 H   0  0  0  0  0  0  0  0  0  0  0  0
    5.8915    2.2104   -1.9443 H   0  0  0  0  0  0  0  0  0  0  0  0
    6.8041    0.6853   -1.6148 H   0  0  0  0  0  0  0  0  0  0  0  0
    5.7329    1.6069    0.8811 H   0  0  0  0  0  0  0  0  0  0  0  0
    7.5952    2.2732    2.4889 H   0  0  0  0  0  0  0  0  0  0  0  0
    6.7222    3.7347    1.9262 H   0  0  0  0  0  0  0  0  0  0  0  0
    9.0195    4.6990    1.1901 H   0  0  0  0  0  0  0  0  0  0  0  0
    8.4351    4.1476    4.0529 H   0  0  0  0  0  0  0  0  0  0  0  0
    7.8312    5.4182    3.0997 H   0  0  0  0  0  0  0  0  0  0  0  0
   10.0084    2.4999    3.1387 H   0  0  0  0  0  0  0  0  0  0  0  0
   10.9694    3.8914    2.5256 H   0  0  0  0  0  0  0  0  0  0  0  0
   10.8797    2.9713    0.2129 H   0  0  0  0  0  0  0  0  0  0  0  0
    9.9284    1.5453    0.8168 H   0  0  0  0  0  0  0  0  0  0  0  0
   11.7426    0.9591    2.3940 H   0  0  0  0  0  0  0  0  0  0  0  0
   12.7224    2.3695    1.8220 H   0  0  0  0  0  0  0  0  0  0  0  0
   12.0770    0.7579   -0.4636 H   0  0  0  0  0  0  0  0  0  0  0  0
   14.5289   -0.0474   -1.2358 H   0  0  0  0  0  0  0  0  0  0  0  0
   13.4835   -1.4585   -0.8469 H   0  0  0  0  0  0  0  0  0  0  0  0
   16.2404   -0.9284    0.4720 H   0  0  0  0  0  0  0  0  0  0  0  0
   14.3850   -3.2709    0.5322 H   0  0  0  0  0  0  0  0  0  0  0  0
   14.7526   -2.2450    1.8366 H   0  0  0  0  0  0  0  0  0  0  0  0
   15.5165   -2.9719   -1.7246 H   0  0  0  0  0  0  0  0  0  0  0  0
   17.0396   -2.8912   -0.7668 H   0  0  0  0  0  0  0  0  0  0  0  0
   17.4883   -0.5736   -1.6625 H   0  0  0  0  0  0  0  0  0  0  0  0
   16.0251   -0.7170   -2.7069 H   0  0  0  0  0  0  0  0  0  0  0  0
   18.0326   -1.2487   -4.0028 H   0  0  0  0  0  0  0  0  0  0  0  0
   17.0021   -2.7186   -3.8307 H   0  0  0  0  0  0  0  0  0  0  0  0
   19.4201   -2.0335   -2.2309 H   0  0  0  0  0  0  0  0  0  0  0  0
   19.3120   -3.1903   -3.4582 H   0  0  0  0  0  0  0  0  0  0  0  0
   -8.5660   -0.6455   -1.9006 H   0  0  0  0  0  0  0  0  0  0  0  0
   -4.3996    0.1976   -3.1829 H   0  0  0  0  0  0  0  0  0  0  0  0
   -5.0699   -0.0618   -4.8054 H   0  0  0  0  0  0  0  0  0  0  0  0
  -11.5185   -0.4915   -0.6282 H   0  0  0  0  0  0  0  0  0  0  0  0
  -11.8910   -1.3706   -2.9420 H   0  0  0  0  0  0  0  0  0  0  0  0
  -13.0436   -0.0453   -3.2667 H   0  0  0  0  0  0  0  0  0  0  0  0
  -13.2457   -2.1759   -1.3892 H   0  0  0  0  0  0  0  0  0  0  0  0
  -13.3453    1.8339   -1.5893 H   0  0  0  0  0  0  0  0  0  0  0  0
  -13.5886   -0.0747    0.5218 H   0  0  0  0  0  0  0  0  0  0  0  0
  1  2  2  0  0  0  0
  1 69  1  0  0  0  0
  2  3  1  0  0  0  0
  2  4  1  0  0  0  0
  3 70  1  0  0  0  0
  3 71  1  0  0  0  0
  4 72  1  0  0  0  0
  5  4  1  0  0  0  0
  5  6  1  0  0  0  0
  5 73  1  1  0  0  0
  6  7  1  0  0  0  0
  6  8  1  0  0  0  0
  6 74  1  1  0  0  0
  7 75  1  0  0  0  0
  8  9  1  0  0  0  0
  8 63  1  0  0  0  0
  8 76  1  6  0  0  0
 10  9  1  0  0  0  0
 10 11  1  0  0  0  0
 10 77  1  6  0  0  0
 11 12  1  0  0  0  0
 11 13  1  0  0  0  0
 11 78  1  1  0  0  0
 12 79  1  0  0  0  0
 13 14  1  0  0  0  0
 13 15  1  0  0  0  0
 13 80  1  1  0  0  0
 14 81  1  0  0  0  0
 15 16  1  0  0  0  0
 15 20  1  0  0  0  0
 15 82  1  6  0  0  0
 16 17  1  0  0  0  0
 17 18  1  0  0  0  0
 17 19  2  0  0  0  0
 18 83  1  0  0  0  0
 18 84  1  0  0  0  0
 20 21  1  0  0  0  0
 20 58  1  0  0  0  0
 20 85  1  6  0  0  0
 21 22  1  0  0  0  0
 22 23  2  0  0  0  0
 22 24  1  0  0  0  0
 24 25  1  0  0  0  0
 24 86  1  0  0  0  0
 24 87  1  0  0  0  0
 25 26  1  0  0  0  0
 25 27  1  0  0  0  0
 25 88  1  6  0  0  0
 26 89  1  0  0  0  0
 26 90  1  0  0  0  0
 27 28  1  0  0  0  0
 27 91  1  0  0  0  0
 27 92  1  0  0  0  0
 28 29  1  0  0  0  0
 28 93  1  0  0  0  0
 28 94  1  0  0  0  0
 29 30  1  0  0  0  0
 29 95  1  0  0  0  0
 29 96  1  0  0  0  0
 30 31  1  0  0  0  0
 30 97  1  0  0  0  0
 31 32  2  0  0  0  0
 31 33  1  0  0  0  0
 33 34  1  0  0  0  0
 33 98  1  0  0  0  0
 33 99  1  0  0  0  0
 34 35  1  0  0  0  0
 34 36  1  0  0  0  0
 34100  1  6  0  0  0
 35101  1  0  0  0  0
 35102  1  0  0  0  0
 36 37  1  0  0  0  0
 36103  1  0  0  0  0
 36104  1  0  0  0  0
 37 38  1  0  0  0  0
 37105  1  0  0  0  0
 37106  1  0  0  0  0
 38 39  1  0  0  0  0
 38107  1  0  0  0  0
 38108  1  0  0  0  0
 39 40  1  0  0  0  0
 39109  1  0  0  0  0
 40 41  2  0  0  0  0
 40 42  1  0  0  0  0
 42 43  1  0  0  0  0
 42110  1  0  0  0  0
 42111  1  0  0  0  0
 43 44  1  0  0  0  0
 43 45  1  0  0  0  0
 43112  1  6  0  0  0
 44113  1  0  0  0  0
 44114  1  0  0  0  0
 45 46  1  0  0  0  0
 45115  1  0  0  0  0
 45116  1  0  0  0  0
 46 47  1  0  0  0  0
 46117  1  0  0  0  0
 46118  1  0  0  0  0
 47 48  1  0  0  0  0
 47119  1  0  0  0  0
 47120  1  0  0  0  0
 48 49  1  0  0  0  0
 48121  1  0  0  0  0
 49 50  2  0  0  0  0
 49 51  1  0  0  0  0
 51 52  1  0  0  0  0
 51122  1  0  0  0  0
 51123  1  0  0  0  0
 52 53  1  0  0  0  0
 52 54  1  0  0  0  0
 52124  1  1  0  0  0
 53125  1  0  0  0  0
 53126  1  0  0  0  0
 54 55  1  0  0  0  0
 54127  1  0  0  0  0
 54128  1  0  0  0  0
 55 56  1  0  0  0  0
 55129  1  0  0  0  0
 55130  1  0  0  0  0
 56 57  1  0  0  0  0
 56131  1  0  0  0  0
 56132  1  0  0  0  0
 57133  1  0  0  0  0
 57134  1  0  0  0  0
 58 59  1  0  0  0  0
 58 10  1  0  0  0  0
 58135  1  6  0  0  0
 59 60  1  0  0  0  0
 60 61  1  0  0  0  0
 60 62  2  0  0  0  0
 61136  1  0  0  0  0
 61137  1  0  0  0  0
 63 64  1  0  0  0  0
 64 65  1  0  0  0  0
 64 67  1  0  0  0  0
 64138  1  1  0  0  0
 65 66  1  0  0  0  0
 65139  1  0  0  0  0
 65140  1  0  0  0  0
 66141  1  0  0  0  0
 67 68  1  0  0  0  0
 67  5  1  0  0  0  0
 67142  1  6  0  0  0
 68143  1  0  0  0  0
M  END
>  <IDENTIFIER>
CNP0483306.1

>  <Energy>
966.297

$$$$
