
 OpenBabel09102511093D

 59 61  0  0  0  0  0  0  0  0999 V2000
    6.8622   -1.6701    1.2188 C   0  0  0  0  0  0  0  0  0  0  0  0
    6.4156   -0.4567    1.9971 C   0  0  0  0  0  0  0  0  0  0  0  0
    7.1043   -0.1681    3.3112 C   0  0  0  0  0  0  0  0  0  0  0  0
    5.4431    0.4095    1.6046 C   0  0  0  0  0  0  0  0  0  0  0  0
    4.5525    0.4432    0.3688 C   0  0  0  0  0  0  0  0  0  0  0  0
    4.6443   -0.6938   -0.6609 C   0  0  0  0  0  0  0  0  0  0  0  0
    3.6997   -0.4527   -1.8252 C   0  0  0  0  0  0  0  0  0  0  0  0
    3.9634    0.7290   -2.7353 C   0  0  0  0  0  0  0  0  0  0  0  0
    2.6738   -1.3117   -2.0482 C   0  0  0  0  0  0  0  0  0  0  0  0
    1.6728   -1.1854   -3.1755 C   0  0  0  0  0  0  0  0  0  0  0  0
    0.3680   -1.2701   -2.7170 O   0  0  0  0  0  0  0  0  0  0  0  0
   -0.3041   -0.4170   -1.8974 C   0  0  0  0  0  0  0  0  0  0  0  0
    0.2841    0.7256   -1.3273 C   0  0  0  0  0  0  0  0  0  0  0  0
   -0.4528    1.5708   -0.4835 C   0  0  0  0  0  0  0  0  0  0  0  0
    0.1312    2.6643    0.0513 O   0  0  0  0  0  0  0  0  0  0  0  0
   -1.8019    1.2738   -0.2062 C   0  0  0  0  0  0  0  0  0  0  0  0
   -2.6574    2.1171    0.6651 C   0  0  0  0  0  0  0  0  0  0  0  0
   -2.1835    3.0157    1.3444 O   0  0  0  0  0  0  0  0  0  0  0  0
   -4.1411    1.8246    0.7025 C   0  0  2  0  0  0  0  0  0  0  0  0
   -4.7462    2.4073    1.8308 O   0  0  0  0  0  0  0  0  0  0  0  0
   -4.3514    0.2926    0.6329 C   0  0  1  0  0  0  0  0  0  0  0  0
   -5.7960   -0.1833    0.5795 C   0  0  0  0  0  0  0  0  0  0  0  0
   -6.0309   -1.5700    0.5312 C   0  0  0  0  0  0  0  0  0  0  0  0
   -7.3327   -2.0752    0.4821 C   0  0  0  0  0  0  0  0  0  0  0  0
   -8.4273   -1.2018    0.4849 C   0  0  0  0  0  0  0  0  0  0  0  0
   -9.6892   -1.6750    0.4417 O   0  0  0  0  0  0  0  0  0  0  0  0
   -8.2094    0.1774    0.5324 C   0  0  0  0  0  0  0  0  0  0  0  0
   -6.9078    0.6875    0.5758 C   0  0  0  0  0  0  0  0  0  0  0  0
   -3.6771   -0.2034   -0.4776 O   0  0  0  0  0  0  0  0  0  0  0  0
   -2.3891    0.1218   -0.7674 C   0  0  0  0  0  0  0  0  0  0  0  0
   -1.6447   -0.7048   -1.6130 C   0  0  0  0  0  0  0  0  0  0  0  0
    7.6712   -2.2160    1.7468 H   0  0  0  0  0  0  0  0  0  0  0  0
    7.2810   -1.3668    0.2399 H   0  0  0  0  0  0  0  0  0  0  0  0
    6.0281   -2.3871    1.0972 H   0  0  0  0  0  0  0  0  0  0  0  0
    7.8861   -0.9182    3.5517 H   0  0  0  0  0  0  0  0  0  0  0  0
    6.3595   -0.1734    4.1352 H   0  0  0  0  0  0  0  0  0  0  0  0
    7.5906    0.8299    3.2690 H   0  0  0  0  0  0  0  0  0  0  0  0
    5.2466    1.2454    2.2731 H   0  0  0  0  0  0  0  0  0  0  0  0
    4.7612    1.4098   -0.1341 H   0  0  0  0  0  0  0  0  0  0  0  0
    3.5014    0.4711    0.7311 H   0  0  0  0  0  0  0  0  0  0  0  0
    4.3802   -1.6421   -0.1495 H   0  0  0  0  0  0  0  0  0  0  0  0
    5.6645   -0.7684   -1.0828 H   0  0  0  0  0  0  0  0  0  0  0  0
    4.8706    1.2857   -2.4229 H   0  0  0  0  0  0  0  0  0  0  0  0
    3.1135    1.4385   -2.7365 H   0  0  0  0  0  0  0  0  0  0  0  0
    4.1390    0.3686   -3.7706 H   0  0  0  0  0  0  0  0  0  0  0  0
    2.5496   -2.1705   -1.3939 H   0  0  0  0  0  0  0  0  0  0  0  0
    1.8371   -2.0498   -3.8514 H   0  0  0  0  0  0  0  0  0  0  0  0
    1.7991   -0.2652   -3.7809 H   0  0  0  0  0  0  0  0  0  0  0  0
    1.3114    0.9718   -1.5258 H   0  0  0  0  0  0  0  0  0  0  0  0
    1.0553    2.8939   -0.1224 H   0  0  0  0  0  0  0  0  0  0  0  0
   -4.5870    2.2606   -0.2179 H   0  0  0  0  0  0  0  0  0  0  0  0
   -4.3674    1.9610    2.6335 H   0  0  0  0  0  0  0  0  0  0  0  0
   -3.8884   -0.1472    1.5456 H   0  0  0  0  0  0  0  0  0  0  0  0
   -5.1991   -2.2642    0.5291 H   0  0  0  0  0  0  0  0  0  0  0  0
   -7.4884   -3.1460    0.4427 H   0  0  0  0  0  0  0  0  0  0  0  0
   -9.8817   -2.6230    0.4075 H   0  0  0  0  0  0  0  0  0  0  0  0
   -9.0517    0.8581    0.5350 H   0  0  0  0  0  0  0  0  0  0  0  0
   -6.7916    1.7601    0.6073 H   0  0  0  0  0  0  0  0  0  0  0  0
   -2.1063   -1.5871   -2.0392 H   0  0  0  0  0  0  0  0  0  0  0  0
  1  2  1  0  0  0  0
  1 32  1  0  0  0  0
  1 33  1  0  0  0  0
  1 34  1  0  0  0  0
  2  3  1  0  0  0  0
  2  4  2  0  0  0  0
  3 35  1  0  0  0  0
  3 36  1  0  0  0  0
  3 37  1  0  0  0  0
  4  5  1  0  0  0  0
  4 38  1  0  0  0  0
  5  6  1  0  0  0  0
  5 39  1  0  0  0  0
  5 40  1  0  0  0  0
  6  7  1  0  0  0  0
  6 41  1  0  0  0  0
  6 42  1  0  0  0  0
  7  8  1  0  0  0  0
  7  9  2  0  0  0  0
  8 43  1  0  0  0  0
  8 44  1  0  0  0  0
  8 45  1  0  0  0  0
  9 10  1  0  0  0  0
  9 46  1  0  0  0  0
 10 11  1  0  0  0  0
 10 47  1  0  0  0  0
 10 48  1  0  0  0  0
 11 12  1  0  0  0  0
 12 13  2  0  0  0  0
 13 14  1  0  0  0  0
 13 49  1  0  0  0  0
 14 15  1  0  0  0  0
 14 16  2  0  0  0  0
 15 50  1  0  0  0  0
 16 17  1  0  0  0  0
 17 18  2  0  0  0  0
 17 19  1  0  0  0  0
 19 20  1  0  0  0  0
 19 21  1  0  0  0  0
 19 51  1  6  0  0  0
 20 52  1  0  0  0  0
 21 22  1  0  0  0  0
 21 29  1  0  0  0  0
 21 53  1  1  0  0  0
 22 23  2  0  0  0  0
 23 24  1  0  0  0  0
 23 54  1  0  0  0  0
 24 25  2  0  0  0  0
 24 55  1  0  0  0  0
 25 26  1  0  0  0  0
 25 27  1  0  0  0  0
 26 56  1  0  0  0  0
 27 28  2  0  0  0  0
 27 57  1  0  0  0  0
 28 22  1  0  0  0  0
 28 58  1  0  0  0  0
 29 30  1  0  0  0  0
 30 31  2  0  0  0  0
 30 16  1  0  0  0  0
 31 12  1  0  0  0  0
 31 59  1  0  0  0  0
M  END
>  <IDENTIFIER>
CNP0120829.2

>  <Energy>
354.378

$$$$
