
 OpenBabel09072522413D

 95 94  0  0  0  0  0  0  0  0999 V2000
   12.1498   -0.4277    0.8602 C   0  0  0  0  0  0  0  0  0  0  0  0
   10.8997   -0.2560   -0.0033 C   0  0  0  0  0  0  0  0  0  0  0  0
    9.6169   -0.8014    0.6613 C   0  0  0  0  0  0  0  0  0  0  0  0
    9.6363   -2.3137    0.9544 C   0  0  0  0  0  0  0  0  0  0  0  0
    9.8126   -3.2736   -0.2489 C   0  0  0  0  0  0  0  0  0  0  0  0
    8.5880   -3.4379   -1.1761 C   0  0  0  0  0  0  0  0  0  0  0  0
    8.2735   -2.2970   -2.1130 C   0  0  0  0  0  0  0  0  0  0  0  0
    9.0029   -1.3248   -2.1918 O   0  0  0  0  0  0  0  0  0  0  0  0
    7.0594   -2.3781   -3.0020 C   0  0  0  0  0  0  0  0  0  0  0  0
    5.9218   -1.4641   -2.5214 C   0  0  0  0  0  0  0  0  0  0  0  0
    6.2871    0.0297   -2.4692 C   0  0  0  0  0  0  0  0  0  0  0  0
    5.1113    0.9161   -2.0275 C   0  0  0  0  0  0  0  0  0  0  0  0
    4.6207    0.5946   -0.6011 C   0  0  0  0  0  0  0  0  0  0  0  0
    3.5632    1.5803   -0.0829 C   0  0  0  0  0  0  0  0  0  0  0  0
    2.2674    1.5680   -0.9122 C   0  0  0  0  0  0  0  0  0  0  0  0
    1.2171    2.5659   -0.4019 C   0  0  0  0  0  0  0  0  0  0  0  0
    0.6685    2.2115    0.9909 C   0  0  0  0  0  0  0  0  0  0  0  0
   -0.3837    3.2154    1.4945 C   0  0  0  0  0  0  0  0  0  0  0  0
   -1.6243    3.3709    0.5926 C   0  0  0  0  0  0  0  0  0  0  0  0
   -2.3818    2.0663    0.2912 C   0  0  0  0  0  0  0  0  0  0  0  0
   -2.9192    1.3780    1.5562 C   0  0  0  0  0  0  0  0  0  0  0  0
   -3.7058    0.0914    1.2493 C   0  0  0  0  0  0  0  0  0  0  0  0
   -4.9501    0.2870    0.3583 C   0  0  0  0  0  0  0  0  0  0  0  0
   -5.9794    1.2998    0.8994 C   0  0  0  0  0  0  0  0  0  0  0  0
   -6.5395    0.9643    2.2932 C   0  0  0  0  0  0  0  0  0  0  0  0
   -7.1631   -0.4339    2.5032 C   0  0  0  0  0  0  0  0  0  0  0  0
   -8.4933   -0.7409    1.7860 C   0  0  0  0  0  0  0  0  0  0  0  0
   -8.3768   -1.0422    0.2797 C   0  0  0  0  0  0  0  0  0  0  0  0
   -9.6932   -1.5480   -0.3322 C   0  0  0  0  0  0  0  0  0  0  0  0
  -10.8246   -0.5052   -0.2762 C   0  0  0  0  0  0  0  0  0  0  0  0
  -12.1010   -0.9625   -1.0011 C   0  0  0  0  0  0  0  0  0  0  0  0
  -12.7473   -2.2009   -0.3682 C   0  0  0  0  0  0  0  0  0  0  0  0
  -13.9266   -2.5302   -1.0503 O   0  0  0  0  0  0  0  0  0  0  0  0
   13.0195    0.0298    0.3432 H   0  0  0  0  0  0  0  0  0  0  0  0
   12.3804   -1.5002    1.0225 H   0  0  0  0  0  0  0  0  0  0  0  0
   12.0136    0.0757    1.8405 H   0  0  0  0  0  0  0  0  0  0  0  0
   11.0771   -0.7404   -0.9835 H   0  0  0  0  0  0  0  0  0  0  0  0
   10.7563    0.8310   -0.1851 H   0  0  0  0  0  0  0  0  0  0  0  0
    8.7345   -0.5545    0.0413 H   0  0  0  0  0  0  0  0  0  0  0  0
    9.4727   -0.2633    1.6237 H   0  0  0  0  0  0  0  0  0  0  0  0
    8.7011   -2.5850    1.4911 H   0  0  0  0  0  0  0  0  0  0  0  0
   10.4685   -2.5048    1.6628 H   0  0  0  0  0  0  0  0  0  0  0  0
    9.9585   -4.2766    0.2094 H   0  0  0  0  0  0  0  0  0  0  0  0
   10.7324   -3.0506   -0.8282 H   0  0  0  0  0  0  0  0  0  0  0  0
    7.6982   -3.6390   -0.5402 H   0  0  0  0  0  0  0  0  0  0  0  0
    8.7571   -4.3303   -1.8157 H   0  0  0  0  0  0  0  0  0  0  0  0
    6.6573   -3.4143   -2.9776 H   0  0  0  0  0  0  0  0  0  0  0  0
    7.3493   -2.1564   -4.0520 H   0  0  0  0  0  0  0  0  0  0  0  0
    5.6257   -1.8140   -1.5109 H   0  0  0  0  0  0  0  0  0  0  0  0
    5.0568   -1.5999   -3.2070 H   0  0  0  0  0  0  0  0  0  0  0  0
    6.6102    0.3555   -3.4817 H   0  0  0  0  0  0  0  0  0  0  0  0
    7.1243    0.1989   -1.7619 H   0  0  0  0  0  0  0  0  0  0  0  0
    4.2852    0.8021   -2.7594 H   0  0  0  0  0  0  0  0  0  0  0  0
    5.4611    1.9714   -2.0515 H   0  0  0  0  0  0  0  0  0  0  0  0
    5.4897    0.6453    0.0912 H   0  0  0  0  0  0  0  0  0  0  0  0
    4.1958   -0.4296   -0.5554 H   0  0  0  0  0  0  0  0  0  0  0  0
    3.9911    2.6062   -0.0731 H   0  0  0  0  0  0  0  0  0  0  0  0
    3.3378    1.2854    0.9625 H   0  0  0  0  0  0  0  0  0  0  0  0
    1.8325    0.5442   -0.9289 H   0  0  0  0  0  0  0  0  0  0  0  0
    2.5035    1.8644   -1.9545 H   0  0  0  0  0  0  0  0  0  0  0  0
    0.3811    2.5468   -1.1315 H   0  0  0  0  0  0  0  0  0  0  0  0
    1.6507    3.5896   -0.3924 H   0  0  0  0  0  0  0  0  0  0  0  0
    1.4910    2.2138    1.7343 H   0  0  0  0  0  0  0  0  0  0  0  0
    0.2345    1.1892    0.9693 H   0  0  0  0  0  0  0  0  0  0  0  0
    0.0918    4.2149    1.6002 H   0  0  0  0  0  0  0  0  0  0  0  0
   -0.7046    2.9003    2.5097 H   0  0  0  0  0  0  0  0  0  0  0  0
   -1.3204    3.8243   -0.3741 H   0  0  0  0  0  0  0  0  0  0  0  0
   -2.3199    4.0887    1.0794 H   0  0  0  0  0  0  0  0  0  0  0  0
   -1.7294    1.3635   -0.2689 H   0  0  0  0  0  0  0  0  0  0  0  0
   -3.2288    2.3414   -0.3701 H   0  0  0  0  0  0  0  0  0  0  0  0
   -3.5569    2.0864    2.1248 H   0  0  0  0  0  0  0  0  0  0  0  0
   -2.0687    1.0922    2.2098 H   0  0  0  0  0  0  0  0  0  0  0  0
   -4.0158   -0.3623    2.2142 H   0  0  0  0  0  0  0  0  0  0  0  0
   -3.0296   -0.6354    0.7480 H   0  0  0  0  0  0  0  0  0  0  0  0
   -5.4363   -0.6999    0.2198 H   0  0  0  0  0  0  0  0  0  0  0  0
   -4.6326    0.6200   -0.6515 H   0  0  0  0  0  0  0  0  0  0  0  0
   -6.8011    1.4101    0.1744 H   0  0  0  0  0  0  0  0  0  0  0  0
   -5.5146    2.3066    0.9478 H   0  0  0  0  0  0  0  0  0  0  0  0
   -7.2832    1.7414    2.5728 H   0  0  0  0  0  0  0  0  0  0  0  0
   -5.7000    1.0516    3.0158 H   0  0  0  0  0  0  0  0  0  0  0  0
   -7.3941   -0.4795    3.5905 H   0  0  0  0  0  0  0  0  0  0  0  0
   -6.4242   -1.2382    2.3032 H   0  0  0  0  0  0  0  0  0  0  0  0
   -9.2117    0.0806    1.9865 H   0  0  0  0  0  0  0  0  0  0  0  0
   -8.8896   -1.6674    2.2574 H   0  0  0  0  0  0  0  0  0  0  0  0
   -7.6180   -1.8423    0.1394 H   0  0  0  0  0  0  0  0  0  0  0  0
   -8.0621   -0.1603   -0.2956 H   0  0  0  0  0  0  0  0  0  0  0  0
   -9.9937   -2.4780    0.1932 H   0  0  0  0  0  0  0  0  0  0  0  0
   -9.4955   -1.7968   -1.3981 H   0  0  0  0  0  0  0  0  0  0  0  0
  -10.4713    0.4261   -0.7708 H   0  0  0  0  0  0  0  0  0  0  0  0
  -11.0818   -0.2657    0.7766 H   0  0  0  0  0  0  0  0  0  0  0  0
  -11.8721   -1.1668   -2.0697 H   0  0  0  0  0  0  0  0  0  0  0  0
  -12.8332   -0.1268   -0.9577 H   0  0  0  0  0  0  0  0  0  0  0  0
  -12.9627   -2.0258    0.7110 H   0  0  0  0  0  0  0  0  0  0  0  0
  -12.0654   -3.0725   -0.4325 H   0  0  0  0  0  0  0  0  0  0  0  0
  -14.6317   -1.9198   -0.7100 H   0  0  0  0  0  0  0  0  0  0  0  0
  1  2  1  0  0  0  0
  1 34  1  0  0  0  0
  1 35  1  0  0  0  0
  1 36  1  0  0  0  0
  2  3  1  0  0  0  0
  2 37  1  0  0  0  0
  2 38  1  0  0  0  0
  3  4  1  0  0  0  0
  3 39  1  0  0  0  0
  3 40  1  0  0  0  0
  4  5  1  0  0  0  0
  4 41  1  0  0  0  0
  4 42  1  0  0  0  0
  5  6  1  0  0  0  0
  5 43  1  0  0  0  0
  5 44  1  0  0  0  0
  6  7  1  0  0  0  0
  6 45  1  0  0  0  0
  6 46  1  0  0  0  0
  7  8  2  0  0  0  0
  7  9  1  0  0  0  0
  9 10  1  0  0  0  0
  9 47  1  0  0  0  0
  9 48  1  0  0  0  0
 10 11  1  0  0  0  0
 10 49  1  0  0  0  0
 10 50  1  0  0  0  0
 11 12  1  0  0  0  0
 11 51  1  0  0  0  0
 11 52  1  0  0  0  0
 12 13  1  0  0  0  0
 12 53  1  0  0  0  0
 12 54  1  0  0  0  0
 13 14  1  0  0  0  0
 13 55  1  0  0  0  0
 13 56  1  0  0  0  0
 14 15  1  0  0  0  0
 14 57  1  0  0  0  0
 14 58  1  0  0  0  0
 15 16  1  0  0  0  0
 15 59  1  0  0  0  0
 15 60  1  0  0  0  0
 16 17  1  0  0  0  0
 16 61  1  0  0  0  0
 16 62  1  0  0  0  0
 17 18  1  0  0  0  0
 17 63  1  0  0  0  0
 17 64  1  0  0  0  0
 18 19  1  0  0  0  0
 18 65  1  0  0  0  0
 18 66  1  0  0  0  0
 19 20  1  0  0  0  0
 19 67  1  0  0  0  0
 19 68  1  0  0  0  0
 20 21  1  0  0  0  0
 20 69  1  0  0  0  0
 20 70  1  0  0  0  0
 21 22  1  0  0  0  0
 21 71  1  0  0  0  0
 21 72  1  0  0  0  0
 22 23  1  0  0  0  0
 22 73  1  0  0  0  0
 22 74  1  0  0  0  0
 23 24  1  0  0  0  0
 23 75  1  0  0  0  0
 23 76  1  0  0  0  0
 24 25  1  0  0  0  0
 24 77  1  0  0  0  0
 24 78  1  0  0  0  0
 25 26  1  0  0  0  0
 25 79  1  0  0  0  0
 25 80  1  0  0  0  0
 26 27  1  0  0  0  0
 26 81  1  0  0  0  0
 26 82  1  0  0  0  0
 27 28  1  0  0  0  0
 27 83  1  0  0  0  0
 27 84  1  0  0  0  0
 28 29  1  0  0  0  0
 28 85  1  0  0  0  0
 28 86  1  0  0  0  0
 29 30  1  0  0  0  0
 29 87  1  0  0  0  0
 29 88  1  0  0  0  0
 30 31  1  0  0  0  0
 30 89  1  0  0  0  0
 30 90  1  0  0  0  0
 31 32  1  0  0  0  0
 31 91  1  0  0  0  0
 31 92  1  0  0  0  0
 32 33  1  0  0  0  0
 32 93  1  0  0  0  0
 32 94  1  0  0  0  0
 33 95  1  0  0  0  0
M  END
>  <IDENTIFIER>
CNP0483063.0

>  <Energy>
292.794

$$$$
