
 OpenBabel09102513063D

 37 40  0  0  0  0  0  0  0  0999 V2000
    4.3408    1.0777   -1.8275 O   0  0  0  0  0  0  0  0  0  0  0  0
    4.6496    0.4093   -0.8505 C   0  0  0  0  0  0  0  0  0  0  0  0
    3.6966   -0.1544   -0.0581 O   0  0  0  0  0  0  0  0  0  0  0  0
    2.3765    0.1739   -0.0377 C   0  0  0  0  0  0  0  0  0  0  0  0
    1.9222    1.4880   -0.3395 C   0  0  0  0  0  0  0  0  0  0  0  0
    0.5531    1.7937   -0.3262 C   0  0  0  0  0  0  0  0  0  0  0  0
   -0.3373    0.7730   -0.0189 C   0  0  0  0  0  0  0  0  0  0  0  0
   -1.7746    0.7572    0.0589 C   0  0  0  0  0  0  0  0  0  0  0  0
   -2.4995    1.7331   -0.0282 O   0  0  0  0  0  0  0  0  0  0  0  0
   -2.1191   -0.6399    0.4002 C   0  0  0  0  0  0  0  0  0  0  0  0
   -3.3145   -1.2493    0.5726 C   0  0  0  0  0  0  0  0  0  0  0  0
   -4.6927   -0.7128    0.3652 C   0  0  0  0  0  0  0  0  0  0  0  0
   -5.0011    0.3450   -0.5139 C   0  0  0  0  0  0  0  0  0  0  0  0
   -6.3201    0.7793   -0.6737 C   0  0  0  0  0  0  0  0  0  0  0  0
   -7.3529    0.1616    0.0303 C   0  0  0  0  0  0  0  0  0  0  0  0
   -7.0706   -0.9042    0.8866 C   0  0  0  0  0  0  0  0  0  0  0  0
   -8.4876   -1.7646    1.8350 Br  0  0  0  0  0  0  0  0  0  0  0  0
   -5.7513   -1.3435    1.0463 C   0  0  0  0  0  0  0  0  0  0  0  0
   -0.9533   -1.3259    0.5646 O   0  0  0  0  0  0  0  0  0  0  0  0
    0.0803   -0.4967    0.2924 C   0  0  0  0  0  0  0  0  0  0  0  0
    1.4372   -0.8241    0.3010 C   0  0  0  0  0  0  0  0  0  0  0  0
    6.0728    0.1564   -0.5911 C   0  0  0  0  0  0  0  0  0  0  0  0
    6.5991   -0.5482    0.4722 C   0  0  0  0  0  0  0  0  0  0  0  0
    7.9652   -0.5187    0.2973 C   0  0  0  0  0  0  0  0  0  0  0  0
    8.1901    0.1978   -0.8599 C   0  0  0  0  0  0  0  0  0  0  0  0
    7.0427    0.5897   -1.3655 O   0  0  0  0  0  0  0  0  0  0  0  0
    2.6191    2.2787   -0.5780 H   0  0  0  0  0  0  0  0  0  0  0  0
    0.2020    2.7910   -0.5576 H   0  0  0  0  0  0  0  0  0  0  0  0
   -3.2643   -2.2796    0.9166 H   0  0  0  0  0  0  0  0  0  0  0  0
   -4.2531    0.8219   -1.1168 H   0  0  0  0  0  0  0  0  0  0  0  0
   -6.5422    1.5906   -1.3553 H   0  0  0  0  0  0  0  0  0  0  0  0
   -8.3719    0.5026   -0.1008 H   0  0  0  0  0  0  0  0  0  0  0  0
   -5.5521   -2.1735    1.7134 H   0  0  0  0  0  0  0  0  0  0  0  0
    1.7572   -1.8300    0.5415 H   0  0  0  0  0  0  0  0  0  0  0  0
    6.0571   -1.0225    1.2797 H   0  0  0  0  0  0  0  0  0  0  0  0
    8.7129   -0.9664    0.9382 H   0  0  0  0  0  0  0  0  0  0  0  0
    9.1554    0.4143   -1.2980 H   0  0  0  0  0  0  0  0  0  0  0  0
  1  2  2  0  0  0  0
  2  3  1  0  0  0  0
  2 22  1  0  0  0  0
  3  4  1  0  0  0  0
  4  5  2  0  0  0  0
  5  6  1  0  0  0  0
  5 27  1  0  0  0  0
  6  7  2  0  0  0  0
  6 28  1  0  0  0  0
  7  8  1  0  0  0  0
  8  9  2  0  0  0  0
  8 10  1  0  0  0  0
 10 11  2  3  0  0  0
 10 19  1  0  0  0  0
 11 12  1  0  0  0  0
 11 29  1  0  0  0  0
 12 13  2  0  0  0  0
 13 14  1  0  0  0  0
 13 30  1  0  0  0  0
 14 15  2  0  0  0  0
 14 31  1  0  0  0  0
 15 16  1  0  0  0  0
 15 32  1  0  0  0  0
 16 17  1  0  0  0  0
 16 18  2  0  0  0  0
 18 12  1  0  0  0  0
 18 33  1  0  0  0  0
 19 20  1  0  0  0  0
 20 21  2  0  0  0  0
 20  7  1  0  0  0  0
 21  4  1  0  0  0  0
 21 34  1  0  0  0  0
 22 23  2  0  0  0  0
 23 24  1  0  0  0  0
 23 35  1  0  0  0  0
 24 25  2  0  0  0  0
 24 36  1  0  0  0  0
 25 26  1  0  0  0  0
 25 37  1  0  0  0  0
 26 22  1  0  0  0  0
M  END
>  <IDENTIFIER>
CNP0051348.0

>  <Energy>
532.156

$$$$
