
 OpenBabel09112511003D

 38 39  0  0  0  0  0  0  0  0999 V2000
   -2.8124   -0.4545    1.8494 C   0  0  0  0  0  0  0  0  0  0  0  0
   -2.6191    0.0860    0.6290 C   0  0  0  0  0  0  0  0  0  0  0  0
   -3.2938    1.4095    0.3318 C   0  0  0  0  0  0  0  0  0  0  0  0
   -1.8136   -0.5934   -0.4991 C   0  0  2  0  0  0  0  0  0  0  0  0
   -1.1989   -1.9767   -0.1490 C   0  0  0  0  0  0  0  0  0  0  0  0
    0.0302   -1.8622    0.7870 C   0  0  0  0  0  0  0  0  0  0  0  0
    1.1275   -0.9340    0.2023 C   0  0  2  0  0  0  0  0  0  0  0  0
    1.7534   -1.5916   -1.0692 C   0  0  0  0  0  0  0  0  0  0  0  0
    2.2444   -0.7250    1.2493 C   0  0  0  0  0  0  0  0  0  0  0  0
    3.2684    0.2330    0.7046 C   0  0  0  0  0  0  0  0  0  0  0  0
    4.4602    0.0243    0.8666 O   0  0  0  0  0  0  0  0  0  0  0  0
    2.8203    1.3931   -0.0958 C   0  0  0  0  0  0  0  0  0  0  0  0
    1.5283    1.5247   -0.4815 C   0  0  0  0  0  0  0  0  0  0  0  0
    1.1179    2.7538   -1.2562 C   0  0  0  0  0  0  0  0  0  0  0  0
    0.4818    0.4724   -0.0812 C   0  0  1  0  0  0  0  0  0  0  0  0
   -0.7022    0.3310   -1.0723 C   0  0  0  0  0  0  0  0  0  0  0  0
   -3.4084    0.0590    2.5980 H   0  0  0  0  0  0  0  0  0  0  0  0
   -2.4145   -1.4125    2.1476 H   0  0  0  0  0  0  0  0  0  0  0  0
   -3.9002    1.7793    1.1865 H   0  0  0  0  0  0  0  0  0  0  0  0
   -3.9739    1.2873   -0.5375 H   0  0  0  0  0  0  0  0  0  0  0  0
   -2.5472    2.1953    0.1052 H   0  0  0  0  0  0  0  0  0  0  0  0
   -2.5595   -0.7603   -1.3072 H   0  0  0  0  0  0  0  0  0  0  0  0
   -0.8834   -2.4687   -1.0904 H   0  0  0  0  0  0  0  0  0  0  0  0
   -1.9686   -2.6468    0.2883 H   0  0  0  0  0  0  0  0  0  0  0  0
    0.4455   -2.8751    0.9829 H   0  0  0  0  0  0  0  0  0  0  0  0
   -0.2838   -1.4488    1.7650 H   0  0  0  0  0  0  0  0  0  0  0  0
    2.2182   -2.5646   -0.8007 H   0  0  0  0  0  0  0  0  0  0  0  0
    2.5409   -0.9550   -1.5212 H   0  0  0  0  0  0  0  0  0  0  0  0
    1.0231   -1.7905   -1.8736 H   0  0  0  0  0  0  0  0  0  0  0  0
    2.7229   -1.6782    1.5676 H   0  0  0  0  0  0  0  0  0  0  0  0
    1.7942   -0.2576    2.1528 H   0  0  0  0  0  0  0  0  0  0  0  0
    3.5607    2.1331   -0.3890 H   0  0  0  0  0  0  0  0  0  0  0  0
    1.9716    3.4423   -1.4344 H   0  0  0  0  0  0  0  0  0  0  0  0
    0.3445    3.3065   -0.6825 H   0  0  0  0  0  0  0  0  0  0  0  0
    0.7074    2.4629   -2.2449 H   0  0  0  0  0  0  0  0  0  0  0  0
    0.0456    0.8672    0.8654 H   0  0  0  0  0  0  0  0  0  0  0  0
   -0.3319   -0.0759   -2.0350 H   0  0  0  0  0  0  0  0  0  0  0  0
   -1.1420    1.3138   -1.3232 H   0  0  0  0  0  0  0  0  0  0  0  0
  1  2  2  0  0  0  0
  1 17  1  0  0  0  0
  1 18  1  0  0  0  0
  2  3  1  0  0  0  0
  3 19  1  0  0  0  0
  3 20  1  0  0  0  0
  3 21  1  0  0  0  0
  4  2  1  0  0  0  0
  4  5  1  0  0  0  0
  4 22  1  6  0  0  0
  5  6  1  0  0  0  0
  5 23  1  0  0  0  0
  5 24  1  0  0  0  0
  6  7  1  0  0  0  0
  6 25  1  0  0  0  0
  6 26  1  0  0  0  0
  7  8  1  6  0  0  0
  7  9  1  0  0  0  0
  8 27  1  0  0  0  0
  8 28  1  0  0  0  0
  8 29  1  0  0  0  0
  9 10  1  0  0  0  0
  9 30  1  0  0  0  0
  9 31  1  0  0  0  0
 10 11  2  0  0  0  0
 10 12  1  0  0  0  0
 12 13  2  0  0  0  0
 12 32  1  0  0  0  0
 13 14  1  0  0  0  0
 13 15  1  0  0  0  0
 14 33  1  0  0  0  0
 14 34  1  0  0  0  0
 14 35  1  0  0  0  0
 15 16  1  0  0  0  0
 15  7  1  0  0  0  0
 15 36  1  1  0  0  0
 16  4  1  0  0  0  0
 16 37  1  0  0  0  0
 16 38  1  0  0  0  0
M  END
>  <IDENTIFIER>
CNP0168704.2

>  <Energy>
227.36

$$$$
