
 OpenBabel09132500373D

 27 27  0  0  0  0  0  0  0  0999 V2000
   -3.5842    0.9514    1.0665 C   0  0  0  0  0  0  0  0  0  0  0  0
   -3.4508   -0.4767    0.5361 C   0  0  0  0  0  0  0  0  0  0  0  0
   -2.0179   -0.8330    0.1072 C   0  0  0  0  0  0  0  0  0  0  0  0
   -1.5259   -0.0019   -1.0907 C   0  0  0  0  0  0  0  0  0  0  0  0
   -0.2708   -0.4124   -1.5046 O   0  0  0  0  0  0  0  0  0  0  0  0
    0.9112   -0.2312   -0.8560 C   0  0  0  0  0  0  0  0  0  0  0  0
    1.0309    0.5362    0.3214 C   0  0  0  0  0  0  0  0  0  0  0  0
    2.2763    0.6926    0.9383 C   0  0  0  0  0  0  0  0  0  0  0  0
    3.4180    0.0921    0.3904 C   0  0  0  0  0  0  0  0  0  0  0  0
    4.6792    0.2543    1.0147 N   0  0  0  0  0  0  0  0  0  0  0  0
    3.3024   -0.6671   -0.7816 C   0  0  0  0  0  0  0  0  0  0  0  0
    2.0578   -0.8254   -1.3981 C   0  0  0  0  0  0  0  0  0  0  0  0
   -4.6291    1.1236    1.4003 H   0  0  0  0  0  0  0  0  0  0  0  0
   -3.3531    1.6969    0.2790 H   0  0  0  0  0  0  0  0  0  0  0  0
   -2.9048    1.1058    1.9314 H   0  0  0  0  0  0  0  0  0  0  0  0
   -4.1476   -0.6220   -0.3178 H   0  0  0  0  0  0  0  0  0  0  0  0
   -3.7510   -1.1728    1.3490 H   0  0  0  0  0  0  0  0  0  0  0  0
   -2.0065   -1.9042   -0.1905 H   0  0  0  0  0  0  0  0  0  0  0  0
   -1.3403   -0.7181    0.9779 H   0  0  0  0  0  0  0  0  0  0  0  0
   -1.5086    1.0860   -0.8740 H   0  0  0  0  0  0  0  0  0  0  0  0
   -2.2310   -0.1674   -1.9329 H   0  0  0  0  0  0  0  0  0  0  0  0
    0.1740    1.0210    0.7675 H   0  0  0  0  0  0  0  0  0  0  0  0
    2.3511    1.2844    1.8419 H   0  0  0  0  0  0  0  0  0  0  0  0
    4.7718    0.8120    1.8764 H   0  0  0  0  0  0  0  0  0  0  0  0
    5.5236   -0.1812    0.6154 H   0  0  0  0  0  0  0  0  0  0  0  0
    4.1760   -1.1351   -1.2180 H   0  0  0  0  0  0  0  0  0  0  0  0
    1.9843   -1.4136   -2.3043 H   0  0  0  0  0  0  0  0  0  0  0  0
  1  2  1  0  0  0  0
  1 13  1  0  0  0  0
  1 14  1  0  0  0  0
  1 15  1  0  0  0  0
  2  3  1  0  0  0  0
  2 16  1  0  0  0  0
  2 17  1  0  0  0  0
  3  4  1  0  0  0  0
  3 18  1  0  0  0  0
  3 19  1  0  0  0  0
  4  5  1  0  0  0  0
  4 20  1  0  0  0  0
  4 21  1  0  0  0  0
  5  6  1  0  0  0  0
  6  7  2  0  0  0  0
  7  8  1  0  0  0  0
  7 22  1  0  0  0  0
  8  9  2  0  0  0  0
  8 23  1  0  0  0  0
  9 10  1  0  0  0  0
  9 11  1  0  0  0  0
 10 24  1  0  0  0  0
 10 25  1  0  0  0  0
 11 12  2  0  0  0  0
 11 26  1  0  0  0  0
 12  6  1  0  0  0  0
 12 27  1  0  0  0  0
M  END
>  <IDENTIFIER>
CNP0043525.0

>  <Energy>
89.6616

$$$$
