
 OpenBabel09132506263D

 82 87  0  0  0  0  0  0  0  0999 V2000
    6.2695    3.4240    0.6579 C   0  0  0  0  0  0  0  0  0  0  0  0
    5.5997    2.5434   -0.1655 O   0  0  0  0  0  0  0  0  0  0  0  0
    5.8133    1.2015   -0.1646 C   0  0  0  0  0  0  0  0  0  0  0  0
    6.6230    0.7146    0.6136 O   0  0  0  0  0  0  0  0  0  0  0  0
    5.0856    0.3325   -1.1901 C   0  0  1  0  0  0  0  0  0  0  0  0
    5.5373    0.8114   -2.5859 C   0  0  0  0  0  0  0  0  0  0  0  0
    5.4130   -1.1816   -1.0507 C   0  0  0  0  0  0  0  0  0  0  0  0
    4.8907   -1.7594    0.2781 C   0  0  0  0  0  0  0  0  0  0  0  0
    3.3579   -1.5731    0.4855 C   0  0  2  0  0  0  0  0  0  0  0  0
    3.0772   -1.9447    1.9704 C   0  0  0  0  0  0  0  0  0  0  0  0
    2.5561   -2.5067   -0.4705 C   0  0  0  0  0  0  0  0  0  0  0  0
    1.0406   -2.4127   -0.2038 C   0  0  0  0  0  0  0  0  0  0  0  0
    0.4549   -0.9643   -0.3599 C   0  0  2  0  0  0  0  0  0  0  0  0
    0.3834   -0.7026   -1.9064 C   0  0  0  0  0  0  0  0  0  0  0  0
    1.4216    0.1001    0.2313 C   0  0  0  0  0  0  0  0  0  0  0  0
    0.9366    1.3000    0.6322 C   0  0  0  0  0  0  0  0  0  0  0  0
   -0.5097    1.6350    0.6290 C   0  0  0  0  0  0  0  0  0  0  0  0
   -0.8461    2.7143    1.0860 O   0  0  0  0  0  0  0  0  0  0  0  0
   -1.5402    0.6330    0.1081 C   0  0  2  0  0  0  0  0  0  0  0  0
   -3.0770    0.9431    0.4202 C   0  0  1  0  0  0  0  0  0  0  0  0
   -3.3733    1.1405    1.9373 C   0  0  0  0  0  0  0  0  0  0  0  0
   -3.4710    2.2863   -0.2991 C   0  0  0  0  0  0  0  0  0  0  0  0
   -4.9583    2.4404   -0.3910 C   0  0  0  0  0  0  0  0  0  0  0  0
   -5.8696    1.4233   -0.2800 C   0  0  0  0  0  0  0  0  0  0  0  0
   -7.0731    1.9349   -0.4072 O   0  0  0  0  0  0  0  0  0  0  0  0
   -7.0091    3.2213   -0.6173 N   0  0  0  0  0  0  0  0  0  0  0  0
   -5.7052    3.5697   -0.6258 C   0  0  0  0  0  0  0  0  0  0  0  0
   -5.5324   -0.0362   -0.0894 C   0  0  0  0  0  0  0  0  0  0  0  0
   -6.2229   -0.8276   -1.2284 C   0  0  0  0  0  0  0  0  0  0  0  0
   -6.1394   -0.5330    1.2469 C   0  0  0  0  0  0  0  0  0  0  0  0
   -3.9553   -0.2154   -0.2130 C   0  0  2  0  0  0  0  0  0  0  0  0
   -3.4659   -1.6195    0.2281 C   0  0  0  0  0  0  0  0  0  0  0  0
   -2.0185   -1.8510   -0.2280 C   0  0  0  0  0  0  0  0  0  0  0  0
   -0.9989   -0.8282    0.3598 C   0  0  1  0  0  0  0  0  0  0  0  0
   -0.8559   -1.1100    1.8961 C   0  0  0  0  0  0  0  0  0  0  0  0
    2.9520   -0.0856    0.2352 C   0  0  2  0  0  0  0  0  0  0  0  0
    3.5504    0.4989   -1.0750 C   0  0  0  0  0  0  0  0  0  0  0  0
    5.9103    4.4544    0.4610 H   0  0  0  0  0  0  0  0  0  0  0  0
    7.3613    3.3815    0.4520 H   0  0  0  0  0  0  0  0  0  0  0  0
    6.0807    3.1732    1.7236 H   0  0  0  0  0  0  0  0  0  0  0  0
    6.6362    0.6917   -2.7027 H   0  0  0  0  0  0  0  0  0  0  0  0
    5.2834    1.8830   -2.7394 H   0  0  0  0  0  0  0  0  0  0  0  0
    5.0385    0.2250   -3.3878 H   0  0  0  0  0  0  0  0  0  0  0  0
    6.5111   -1.3437   -1.1185 H   0  0  0  0  0  0  0  0  0  0  0  0
    4.9503   -1.7443   -1.8893 H   0  0  0  0  0  0  0  0  0  0  0  0
    5.4284   -1.2561    1.1046 H   0  0  0  0  0  0  0  0  0  0  0  0
    5.1565   -2.8372    0.3476 H   0  0  0  0  0  0  0  0  0  0  0  0
    3.3247   -3.0116    2.1604 H   0  0  0  0  0  0  0  0  0  0  0  0
    2.0305   -1.7588    2.2751 H   0  0  0  0  0  0  0  0  0  0  0  0
    3.6959   -1.3221    2.6522 H   0  0  0  0  0  0  0  0  0  0  0  0
    2.8689   -3.5618   -0.3082 H   0  0  0  0  0  0  0  0  0  0  0  0
    2.7730   -2.2761   -1.5291 H   0  0  0  0  0  0  0  0  0  0  0  0
    0.9009   -2.8158    0.8045 H   0  0  0  0  0  0  0  0  0  0  0  0
    0.4937   -3.1228   -0.8617 H   0  0  0  0  0  0  0  0  0  0  0  0
    1.3271   -0.9063   -2.4246 H   0  0  0  0  0  0  0  0  0  0  0  0
    0.1416    0.3463   -2.1649 H   0  0  0  0  0  0  0  0  0  0  0  0
   -0.3232   -1.3753   -2.4222 H   0  0  0  0  0  0  0  0  0  0  0  0
    1.6240    2.0587    0.9980 H   0  0  0  0  0  0  0  0  0  0  0  0
   -1.5198    0.7312   -0.9888 H   0  0  0  0  0  0  0  0  0  0  0  0
   -2.6744    1.8591    2.4045 H   0  0  0  0  0  0  0  0  0  0  0  0
   -3.3730    0.2176    2.5282 H   0  0  0  0  0  0  0  0  0  0  0  0
   -4.3711    1.5922    2.0898 H   0  0  0  0  0  0  0  0  0  0  0  0
   -3.0961    2.3288   -1.3446 H   0  0  0  0  0  0  0  0  0  0  0  0
   -3.0478    3.1578    0.2398 H   0  0  0  0  0  0  0  0  0  0  0  0
   -5.3351    4.5743   -0.7795 H   0  0  0  0  0  0  0  0  0  0  0  0
   -7.3243   -0.6755   -1.2038 H   0  0  0  0  0  0  0  0  0  0  0  0
   -6.0424   -1.9180   -1.1441 H   0  0  0  0  0  0  0  0  0  0  0  0
   -5.8598   -0.4897   -2.2234 H   0  0  0  0  0  0  0  0  0  0  0  0
   -7.2409   -0.3801    1.2465 H   0  0  0  0  0  0  0  0  0  0  0  0
   -5.7518   -0.0188    2.1386 H   0  0  0  0  0  0  0  0  0  0  0  0
   -5.9606   -1.6201    1.3811 H   0  0  0  0  0  0  0  0  0  0  0  0
   -3.7429   -0.1409   -1.3058 H   0  0  0  0  0  0  0  0  0  0  0  0
   -4.0754   -2.4062   -0.2598 H   0  0  0  0  0  0  0  0  0  0  0  0
   -3.5748   -1.7596    1.3207 H   0  0  0  0  0  0  0  0  0  0  0  0
   -2.0562   -1.7830   -1.3295 H   0  0  0  0  0  0  0  0  0  0  0  0
   -1.7138   -2.8885    0.0285 H   0  0  0  0  0  0  0  0  0  0  0  0
   -0.5323   -2.1410    2.1165 H   0  0  0  0  0  0  0  0  0  0  0  0
   -1.7924   -1.0455    2.4474 H   0  0  0  0  0  0  0  0  0  0  0  0
   -0.1444   -0.4181    2.3883 H   0  0  0  0  0  0  0  0  0  0  0  0
    3.3990    0.5198    1.0573 H   0  0  0  0  0  0  0  0  0  0  0  0
    3.2759    1.5737   -1.1659 H   0  0  0  0  0  0  0  0  0  0  0  0
    3.1187   -0.0146   -1.9432 H   0  0  0  0  0  0  0  0  0  0  0  0
  1  2  1  0  0  0  0
  1 38  1  0  0  0  0
  1 39  1  0  0  0  0
  1 40  1  0  0  0  0
  2  3  1  0  0  0  0
  3  4  2  0  0  0  0
  5  3  1  1  0  0  0
  5  6  1  0  0  0  0
  5  7  1  0  0  0  0
  6 41  1  0  0  0  0
  6 42  1  0  0  0  0
  6 43  1  0  0  0  0
  7  8  1  0  0  0  0
  7 44  1  0  0  0  0
  7 45  1  0  0  0  0
  8  9  1  0  0  0  0
  8 46  1  0  0  0  0
  8 47  1  0  0  0  0
  9 10  1  1  0  0  0
  9 11  1  0  0  0  0
 10 48  1  0  0  0  0
 10 49  1  0  0  0  0
 10 50  1  0  0  0  0
 11 12  1  0  0  0  0
 11 51  1  0  0  0  0
 11 52  1  0  0  0  0
 12 13  1  0  0  0  0
 12 53  1  0  0  0  0
 12 54  1  0  0  0  0
 13 14  1  6  0  0  0
 13 15  1  0  0  0  0
 14 55  1  0  0  0  0
 14 56  1  0  0  0  0
 14 57  1  0  0  0  0
 15 16  2  0  0  0  0
 15 36  1  0  0  0  0
 16 17  1  0  0  0  0
 16 58  1  0  0  0  0
 17 18  2  0  0  0  0
 19 17  1  0  0  0  0
 19 20  1  0  0  0  0
 19 59  1  6  0  0  0
 20 21  1  1  0  0  0
 20 22  1  0  0  0  0
 21 60  1  0  0  0  0
 21 61  1  0  0  0  0
 21 62  1  0  0  0  0
 22 23  1  0  0  0  0
 22 63  1  0  0  0  0
 22 64  1  0  0  0  0
 23 24  2  0  0  0  0
 24 25  1  0  0  0  0
 24 28  1  0  0  0  0
 25 26  1  0  0  0  0
 26 27  2  0  0  0  0
 27 23  1  0  0  0  0
 27 65  1  0  0  0  0
 28 29  1  0  0  0  0
 28 30  1  0  0  0  0
 28 31  1  0  0  0  0
 29 66  1  0  0  0  0
 29 67  1  0  0  0  0
 29 68  1  0  0  0  0
 30 69  1  0  0  0  0
 30 70  1  0  0  0  0
 30 71  1  0  0  0  0
 31 32  1  0  0  0  0
 31 20  1  0  0  0  0
 31 72  1  6  0  0  0
 32 33  1  0  0  0  0
 32 73  1  0  0  0  0
 32 74  1  0  0  0  0
 33 34  1  0  0  0  0
 33 75  1  0  0  0  0
 33 76  1  0  0  0  0
 34 35  1  1  0  0  0
 34 13  1  0  0  0  0
 34 19  1  0  0  0  0
 35 77  1  0  0  0  0
 35 78  1  0  0  0  0
 35 79  1  0  0  0  0
 36 37  1  0  0  0  0
 36  9  1  0  0  0  0
 36 80  1  1  0  0  0
 37  5  1  0  0  0  0
 37 81  1  0  0  0  0
 37 82  1  0  0  0  0
M  END
>  <IDENTIFIER>
CNP0309011.3

>  <Energy>
830.844

$$$$
