
 OpenBabel09122511433D

 27 28  0  0  0  0  0  0  0  0999 V2000
    4.7370    0.8270    0.6588 C   0  0  0  0  0  0  0  0  0  0  0  0
    3.4254    0.8972    1.0807 O   0  0  0  0  0  0  0  0  0  0  0  0
    2.3619    0.3225    0.4608 C   0  0  0  0  0  0  0  0  0  0  0  0
    2.4919   -0.4438   -0.7172 C   0  0  0  0  0  0  0  0  0  0  0  0
    1.3635   -1.0033   -1.3248 C   0  0  0  0  0  0  0  0  0  0  0  0
    0.0971   -0.8098   -0.7674 C   0  0  0  0  0  0  0  0  0  0  0  0
   -1.0006   -1.3163   -1.3870 O   0  0  0  0  0  0  0  0  0  0  0  0
   -2.3143   -0.9879   -1.0623 C   0  0  0  0  0  0  0  0  0  0  0  0
   -2.4066    0.2666   -0.1529 C   0  0  1  0  0  0  0  0  0  0  0  0
   -3.8325    0.4808    0.3157 C   0  0  0  0  0  0  0  0  0  0  0  0
   -4.1078    0.4606    1.5058 O   0  0  0  0  0  0  0  0  0  0  0  0
   -4.8186    0.7101   -0.5780 O   0  0  0  0  0  0  0  0  0  0  0  0
   -1.4143    0.0887    1.0054 C   0  0  0  0  0  0  0  0  0  0  0  0
   -0.0387   -0.0707    0.4200 C   0  0  0  0  0  0  0  0  0  0  0  0
    1.0903    0.5032    1.0211 C   0  0  0  0  0  0  0  0  0  0  0  0
    5.3751    1.3999    1.3622 H   0  0  0  0  0  0  0  0  0  0  0  0
    4.8386    1.2727   -0.3538 H   0  0  0  0  0  0  0  0  0  0  0  0
    5.0807   -0.2293    0.6475 H   0  0  0  0  0  0  0  0  0  0  0  0
    3.4582   -0.6052   -1.1759 H   0  0  0  0  0  0  0  0  0  0  0  0
    1.4729   -1.5755   -2.2371 H   0  0  0  0  0  0  0  0  0  0  0  0
   -2.7668   -1.8680   -0.5565 H   0  0  0  0  0  0  0  0  0  0  0  0
   -2.8821   -0.7997   -1.9975 H   0  0  0  0  0  0  0  0  0  0  0  0
   -2.0944    1.1670   -0.7289 H   0  0  0  0  0  0  0  0  0  0  0  0
   -4.6459    0.7571   -1.5284 H   0  0  0  0  0  0  0  0  0  0  0  0
   -1.6789   -0.8414    1.5560 H   0  0  0  0  0  0  0  0  0  0  0  0
   -1.4446    0.9408    1.7193 H   0  0  0  0  0  0  0  0  0  0  0  0
    0.9851    1.0831    1.9301 H   0  0  0  0  0  0  0  0  0  0  0  0
  1  2  1  0  0  0  0
  1 16  1  0  0  0  0
  1 17  1  0  0  0  0
  1 18  1  0  0  0  0
  2  3  1  0  0  0  0
  3  4  2  0  0  0  0
  4  5  1  0  0  0  0
  4 19  1  0  0  0  0
  5  6  2  0  0  0  0
  5 20  1  0  0  0  0
  6  7  1  0  0  0  0
  7  8  1  0  0  0  0
  8  9  1  0  0  0  0
  8 21  1  0  0  0  0
  8 22  1  0  0  0  0
  9 10  1  0  0  0  0
  9 13  1  0  0  0  0
  9 23  1  6  0  0  0
 10 11  2  0  0  0  0
 10 12  1  0  0  0  0
 12 24  1  0  0  0  0
 13 14  1  0  0  0  0
 13 25  1  0  0  0  0
 13 26  1  0  0  0  0
 14 15  2  0  0  0  0
 14  6  1  0  0  0  0
 15  3  1  0  0  0  0
 15 27  1  0  0  0  0
M  END
>  <IDENTIFIER>
CNP0390812.2

>  <Energy>
151.689

$$$$
