
 OpenBabel09072506423D

 71 74  0  0  0  0  0  0  0  0999 V2000
    6.2461   -2.3202   -2.0420 C   0  0  0  0  0  0  0  0  0  0  0  0
    6.3935   -1.2006   -1.0106 C   0  0  2  0  0  0  0  0  0  0  0  0
    5.1566   -0.9470   -0.3263 O   0  0  0  0  0  0  0  0  0  0  0  0
    4.4192    0.1517   -0.8363 C   0  0  1  0  0  0  0  0  0  0  0  0
    3.2817    0.3469   -0.0198 O   0  0  0  0  0  0  0  0  0  0  0  0
    2.0797   -0.1508   -0.5662 C   0  0  0  0  0  0  0  0  0  0  0  0
    1.0480   -0.2540    0.5798 C   0  0  1  0  0  0  0  0  0  0  0  0
   -0.2406   -0.5565    0.0530 O   0  0  0  0  0  0  0  0  0  0  0  0
   -1.2332   -0.5202    1.0772 C   0  0  1  0  0  0  0  0  0  0  0  0
   -2.5077   -0.7765    0.5069 O   0  0  0  0  0  0  0  0  0  0  0  0
   -3.2535    0.3962    0.1836 C   0  0  1  0  0  0  0  0  0  0  0  0
   -3.4071    0.4975   -1.3624 C   0  0  0  0  0  0  0  0  0  0  0  0
   -4.8900    0.2525   -1.7674 C   0  0  1  0  0  0  0  0  0  0  0  0
   -5.2642   -1.1440   -1.2120 C   0  0  0  0  0  0  0  0  0  0  0  0
   -5.3187   -1.0700    0.3337 C   0  0  0  0  0  0  0  0  0  0  0  0
   -4.6838    0.2729    0.8051 C   0  0  1  0  0  0  0  0  0  0  0  0
   -4.6483    0.3177    2.3364 C   0  0  0  0  0  0  0  0  0  0  0  0
   -5.5026    1.3616    0.3597 O   0  0  0  0  0  0  0  0  0  0  0  0
   -5.7761    1.3384   -1.0495 C   0  0  0  0  0  0  0  0  0  0  0  0
   -5.4972    2.7500   -1.6090 C   0  0  0  0  0  0  0  0  0  0  0  0
   -7.2848    1.0684   -1.2712 C   0  0  0  0  0  0  0  0  0  0  0  0
   -0.9552   -1.6392    2.1077 C   0  0  2  0  0  0  0  0  0  0  0  0
   -1.9360   -1.6730    3.1129 O   0  0  0  0  0  0  0  0  0  0  0  0
    0.4378   -1.4435    2.7237 C   0  0  1  0  0  0  0  0  0  0  0  0
    0.7483   -2.4754    3.6265 O   0  0  0  0  0  0  0  0  0  0  0  0
    1.4811   -1.3476    1.6034 C   0  0  2  0  0  0  0  0  0  0  0  0
    2.7542   -1.1000    2.1472 O   0  0  0  0  0  0  0  0  0  0  0  0
    5.2256    1.4825   -0.7707 C   0  0  2  0  0  0  0  0  0  0  0  0
    4.8096    2.3327   -1.8138 O   0  0  0  0  0  0  0  0  0  0  0  0
    6.7514    1.2499   -0.7602 C   0  0  2  0  0  0  0  0  0  0  0  0
    7.4578    2.4165   -1.1039 O   0  0  0  0  0  0  0  0  0  0  0  0
    7.0724    0.0511   -1.6480 C   0  0  1  0  0  0  0  0  0  0  0  0
    8.4591   -0.1502   -1.7878 O   0  0  0  0  0  0  0  0  0  0  0  0
    5.8341   -3.2321   -1.5632 H   0  0  0  0  0  0  0  0  0  0  0  0
    7.2366   -2.5680   -2.4827 H   0  0  0  0  0  0  0  0  0  0  0  0
    5.5644   -2.0018   -2.8590 H   0  0  0  0  0  0  0  0  0  0  0  0
    7.0783   -1.5574   -0.2102 H   0  0  0  0  0  0  0  0  0  0  0  0
    4.1616   -0.0848   -1.8990 H   0  0  0  0  0  0  0  0  0  0  0  0
    2.2088   -1.1551   -1.0344 H   0  0  0  0  0  0  0  0  0  0  0  0
    1.7070    0.5734   -1.3238 H   0  0  0  0  0  0  0  0  0  0  0  0
    1.0172    0.7491    1.0684 H   0  0  0  0  0  0  0  0  0  0  0  0
   -1.2084    0.4535    1.6237 H   0  0  0  0  0  0  0  0  0  0  0  0
   -2.7896    1.3444    0.5418 H   0  0  0  0  0  0  0  0  0  0  0  0
   -2.7323   -0.2298   -1.8645 H   0  0  0  0  0  0  0  0  0  0  0  0
   -3.0640    1.4889   -1.7172 H   0  0  0  0  0  0  0  0  0  0  0  0
   -4.9983    0.2752   -2.8734 H   0  0  0  0  0  0  0  0  0  0  0  0
   -4.4820   -1.8634   -1.5426 H   0  0  0  0  0  0  0  0  0  0  0  0
   -6.2285   -1.5337   -1.6002 H   0  0  0  0  0  0  0  0  0  0  0  0
   -4.8295   -1.9710    0.7645 H   0  0  0  0  0  0  0  0  0  0  0  0
   -6.3735   -1.0739    0.6829 H   0  0  0  0  0  0  0  0  0  0  0  0
   -5.6809    0.2642    2.7444 H   0  0  0  0  0  0  0  0  0  0  0  0
   -4.1850    1.2664    2.6836 H   0  0  0  0  0  0  0  0  0  0  0  0
   -4.0798   -0.5354    2.7445 H   0  0  0  0  0  0  0  0  0  0  0  0
   -6.1621    3.4931   -1.1165 H   0  0  0  0  0  0  0  0  0  0  0  0
   -5.6897    2.7825   -2.7032 H   0  0  0  0  0  0  0  0  0  0  0  0
   -4.4627    3.0886   -1.4135 H   0  0  0  0  0  0  0  0  0  0  0  0
   -7.8953    1.8545   -0.7770 H   0  0  0  0  0  0  0  0  0  0  0  0
   -7.6149    0.1045   -0.8400 H   0  0  0  0  0  0  0  0  0  0  0  0
   -7.5257    1.0630   -2.3559 H   0  0  0  0  0  0  0  0  0  0  0  0
   -0.9809   -2.6137    1.5706 H   0  0  0  0  0  0  0  0  0  0  0  0
   -1.8879   -0.8129    3.6076 H   0  0  0  0  0  0  0  0  0  0  0  0
    0.4391   -0.4824    3.2863 H   0  0  0  0  0  0  0  0  0  0  0  0
    0.7183   -3.3324    3.1257 H   0  0  0  0  0  0  0  0  0  0  0  0
    1.5184   -2.3223    1.0671 H   0  0  0  0  0  0  0  0  0  0  0  0
    2.7199   -0.2161    2.5987 H   0  0  0  0  0  0  0  0  0  0  0  0
    5.0237    2.0152    0.1840 H   0  0  0  0  0  0  0  0  0  0  0  0
    5.0613    1.9067   -2.6751 H   0  0  0  0  0  0  0  0  0  0  0  0
    7.0618    0.9626    0.2709 H   0  0  0  0  0  0  0  0  0  0  0  0
    7.3731    2.5465   -2.0834 H   0  0  0  0  0  0  0  0  0  0  0  0
    6.6541    0.2594   -2.6559 H   0  0  0  0  0  0  0  0  0  0  0  0
    8.8555   -0.1859   -0.8764 H   0  0  0  0  0  0  0  0  0  0  0  0
  1 34  1  0  0  0  0
  1 35  1  0  0  0  0
  1 36  1  0  0  0  0
  2  1  1  0  0  0  0
  2  3  1  0  0  0  0
  2 37  1  1  0  0  0
  3  4  1  0  0  0  0
  4  5  1  0  0  0  0
  4 28  1  0  0  0  0
  4 38  1  6  0  0  0
  5  6  1  0  0  0  0
  6 39  1  0  0  0  0
  6 40  1  0  0  0  0
  7  6  1  0  0  0  0
  7  8  1  0  0  0  0
  7 41  1  1  0  0  0
  8  9  1  0  0  0  0
  9 10  1  0  0  0  0
  9 22  1  0  0  0  0
  9 42  1  1  0  0  0
 11 10  1  0  0  0  0
 11 12  1  0  0  0  0
 11 43  1  1  0  0  0
 12 44  1  0  0  0  0
 12 45  1  0  0  0  0
 13 12  1  0  0  0  0
 13 14  1  0  0  0  0
 13 46  1  6  0  0  0
 14 15  1  0  0  0  0
 14 47  1  0  0  0  0
 14 48  1  0  0  0  0
 15 16  1  0  0  0  0
 15 49  1  0  0  0  0
 15 50  1  0  0  0  0
 16 17  1  1  0  0  0
 16 18  1  0  0  0  0
 16 11  1  0  0  0  0
 17 51  1  0  0  0  0
 17 52  1  0  0  0  0
 17 53  1  0  0  0  0
 18 19  1  0  0  0  0
 19 20  1  0  0  0  0
 19 21  1  0  0  0  0
 19 13  1  0  0  0  0
 20 54  1  0  0  0  0
 20 55  1  0  0  0  0
 20 56  1  0  0  0  0
 21 57  1  0  0  0  0
 21 58  1  0  0  0  0
 21 59  1  0  0  0  0
 22 23  1  0  0  0  0
 22 24  1  0  0  0  0
 22 60  1  6  0  0  0
 23 61  1  0  0  0  0
 24 25  1  0  0  0  0
 24 26  1  0  0  0  0
 24 62  1  1  0  0  0
 25 63  1  0  0  0  0
 26 27  1  0  0  0  0
 26  7  1  0  0  0  0
 26 64  1  6  0  0  0
 27 65  1  0  0  0  0
 28 29  1  0  0  0  0
 28 30  1  0  0  0  0
 28 66  1  1  0  0  0
 29 67  1  0  0  0  0
 30 31  1  0  0  0  0
 30 32  1  0  0  0  0
 30 68  1  1  0  0  0
 31 69  1  0  0  0  0
 32 33  1  0  0  0  0
 32  2  1  0  0  0  0
 32 70  1  6  0  0  0
 33 71  1  0  0  0  0
M  END
>  <IDENTIFIER>
CNP0208540.1

>  <Energy>
917.358

$$$$
