
 OpenBabel09132511412D

144143  0  0  0  0  0  0  0  0999 V2000
   -0.2312   -1.7204    0.7214 C   0  0  0  0  0  0  0  0  0  0  0  0
   -0.1111   -0.3124    0.1423 C   0  0  0  0  0  0  0  0  0  0  0  0
    1.1849    0.1077   -0.5424 C   0  0  0  0  0  0  0  0  0  0  0  0
    2.3556   -0.5512   -0.7126 C   0  0  0  0  0  0  0  0  0  0  0  0
    2.6831   -1.9314   -0.2128 C   0  0  0  0  0  0  0  0  0  0  0  0
    4.0355   -2.4242   -0.6623 C   0  0  0  0  0  0  0  0  0  0  0  0
    5.2412   -1.9190   -0.3299 C   0  0  0  0  0  0  0  0  0  0  0  0
    5.5068   -0.7212    0.5610 C   0  0  0  0  0  0  0  0  0  0  0  0
    6.3210    0.3519   -0.1412 C   0  0  0  0  0  0  0  0  0  0  0  0
    7.6274    0.2601   -0.4911 C   0  0  0  0  0  0  0  0  0  0  0  0
    8.5040   -0.9348   -0.1986 C   0  0  0  0  0  0  0  0  0  0  0  0
    9.8745   -0.8645   -0.8285 C   0  0  0  0  0  0  0  0  0  0  0  0
   10.8837   -0.0338   -0.5126 C   0  0  0  0  0  0  0  0  0  0  0  0
   10.8822    1.0347    0.5413 C   0  0  0  0  0  0  0  0  0  0  0  0
   11.3601    2.3475   -0.0934 C   0  0  0  0  0  2  0  0  0  0  0  0
   12.1863    3.1965    0.8767 C   0  0  0  0  0  0  0  0  0  0  0  0
   12.6949    4.4807    0.2046 C   0  0  0  0  0  0  0  0  0  0  0  0
   13.5580    5.2902    1.1864 C   0  0  0  0  0  0  0  0  0  0  0  0
   14.1063    6.5951    0.5706 C   0  0  0  0  0  0  0  0  0  0  0  0
   14.8784    7.4261    1.5854 C   0  0  0  0  0  0  0  0  0  0  0  0
   14.9597    7.0425    2.7437 O   0  0  0  0  0  0  0  0  0  0  0  0
   15.4557    8.6138    1.2730 O   0  0  0  0  0  0  0  0  0  0  0  0
   15.7500    9.0933    0.0000 C   0  0  2  0  0  0  0  0  0  0  0  0
   17.0812    8.3272   -0.6385 C   0  0  0  0  0  0  0  0  0  0  0  0
   18.4032    8.4819    0.0459 O   0  0  0  0  0  0  0  0  0  0  0  0
   19.4329    9.4078   -0.5079 C   0  0  0  0  0  0  0  0  0  0  0  0
   20.9462    9.0933    0.0000 C   0  0  0  0  0  0  0  0  0  0  0  0
   22.2452    9.8433    0.0000 C   0  0  0  0  0  2  0  0  0  0  0  0
   23.5442   10.5933    0.0000 C   0  0  0  0  0  0  0  0  0  0  0  0
   24.8433   11.3433    0.0000 C   0  0  0  0  0  0  0  0  0  0  0  0
   26.1423   12.0933    0.0000 C   0  0  0  0  0  2  0  0  0  0  0  0
   27.4413   12.8433    0.0000 C   0  0  0  0  0  0  0  0  0  0  0  0
   28.9656   13.4057   -0.4327 C   0  0  0  0  0  0  0  0  0  0  0  0
   29.8158   14.5677    0.4772 C   0  0  0  0  0  0  0  0  0  0  0  0
   31.3385   15.0933    0.0000 C   0  0  0  0  0  0  0  0  0  0  0  0
   32.6375   15.8433    0.0000 C   0  0  0  0  0  0  0  0  0  0  0  0
   33.9365   16.5933    0.0000 C   0  0  0  0  0  0  0  0  0  0  0  0
   35.2356   17.3433    0.0000 C   0  0  0  0  0  0  0  0  0  0  0  0
   36.5346   18.0933    0.0000 C   0  0  0  0  0  2  0  0  0  0  0  0
   37.8336   18.8433    0.0000 C   0  0  0  0  0  0  0  0  0  0  0  0
   39.5563   18.8626    0.0179 C   0  0  0  0  0  0  0  0  0  0  0  0
   40.4317   20.3433    0.0000 C   0  0  0  0  0  0  0  0  0  0  0  0
   41.7308   21.0933    0.0000 C   0  0  0  0  0  0  0  0  0  0  0  0
   16.5000   10.3923    0.0000 C   0  0  0  0  0  0  0  0  0  0  0  0
   17.2500   11.6913    0.0000 O   0  0  0  0  0  0  0  0  0  0  0  0
   17.0841   13.0701    0.0177 C   0  0  0  0  0  0  0  0  0  0  0  0
   15.9561   13.5359    0.0358 O   0  0  0  0  0  0  0  0  0  0  0  0
   18.3516   14.0440    0.0022 C   0  0  0  0  0  0  0  0  0  0  0  0
   18.0000   15.5885    0.0000 C   0  0  0  0  0  0  0  0  0  0  0  0
   18.7500   16.8875    0.0000 C   0  0  0  0  0  2  0  0  0  0  0  0
   19.5000   18.1865    0.0000 C   0  0  0  0  0  0  0  0  0  0  0  0
   20.2500   19.4856    0.0000 C   0  0  0  0  0  0  0  0  0  0  0  0
   21.0000   20.7846    0.0000 C   0  0  0  0  0  2  0  0  0  0  0  0
   21.7500   22.0836    0.0000 C   0  0  0  0  0  0  0  0  0  0  0  0
   22.3733   23.4960    0.0000 C   0  0  0  0  0  0  0  0  0  0  0  0
   21.7500   24.6817    0.0000 C   0  0  0  0  0  0  0  0  0  0  0  0
   20.2500   24.6817    0.0000 C   0  0  0  0  0  2  0  0  0  0  0  0
   18.7500   24.6817    0.0000 C   0  0  0  0  0  2  0  0  0  0  0  0
   17.2500   24.6817    0.0000 C   0  0  0  0  0  2  0  0  0  0  0  0
   15.7500   24.6817    0.0000 C   0  0  0  0  0  2  0  0  0  0  0  0
   14.2500   24.6817    0.0000 C   0  0  0  0  0  2  0  0  0  0  0  0
   12.7500   24.6817    0.0000 C   0  0  0  0  0  2  0  0  0  0  0  0
   11.2500   24.6817    0.0000 C   0  0  0  0  0  2  0  0  0  0  0  0
    9.7500   24.6817    0.0000 C   0  0  0  0  0  0  0  0  0  0  0  0
   -1.2405   -1.8404    1.1701 H   0  0  0  0  0  0  0  0  0  0  0  0
    0.5085   -1.8912    1.5268 H   0  0  0  0  0  0  0  0  0  0  0  0
   -0.1458   -2.4849   -0.0773 H   0  0  0  0  0  0  0  0  0  0  0  0
   -0.9247   -0.2043   -0.6068 H   0  0  0  0  0  0  0  0  0  0  0  0
   -0.3061    0.4109    0.9623 H   0  0  0  0  0  0  0  0  0  0  0  0
    1.1458    1.1074   -0.9662 H   0  0  0  0  0  0  0  0  0  0  0  0
    3.1300   -0.0259   -1.2659 H   0  0  0  0  0  0  0  0  0  0  0  0
    2.6420   -1.9642    0.8943 H   0  0  0  0  0  0  0  0  0  0  0  0
    1.9478   -2.6394   -0.6406 H   0  0  0  0  0  0  0  0  0  0  0  0
    4.0334   -3.3038   -1.3028 H   0  0  0  0  0  0  0  0  0  0  0  0
    6.0787   -2.4572   -0.7395 H   0  0  0  0  0  0  0  0  0  0  0  0
    4.5417   -0.2751    0.8786 H   0  0  0  0  0  0  0  0  0  0  0  0
    6.0401   -1.0378    1.4811 H   0  0  0  0  0  0  0  0  0  0  0  0
    5.8085    1.2821   -0.3685 H   0  0  0  0  0  0  0  0  0  0  0  0
    8.0725    1.1081   -1.0049 H   0  0  0  0  0  0  0  0  0  0  0  0
    8.5892   -1.0993    0.8966 H   0  0  0  0  0  0  0  0  0  0  0  0
    8.0453   -1.8257   -0.6495 H   0  0  0  0  0  0  0  0  0  0  0  0
   10.0824   -1.6020   -1.5996 H   0  0  0  0  0  0  0  0  0  0  0  0
   11.8176   -0.1712   -1.0522 H   0  0  0  0  0  0  0  0  0  0  0  0
    9.8990    1.1665    1.0389 H   0  0  0  0  0  0  0  0  0  0  0  0
   11.6172    0.7068    1.3079 H   0  0  0  0  0  0  0  0  0  0  0  0
   11.5707    3.4485    1.7673 H   0  0  0  0  0  0  0  0  0  0  0  0
   13.0655    2.5983    1.2038 H   0  0  0  0  0  0  0  0  0  0  0  0
   13.3027    4.2173   -0.6888 H   0  0  0  0  0  0  0  0  0  0  0  0
   11.8270    5.0950   -0.1192 H   0  0  0  0  0  0  0  0  0  0  0  0
   12.9351    5.5409    2.0733 H   0  0  0  0  0  0  0  0  0  0  0  0
   14.4184    4.6669    1.5185 H   0  0  0  0  0  0  0  0  0  0  0  0
   14.7611    6.3380   -0.2874 H   0  0  0  0  0  0  0  0  0  0  0  0
   13.2580    7.2100    0.2004 H   0  0  0  0  0  0  0  0  0  0  0  0
   14.8715    9.0444   -0.6860 H   0  0  0  0  0  0  0  0  0  0  0  0
   16.8633    7.2443   -0.7102 H   0  0  0  0  0  0  0  0  0  0  0  0
   17.1953    8.6441   -1.6997 H   0  0  0  0  0  0  0  0  0  0  0  0
   19.4202    9.4117   -1.6183 H   0  0  0  0  0  0  0  0  0  0  0  0
   19.2244   10.4247   -0.1403 H   0  0  0  0  0  0  0  0  0  0  0  0
   20.8030    8.9322    1.0891 H   0  0  0  0  0  0  0  0  0  0  0  0
   21.1900    8.0898   -0.4065 H   0  0  0  0  0  0  0  0  0  0  0  0
   23.1750   11.1489   -0.8960 H   0  0  0  0  0  0  0  0  0  0  0  0
   23.1749   11.1491    0.8958 H   0  0  0  0  0  0  0  0  0  0  0  0
   25.2124   10.7875   -0.8958 H   0  0  0  0  0  0  0  0  0  0  0  0
   25.2123   10.7878    0.8961 H   0  0  0  0  0  0  0  0  0  0  0  0
   27.7165   12.5596    1.0373 H   0  0  0  0  0  0  0  0  0  0  0  0
   26.9715   13.8462    0.0749 H   0  0  0  0  0  0  0  0  0  0  0  0
   28.8720   13.8147   -1.4605 H   0  0  0  0  0  0  0  0  0  0  0  0
   29.6230   12.5129   -0.4955 H   0  0  0  0  0  0  0  0  0  0  0  0
   29.1667   15.4659    0.5505 H   0  0  0  0  0  0  0  0  0  0  0  0
   29.9211   14.1548    1.5028 H   0  0  0  0  0  0  0  0  0  0  0  0
   31.6908   14.0259   -0.0948 H   0  0  0  0  0  0  0  0  0  0  0  0
   30.9839   15.4290   -1.0047 H   0  0  0  0  0  0  0  0  0  0  0  0
   32.9259   15.3174    0.9514 H   0  0  0  0  0  0  0  0  0  0  0  0
   33.0487   15.2614   -0.8807 H   0  0  0  0  0  0  0  0  0  0  0  0
   33.6009   17.1988   -0.8919 H   0  0  0  0  0  0  0  0  0  0  0  0
   33.5878   17.2242    0.8670 H   0  0  0  0  0  0  0  0  0  0  0  0
   35.6146   16.7738   -0.8843 H   0  0  0  0  0  0  0  0  0  0  0  0
   35.6016   16.7951    0.9030 H   0  0  0  0  0  0  0  0  0  0  0  0
   37.6388   19.5100    0.8654 H   0  0  0  0  0  0  0  0  0  0  0  0
   37.6567   19.4790   -0.8921 H   0  0  0  0  0  0  0  0  0  0  0  0
   39.8781   18.3066    0.9233 H   0  0  0  0  0  0  0  0  0  0  0  0
   39.8919   18.2793   -0.8650 H   0  0  0  0  0  0  0  0  0  0  0  0
   39.9182   20.7772   -0.8943 H   0  0  0  0  0  0  0  0  0  0  0  0
   39.9511   20.8039    0.8930 H   0  0  0  0  0  0  0  0  0  0  0  0
   42.0971   20.6787   -0.9653 H   0  0  0  0  0  0  0  0  0  0  0  0
   41.3229   22.1280   -0.1119 H   0  0  0  0  0  0  0  0  0  0  0  0
   42.6575   21.6283    0.0000 H   0  0  0  0  0  0  0  0  0  0  0  0
   17.0034   10.1500    0.9675 H   0  0  0  0  0  0  0  0  0  0  0  0
   15.5348   10.8887    0.2468 H   0  0  0  0  0  0  0  0  0  0  0  0
   18.9519   13.8219   -0.9048 H   0  0  0  0  0  0  0  0  0  0  0  0
   18.9716   13.8237    0.8958 H   0  0  0  0  0  0  0  0  0  0  0  0
   17.3407   15.7073    0.8857 H   0  0  0  0  0  0  0  0  0  0  0  0
   17.3319   15.7063   -0.8793 H   0  0  0  0  0  0  0  0  0  0  0  0
   20.0556   17.8174   -0.8959 H   0  0  0  0  0  0  0  0  0  0  0  0
   20.0556   17.8174    0.8960 H   0  0  0  0  0  0  0  0  0  0  0  0
   19.6943   19.8548   -0.8959 H   0  0  0  0  0  0  0  0  0  0  0  0
   19.6943   19.8548    0.8959 H   0  0  0  0  0  0  0  0  0  0  0  0
   22.3113   21.7783   -0.9085 H   0  0  0  0  0  0  0  0  0  0  0  0
   22.3113   21.7783    0.9085 H   0  0  0  0  0  0  0  0  0  0  0  0
   23.4619   23.5391    0.0000 H   0  0  0  0  0  0  0  0  0  0  0  0
   22.3068   25.6134    0.0000 H   0  0  0  0  0  0  0  0  0  0  0  0
    9.6698   25.5874   -0.6356 H   0  0  0  0  0  0  0  0  0  0  0  0
    9.6698   23.7758   -0.6354 H   0  0  0  0  0  0  0  0  0  0  0  0
    8.6800   24.6817    0.0000 H   0  0  0  0  0  0  0  0  0  0  0  0
  1  2  1  0  0  0  0
  1 65  1  0  0  0  0
  1 66  1  0  0  0  0
  1 67  1  0  0  0  0
  2  3  1  0  0  0  0
  2 68  1  0  0  0  0
  2 69  1  0  0  0  0
  3  4  2  0  0  0  0
  3 70  1  0  0  0  0
  4  5  1  0  0  0  0
  4 71  1  0  0  0  0
  5  6  1  0  0  0  0
  5 72  1  0  0  0  0
  5 73  1  0  0  0  0
  6  7  2  0  0  0  0
  6 74  1  0  0  0  0
  7  8  1  0  0  0  0
  7 75  1  0  0  0  0
  8  9  1  0  0  0  0
  8 76  1  0  0  0  0
  8 77  1  0  0  0  0
  9 10  2  0  0  0  0
  9 78  1  0  0  0  0
 10 11  1  0  0  0  0
 10 79  1  0  0  0  0
 11 12  1  0  0  0  0
 11 80  1  0  0  0  0
 11 81  1  0  0  0  0
 12 13  2  0  0  0  0
 12 82  1  0  0  0  0
 13 14  1  0  0  0  0
 13 83  1  0  0  0  0
 14 15  1  0  0  0  0
 14 84  1  0  0  0  0
 14 85  1  0  0  0  0
 15 16  1  0  0  0  0
 16 17  1  0  0  0  0
 16 86  1  0  0  0  0
 16 87  1  0  0  0  0
 17 18  1  0  0  0  0
 17 88  1  0  0  0  0
 17 89  1  0  0  0  0
 18 19  1  0  0  0  0
 18 90  1  0  0  0  0
 18 91  1  0  0  0  0
 19 20  1  0  0  0  0
 19 92  1  0  0  0  0
 19 93  1  0  0  0  0
 20 21  2  0  0  0  0
 20 22  1  0  0  0  0
 22 23  1  0  0  0  0
 23 24  1  0  0  0  0
 23 44  1  0  0  0  0
 23 94  1  6  0  0  0
 24 25  1  0  0  0  0
 24 95  1  0  0  0  0
 24 96  1  0  0  0  0
 25 26  1  0  0  0  0
 26 27  1  0  0  0  0
 26 97  1  0  0  0  0
 26 98  1  0  0  0  0
 27 28  1  0  0  0  0
 27 99  1  0  0  0  0
 27100  1  0  0  0  0
 28 29  1  0  0  0  0
 29 30  1  0  0  0  0
 29101  1  0  0  0  0
 29102  1  0  0  0  0
 30 31  1  0  0  0  0
 30103  1  0  0  0  0
 30104  1  0  0  0  0
 31 32  1  0  0  0  0
 32 33  1  0  0  0  0
 32105  1  0  0  0  0
 32106  1  0  0  0  0
 33 34  1  0  0  0  0
 33107  1  0  0  0  0
 33108  1  0  0  0  0
 34 35  1  0  0  0  0
 34109  1  0  0  0  0
 34110  1  0  0  0  0
 35 36  1  0  0  0  0
 35111  1  0  0  0  0
 35112  1  0  0  0  0
 36 37  1  0  0  0  0
 36113  1  0  0  0  0
 36114  1  0  0  0  0
 37 38  1  0  0  0  0
 37115  1  0  0  0  0
 37116  1  0  0  0  0
 38 39  1  0  0  0  0
 38117  1  0  0  0  0
 38118  1  0  0  0  0
 39 40  1  0  0  0  0
 40 41  1  0  0  0  0
 40119  1  0  0  0  0
 40120  1  0  0  0  0
 41 42  1  0  0  0  0
 41121  1  0  0  0  0
 41122  1  0  0  0  0
 42 43  1  0  0  0  0
 42123  1  0  0  0  0
 42124  1  0  0  0  0
 43125  1  0  0  0  0
 43126  1  0  0  0  0
 43127  1  0  0  0  0
 44 45  1  0  0  0  0
 44128  1  0  0  0  0
 44129  1  0  0  0  0
 45 46  1  0  0  0  0
 46 47  2  0  0  0  0
 46 48  1  0  0  0  0
 48 49  1  0  0  0  0
 48130  1  0  0  0  0
 48131  1  0  0  0  0
 49 50  1  0  0  0  0
 49132  1  0  0  0  0
 49133  1  0  0  0  0
 50 51  1  0  0  0  0
 51 52  1  0  0  0  0
 51134  1  0  0  0  0
 51135  1  0  0  0  0
 52 53  1  0  0  0  0
 52136  1  0  0  0  0
 52137  1  0  0  0  0
 53 54  1  0  0  0  0
 54 55  1  0  0  0  0
 54138  1  0  0  0  0
 54139  1  0  0  0  0
 55 56  2  0  0  0  0
 55140  1  0  0  0  0
 56 57  1  0  0  0  0
 56141  1  0  0  0  0
 57 58  1  0  0  0  0
 58 59  1  0  0  0  0
 59 60  1  0  0  0  0
 60 61  1  0  0  0  0
 61 62  1  0  0  0  0
 62 63  1  0  0  0  0
 63 64  1  0  0  0  0
 64142  1  0  0  0  0
 64143  1  0  0  0  0
 64144  1  0  0  0  0
M  END
>  <IDENTIFIER>
CNP0488155.1

>  <Energy>
9054.35

$$$$
