
 OpenBabel09102517433D

 54 57  0  0  0  0  0  0  0  0999 V2000
    7.8674   -0.3874   -1.6088 C   0  0  0  0  0  0  0  0  0  0  0  0
    7.1587   -1.4065   -0.7053 C   0  0  0  0  0  0  0  0  0  0  0  0
    7.8865   -1.5357    0.6385 C   0  0  0  0  0  0  0  0  0  0  0  0
    5.7008   -1.0265   -0.5020 C   0  0  0  0  0  0  0  0  0  0  0  0
    4.6779   -1.8896   -0.9228 C   0  0  0  0  0  0  0  0  0  0  0  0
    3.3325   -1.5396   -0.7501 C   0  0  0  0  0  0  0  0  0  0  0  0
    2.9670   -0.3140   -0.1634 C   0  0  0  0  0  0  0  0  0  0  0  0
    1.5626   -0.0057   -0.0451 N   0  0  0  0  0  0  0  0  0  0  0  0
    1.0192    1.2099    0.2607 C   0  0  0  0  0  0  0  0  0  0  0  0
    1.7309    2.1816    0.4615 O   0  0  0  0  0  0  0  0  0  0  0  0
   -0.3401    1.3559    0.2999 O   0  0  0  0  0  0  0  0  0  0  0  0
   -0.9642    2.6008    0.2883 C   0  0  2  0  0  0  0  0  0  0  0  0
   -1.7335    2.8352    1.5775 C   0  0  0  0  0  0  0  0  0  0  0  0
   -2.9336    2.0972    1.4897 O   0  0  0  0  0  0  0  0  0  0  0  0
   -3.2553    2.0751    0.1108 C   0  0  1  0  0  0  0  0  0  0  0  0
   -2.1048    2.6435   -0.6940 C   0  0  2  0  0  0  0  0  0  0  0  0
   -1.9063    1.8563   -1.8585 O   0  0  0  0  0  0  0  0  0  0  0  0
   -2.9950    0.9508   -1.8856 C   0  0  0  0  0  0  0  0  0  0  0  0
   -3.3649    0.6837   -0.4368 C   0  0  2  0  0  0  0  0  0  0  0  0
   -4.7187    0.1668   -0.2859 N   0  0  0  0  0  0  0  0  0  0  0  0
   -5.0341   -0.9653    0.4083 C   0  0  0  0  0  0  0  0  0  0  0  0
   -4.1407   -1.6247    0.9215 O   0  0  0  0  0  0  0  0  0  0  0  0
   -6.4582   -1.4148    0.5876 C   0  0  0  0  0  0  0  0  0  0  0  0
   -6.7408   -2.5665    1.3450 C   0  0  0  0  0  0  0  0  0  0  0  0
   -8.0219   -2.9775    1.5290 N   0  0  0  0  0  0  0  0  0  0  0  0
   -9.0604   -2.2932    0.9895 C   0  0  0  0  0  0  0  0  0  0  0  0
   -8.8273   -1.1805    0.2527 N   0  0  0  0  0  0  0  0  0  0  0  0
   -7.5649   -0.7286    0.0403 C   0  0  0  0  0  0  0  0  0  0  0  0
    4.0083    0.5441    0.2707 C   0  0  0  0  0  0  0  0  0  0  0  0
    5.3488    0.1889    0.1034 C   0  0  0  0  0  0  0  0  0  0  0  0
    8.9190   -0.6989   -1.7861 H   0  0  0  0  0  0  0  0  0  0  0  0
    7.8777    0.6231   -1.1474 H   0  0  0  0  0  0  0  0  0  0  0  0
    7.3525   -0.3256   -2.5911 H   0  0  0  0  0  0  0  0  0  0  0  0
    7.2161   -2.3962   -1.2109 H   0  0  0  0  0  0  0  0  0  0  0  0
    7.8940   -0.5707    1.1882 H   0  0  0  0  0  0  0  0  0  0  0  0
    8.9387   -1.8520    0.4729 H   0  0  0  0  0  0  0  0  0  0  0  0
    7.3877   -2.3033    1.2676 H   0  0  0  0  0  0  0  0  0  0  0  0
    4.9173   -2.8362   -1.3908 H   0  0  0  0  0  0  0  0  0  0  0  0
    2.5695   -2.2266   -1.0937 H   0  0  0  0  0  0  0  0  0  0  0  0
    0.8940   -0.7606   -0.2632 H   0  0  0  0  0  0  0  0  0  0  0  0
   -0.2269    3.4094    0.0902 H   0  0  0  0  0  0  0  0  0  0  0  0
   -2.0051    3.9123    1.6677 H   0  0  0  0  0  0  0  0  0  0  0  0
   -1.1284    2.5471    2.4632 H   0  0  0  0  0  0  0  0  0  0  0  0
   -4.1738    2.6608   -0.1279 H   0  0  0  0  0  0  0  0  0  0  0  0
   -2.3352    3.7084   -0.9305 H   0  0  0  0  0  0  0  0  0  0  0  0
   -2.7340    0.0034   -2.4032 H   0  0  0  0  0  0  0  0  0  0  0  0
   -3.8344    1.4420   -2.4303 H   0  0  0  0  0  0  0  0  0  0  0  0
   -2.5806    0.0351    0.0160 H   0  0  0  0  0  0  0  0  0  0  0  0
   -5.4623    0.7321   -0.7118 H   0  0  0  0  0  0  0  0  0  0  0  0
   -5.9438   -3.1410    1.7986 H   0  0  0  0  0  0  0  0  0  0  0  0
  -10.0750   -2.6328    1.1477 H   0  0  0  0  0  0  0  0  0  0  0  0
   -7.4575    0.1634   -0.5527 H   0  0  0  0  0  0  0  0  0  0  0  0
    3.8369    1.4896    0.7505 H   0  0  0  0  0  0  0  0  0  0  0  0
    6.1137    0.8737    0.4466 H   0  0  0  0  0  0  0  0  0  0  0  0
  1  2  1  0  0  0  0
  1 31  1  0  0  0  0
  1 32  1  0  0  0  0
  1 33  1  0  0  0  0
  2  3  1  0  0  0  0
  2  4  1  0  0  0  0
  2 34  1  0  0  0  0
  3 35  1  0  0  0  0
  3 36  1  0  0  0  0
  3 37  1  0  0  0  0
  4  5  2  0  0  0  0
  5  6  1  0  0  0  0
  5 38  1  0  0  0  0
  6  7  2  0  0  0  0
  6 39  1  0  0  0  0
  7  8  1  0  0  0  0
  7 29  1  0  0  0  0
  8  9  1  0  0  0  0
  8 40  1  0  0  0  0
  9 10  2  0  0  0  0
  9 11  1  0  0  0  0
 12 11  1  0  0  0  0
 12 13  1  0  0  0  0
 12 41  1  6  0  0  0
 13 14  1  0  0  0  0
 13 42  1  0  0  0  0
 13 43  1  0  0  0  0
 15 14  1  0  0  0  0
 15 16  1  0  0  0  0
 15 44  1  6  0  0  0
 16 17  1  0  0  0  0
 16 12  1  0  0  0  0
 16 45  1  6  0  0  0
 17 18  1  0  0  0  0
 18 19  1  0  0  0  0
 18 46  1  0  0  0  0
 18 47  1  0  0  0  0
 19 20  1  0  0  0  0
 19 15  1  0  0  0  0
 19 48  1  1  0  0  0
 20 21  1  0  0  0  0
 20 49  1  0  0  0  0
 21 22  2  0  0  0  0
 21 23  1  0  0  0  0
 23 24  2  0  0  0  0
 24 25  1  0  0  0  0
 24 50  1  0  0  0  0
 25 26  2  0  0  0  0
 26 27  1  0  0  0  0
 26 51  1  0  0  0  0
 27 28  2  0  0  0  0
 28 23  1  0  0  0  0
 28 52  1  0  0  0  0
 29 30  2  0  0  0  0
 29 53  1  0  0  0  0
 30  4  1  0  0  0  0
 30 54  1  0  0  0  0
M  END
>  <IDENTIFIER>
CNP0064578.1

>  <Energy>
506.065

$$$$
