
 OpenBabel09052501573D

106110  0  0  0  0  0  0  0  0999 V2000
    7.1863    2.5584    1.8727 C   0  0  0  0  0  0  0  0  0  0  0  0
    8.1275    1.4894    2.3762 C   0  0  0  0  0  0  0  0  0  0  0  0
    9.5967    1.8023    2.5031 C   0  0  0  0  0  0  0  0  0  0  0  0
    7.6992    0.2515    2.7166 C   0  0  0  0  0  0  0  0  0  0  0  0
    6.2656   -0.2168    2.6348 C   0  0  0  0  0  0  0  0  0  0  0  0
    6.1943   -1.4261    1.7310 C   0  0  0  0  0  0  0  0  0  0  0  0
    5.5614   -1.5376    0.5309 C   0  0  0  0  0  0  0  0  0  0  0  0
    5.6567   -2.8739   -0.1873 C   0  0  0  0  0  0  0  0  0  0  0  0
    4.8224   -0.3804   -0.1654 C   0  0  1  0  0  0  0  0  0  0  0  0
    5.5623   -0.0207   -1.4798 C   0  0  0  0  0  0  0  0  0  0  0  0
    5.0044   -0.6118   -2.7864 C   0  0  0  0  0  0  0  0  0  0  0  0
    3.4997   -0.9647   -2.7645 C   0  0  0  0  0  0  0  0  0  0  0  0
    2.6223   -0.2348   -1.6904 C   0  0  2  0  0  0  0  0  0  0  0  0
    2.6872    1.3184   -1.9465 C   0  0  0  0  0  0  0  0  0  0  0  0
    3.2677   -0.6469   -0.3079 C   0  0  2  0  0  0  0  0  0  0  0  0
    2.4562   -0.1057    0.9009 C   0  0  2  0  0  0  0  0  0  0  0  0
    3.0166   -0.5255    2.1196 O   0  0  0  0  0  0  0  0  0  0  0  0
    0.9656   -0.5187    0.8480 C   0  0  0  0  0  0  0  0  0  0  0  0
    0.2896   -0.1078   -0.4882 C   0  0  2  0  0  0  0  0  0  0  0  0
   -1.3093   -0.2045   -0.4685 C   0  0  1  0  0  0  0  0  0  0  0  0
   -1.8325   -1.6197   -0.0794 C   0  0  0  0  0  0  0  0  0  0  0  0
   -1.8636    0.8086    0.6233 C   0  0  0  0  0  0  0  0  0  0  0  0
   -2.9987    1.7451    0.1424 C   0  0  0  0  0  0  0  0  0  0  0  0
   -4.0499    1.0062   -0.6910 C   0  0  2  0  0  0  0  0  0  0  0  0
   -4.6449   -0.0189    0.1029 O   0  0  0  0  0  0  0  0  0  0  0  0
   -5.9529    0.3079    0.5578 C   0  0  2  0  0  0  0  0  0  0  0  0
   -5.8840    0.8810    1.8482 O   0  0  0  0  0  0  0  0  0  0  0  0
   -7.1384    1.4485    2.2534 C   0  0  2  0  0  0  0  0  0  0  0  0
   -7.1434    1.5107    3.7931 C   0  0  0  0  0  0  0  0  0  0  0  0
   -8.3004    2.1448    4.2691 O   0  0  0  0  0  0  0  0  0  0  0  0
   -8.4012    0.6814    1.6973 C   0  0  1  0  0  0  0  0  0  0  0  0
   -8.7708    1.1950    0.4423 O   0  0  0  0  0  0  0  0  0  0  0  0
   -8.0567   -0.8124    1.5332 C   0  0  2  0  0  0  0  0  0  0  0  0
   -7.8339   -1.3880    2.8013 O   0  0  0  0  0  0  0  0  0  0  0  0
   -6.8177   -0.9799    0.5873 C   0  0  1  0  0  0  0  0  0  0  0  0
   -7.2008   -1.3251   -0.7221 O   0  0  0  0  0  0  0  0  0  0  0  0
   -3.4124    0.4229   -2.0198 C   0  0  0  0  0  0  0  0  0  0  0  0
   -4.1434   -0.8793   -2.4462 C   0  0  0  0  0  0  0  0  0  0  0  0
   -3.6749    1.4506   -3.1627 C   0  0  0  0  0  0  0  0  0  0  0  0
   -1.8323    0.2580   -1.8799 C   0  0  2  0  0  0  0  0  0  0  0  0
   -1.1679   -0.5315   -3.0388 C   0  0  0  0  0  0  0  0  0  0  0  0
    0.3518   -0.2947   -3.0365 C   0  0  0  0  0  0  0  0  0  0  0  0
    1.0671   -0.7502   -1.7243 C   0  0  1  0  0  0  0  0  0  0  0  0
    1.0089   -2.3211   -1.7131 C   0  0  0  0  0  0  0  0  0  0  0  0
    7.7222    3.5033    1.6461 H   0  0  0  0  0  0  0  0  0  0  0  0
    6.4193    2.7813    2.6444 H   0  0  0  0  0  0  0  0  0  0  0  0
    6.6904    2.2180    0.9399 H   0  0  0  0  0  0  0  0  0  0  0  0
    9.8241    2.8446    2.1955 H   0  0  0  0  0  0  0  0  0  0  0  0
   10.1831    1.1159    1.8563 H   0  0  0  0  0  0  0  0  0  0  0  0
    9.9194    1.6739    3.5578 H   0  0  0  0  0  0  0  0  0  0  0  0
    8.4294   -0.4723    3.0712 H   0  0  0  0  0  0  0  0  0  0  0  0
    5.5954    0.5979    2.3345 H   0  0  0  0  0  0  0  0  0  0  0  0
    5.9226   -0.5201    3.6459 H   0  0  0  0  0  0  0  0  0  0  0  0
    6.7338   -2.2913    2.1094 H   0  0  0  0  0  0  0  0  0  0  0  0
    6.2353   -3.6272    0.3886 H   0  0  0  0  0  0  0  0  0  0  0  0
    6.1732   -2.7443   -1.1586 H   0  0  0  0  0  0  0  0  0  0  0  0
    4.6566   -3.3110   -0.3703 H   0  0  0  0  0  0  0  0  0  0  0  0
    4.9265    0.5483    0.4158 H   0  0  0  0  0  0  0  0  0  0  0  0
    6.6674   -0.1202   -1.4075 H   0  0  0  0  0  0  0  0  0  0  0  0
    5.4988    1.0733   -1.5868 H   0  0  0  0  0  0  0  0  0  0  0  0
    5.5618   -1.5254   -3.0861 H   0  0  0  0  0  0  0  0  0  0  0  0
    5.2089    0.1385   -3.5821 H   0  0  0  0  0  0  0  0  0  0  0  0
    3.4956   -2.0421   -2.5055 H   0  0  0  0  0  0  0  0  0  0  0  0
    3.0961   -0.8881   -3.7952 H   0  0  0  0  0  0  0  0  0  0  0  0
    3.6719    1.7694   -1.8929 H   0  0  0  0  0  0  0  0  0  0  0  0
    2.1170    1.9259   -1.2276 H   0  0  0  0  0  0  0  0  0  0  0  0
    2.3637    1.5757   -2.9716 H   0  0  0  0  0  0  0  0  0  0  0  0
    3.1703   -1.7401   -0.2631 H   0  0  0  0  0  0  0  0  0  0  0  0
    2.5093    1.0033    0.8793 H   0  0  0  0  0  0  0  0  0  0  0  0
    2.9948   -1.5184    2.1353 H   0  0  0  0  0  0  0  0  0  0  0  0
    0.4605   -0.0368    1.7098 H   0  0  0  0  0  0  0  0  0  0  0  0
    0.8790   -1.6135    0.9953 H   0  0  0  0  0  0  0  0  0  0  0  0
    0.4295    0.9799   -0.5798 H   0  0  0  0  0  0  0  0  0  0  0  0
   -1.3722   -1.9658    0.8678 H   0  0  0  0  0  0  0  0  0  0  0  0
   -1.7072   -2.3933   -0.8404 H   0  0  0  0  0  0  0  0  0  0  0  0
   -2.9118   -1.6124    0.1271 H   0  0  0  0  0  0  0  0  0  0  0  0
   -1.0789    1.5040    0.9906 H   0  0  0  0  0  0  0  0  0  0  0  0
   -2.1939    0.2487    1.5268 H   0  0  0  0  0  0  0  0  0  0  0  0
   -2.5688    2.5488   -0.4943 H   0  0  0  0  0  0  0  0  0  0  0  0
   -3.4579    2.2478    1.0212 H   0  0  0  0  0  0  0  0  0  0  0  0
   -4.7958    1.7747   -0.9946 H   0  0  0  0  0  0  0  0  0  0  0  0
   -6.4677    1.0216   -0.1250 H   0  0  0  0  0  0  0  0  0  0  0  0
   -7.1889    2.5109    1.9255 H   0  0  0  0  0  0  0  0  0  0  0  0
   -6.2416    2.0600    4.1507 H   0  0  0  0  0  0  0  0  0  0  0  0
   -7.0839    0.5064    4.2515 H   0  0  0  0  0  0  0  0  0  0  0  0
   -8.1591    3.1212    4.1553 H   0  0  0  0  0  0  0  0  0  0  0  0
   -9.2820    0.7973    2.3705 H   0  0  0  0  0  0  0  0  0  0  0  0
   -9.1733    2.0889    0.6031 H   0  0  0  0  0  0  0  0  0  0  0  0
   -8.9133   -1.3740    1.0995 H   0  0  0  0  0  0  0  0  0  0  0  0
   -6.8689   -1.3406    3.0234 H   0  0  0  0  0  0  0  0  0  0  0  0
   -6.2250   -1.8387    0.9712 H   0  0  0  0  0  0  0  0  0  0  0  0
   -7.8240   -0.6288   -1.0550 H   0  0  0  0  0  0  0  0  0  0  0  0
   -5.2322   -0.6881   -2.5582 H   0  0  0  0  0  0  0  0  0  0  0  0
   -4.0266   -1.7026   -1.7212 H   0  0  0  0  0  0  0  0  0  0  0  0
   -3.7712   -1.2471   -3.4250 H   0  0  0  0  0  0  0  0  0  0  0  0
   -4.7656    1.6206   -3.2962 H   0  0  0  0  0  0  0  0  0  0  0  0
   -3.2898    1.1047   -4.1419 H   0  0  0  0  0  0  0  0  0  0  0  0
   -3.2082    2.4324   -2.9335 H   0  0  0  0  0  0  0  0  0  0  0  0
   -1.4365    1.2951   -1.9763 H   0  0  0  0  0  0  0  0  0  0  0  0
   -1.5297   -0.1595   -4.0167 H   0  0  0  0  0  0  0  0  0  0  0  0
   -1.4283   -1.6057   -2.9980 H   0  0  0  0  0  0  0  0  0  0  0  0
    0.4499    0.7949   -3.1843 H   0  0  0  0  0  0  0  0  0  0  0  0
    0.8035   -0.7912   -3.9212 H   0  0  0  0  0  0  0  0  0  0  0  0
    0.0109   -2.7376   -1.8172 H   0  0  0  0  0  0  0  0  0  0  0  0
    1.4362   -2.7905   -0.8112 H   0  0  0  0  0  0  0  0  0  0  0  0
    1.5138   -2.7506   -2.5989 H   0  0  0  0  0  0  0  0  0  0  0  0
  1  2  1  0  0  0  0
  1 45  1  0  0  0  0
  1 46  1  0  0  0  0
  1 47  1  0  0  0  0
  2  3  1  0  0  0  0
  2  4  2  0  0  0  0
  3 48  1  0  0  0  0
  3 49  1  0  0  0  0
  3 50  1  0  0  0  0
  4  5  1  0  0  0  0
  4 51  1  0  0  0  0
  5  6  1  0  0  0  0
  5 52  1  0  0  0  0
  5 53  1  0  0  0  0
  6  7  2  0  0  0  0
  6 54  1  0  0  0  0
  7  8  1  0  0  0  0
  8 55  1  0  0  0  0
  8 56  1  0  0  0  0
  8 57  1  0  0  0  0
  9  7  1  0  0  0  0
  9 10  1  0  0  0  0
  9 58  1  1  0  0  0
 10 11  1  0  0  0  0
 10 59  1  0  0  0  0
 10 60  1  0  0  0  0
 11 12  1  0  0  0  0
 11 61  1  0  0  0  0
 11 62  1  0  0  0  0
 12 13  1  0  0  0  0
 12 63  1  0  0  0  0
 12 64  1  0  0  0  0
 13 14  1  6  0  0  0
 13 15  1  0  0  0  0
 14 65  1  0  0  0  0
 14 66  1  0  0  0  0
 14 67  1  0  0  0  0
 15 16  1  0  0  0  0
 15  9  1  0  0  0  0
 15 68  1  1  0  0  0
 16 17  1  0  0  0  0
 16 18  1  0  0  0  0
 16 69  1  6  0  0  0
 17 70  1  0  0  0  0
 18 71  1  0  0  0  0
 18 72  1  0  0  0  0
 19 18  1  0  0  0  0
 19 20  1  0  0  0  0
 19 73  1  6  0  0  0
 20 21  1  1  0  0  0
 20 22  1  0  0  0  0
 21 74  1  0  0  0  0
 21 75  1  0  0  0  0
 21 76  1  0  0  0  0
 22 23  1  0  0  0  0
 22 77  1  0  0  0  0
 22 78  1  0  0  0  0
 23 24  1  0  0  0  0
 23 79  1  0  0  0  0
 23 80  1  0  0  0  0
 24 25  1  0  0  0  0
 24 37  1  0  0  0  0
 24 81  1  6  0  0  0
 26 25  1  0  0  0  0
 26 27  1  0  0  0  0
 26 82  1  6  0  0  0
 27 28  1  0  0  0  0
 28 29  1  0  0  0  0
 28 31  1  0  0  0  0
 28 83  1  6  0  0  0
 29 30  1  0  0  0  0
 29 84  1  0  0  0  0
 29 85  1  0  0  0  0
 30 86  1  0  0  0  0
 31 32  1  0  0  0  0
 31 33  1  0  0  0  0
 31 87  1  1  0  0  0
 32 88  1  0  0  0  0
 33 34  1  0  0  0  0
 33 35  1  0  0  0  0
 33 89  1  6  0  0  0
 34 90  1  0  0  0  0
 35 36  1  0  0  0  0
 35 26  1  0  0  0  0
 35 91  1  1  0  0  0
 36 92  1  0  0  0  0
 37 38  1  0  0  0  0
 37 39  1  0  0  0  0
 37 40  1  0  0  0  0
 38 93  1  0  0  0  0
 38 94  1  0  0  0  0
 38 95  1  0  0  0  0
 39 96  1  0  0  0  0
 39 97  1  0  0  0  0
 39 98  1  0  0  0  0
 40 41  1  0  0  0  0
 40 20  1  0  0  0  0
 40 99  1  6  0  0  0
 41 42  1  0  0  0  0
 41100  1  0  0  0  0
 41101  1  0  0  0  0
 42 43  1  0  0  0  0
 42102  1  0  0  0  0
 42103  1  0  0  0  0
 43 44  1  1  0  0  0
 43 19  1  0  0  0  0
 43 13  1  0  0  0  0
 44104  1  0  0  0  0
 44105  1  0  0  0  0
 44106  1  0  0  0  0
M  END
>  <IDENTIFIER>
CNP0223186.3

>  <Energy>
1366.93

$$$$
