
 OpenBabel09062511003D

 50 50  0  0  0  0  0  0  0  0999 V2000
    8.4817    1.8425   -1.5962 C   0  0  0  0  0  0  0  0  0  0  0  0
    7.4008    1.5733   -0.5963 C   0  0  0  0  0  0  0  0  0  0  0  0
    6.2335    1.0288   -0.9659 C   0  0  0  0  0  0  0  0  0  0  0  0
    5.1728    0.7766    0.0307 C   0  0  0  0  0  0  0  0  0  0  0  0
    3.9927    0.2402   -0.3220 C   0  0  0  0  0  0  0  0  0  0  0  0
    2.9189    0.0008    0.6667 C   0  0  0  0  0  0  0  0  0  0  0  0
    3.0952    0.2913    1.8434 O   0  0  0  0  0  0  0  0  0  0  0  0
    1.7356   -0.5297    0.2511 O   0  0  0  0  0  0  0  0  0  0  0  0
    0.6204   -0.7104    1.0563 C   0  0  2  0  0  0  0  0  0  0  0  0
    0.3101   -2.2269    1.1893 C   0  0  0  0  0  0  0  0  0  0  0  0
   -0.5647   -2.5590    2.4280 C   0  0  0  0  0  0  0  0  0  0  0  0
   -1.8792   -1.8474    2.3910 C   0  0  0  0  0  0  0  0  0  0  0  0
   -2.7913   -2.1424    1.4614 C   0  0  0  0  0  0  0  0  0  0  0  0
   -4.0181   -1.2919    1.2749 C   0  0  2  0  0  0  0  0  0  0  0  0
   -5.1737   -2.0662    1.4766 O   0  0  0  0  0  0  0  0  0  0  0  0
   -4.0052   -0.6729   -0.1545 C   0  0  1  0  0  0  0  0  0  0  0  0
   -5.2031    0.0331   -0.3565 O   0  0  0  0  0  0  0  0  0  0  0  0
   -2.7610    0.2314   -0.4746 C   0  0  2  0  0  0  0  0  0  0  0  0
   -2.6551    0.5845   -1.9818 C   0  0  0  0  0  0  0  0  0  0  0  0
   -3.8022    1.4076   -2.5967 C   0  0  0  0  0  0  0  0  0  0  0  0
   -3.9534    2.7883   -1.9604 C   0  0  0  0  0  0  0  0  0  0  0  0
   -1.5873   -0.4334   -0.1288 O   0  0  0  0  0  0  0  0  0  0  0  0
   -0.5067    0.1334    0.4825 C   0  0  0  0  0  0  0  0  0  0  0  0
   -0.3926    1.3508    0.5149 O   0  0  0  0  0  0  0  0  0  0  0  0
    9.3588    2.2934   -1.0863 H   0  0  0  0  0  0  0  0  0  0  0  0
    8.1138    2.5494   -2.3696 H   0  0  0  0  0  0  0  0  0  0  0  0
    8.7954    0.8941   -2.0809 H   0  0  0  0  0  0  0  0  0  0  0  0
    7.5794    1.8319    0.4446 H   0  0  0  0  0  0  0  0  0  0  0  0
    6.0631    0.7744   -2.0093 H   0  0  0  0  0  0  0  0  0  0  0  0
    5.3598    1.0412    1.0683 H   0  0  0  0  0  0  0  0  0  0  0  0
    3.8051   -0.0212   -1.3599 H   0  0  0  0  0  0  0  0  0  0  0  0
    0.8235   -0.3472    2.0885 H   0  0  0  0  0  0  0  0  0  0  0  0
    1.2712   -2.7586    1.3647 H   0  0  0  0  0  0  0  0  0  0  0  0
   -0.1190   -2.6237    0.2436 H   0  0  0  0  0  0  0  0  0  0  0  0
   -0.0141   -2.2186    3.3318 H   0  0  0  0  0  0  0  0  0  0  0  0
   -0.7233   -3.6553    2.5195 H   0  0  0  0  0  0  0  0  0  0  0  0
   -2.0485   -1.0372    3.0951 H   0  0  0  0  0  0  0  0  0  0  0  0
   -2.6101   -2.9541    0.7610 H   0  0  0  0  0  0  0  0  0  0  0  0
   -4.0344   -0.4628    2.0165 H   0  0  0  0  0  0  0  0  0  0  0  0
   -5.1845   -2.7830    0.7893 H   0  0  0  0  0  0  0  0  0  0  0  0
   -3.9892   -1.5255   -0.8690 H   0  0  0  0  0  0  0  0  0  0  0  0
   -5.2265    0.7741    0.3044 H   0  0  0  0  0  0  0  0  0  0  0  0
   -2.8380    1.1654    0.1243 H   0  0  0  0  0  0  0  0  0  0  0  0
   -2.5643   -0.3630   -2.5575 H   0  0  0  0  0  0  0  0  0  0  0  0
   -1.7145    1.1572   -2.1378 H   0  0  0  0  0  0  0  0  0  0  0  0
   -4.7617    0.8570   -2.5467 H   0  0  0  0  0  0  0  0  0  0  0  0
   -3.5747    1.5535   -3.6751 H   0  0  0  0  0  0  0  0  0  0  0  0
   -4.2266    2.7091   -0.8894 H   0  0  0  0  0  0  0  0  0  0  0  0
   -4.7588    3.3472   -2.4819 H   0  0  0  0  0  0  0  0  0  0  0  0
   -3.0059    3.3598   -2.0563 H   0  0  0  0  0  0  0  0  0  0  0  0
  1  2  1  0  0  0  0
  1 25  1  0  0  0  0
  1 26  1  0  0  0  0
  1 27  1  0  0  0  0
  2  3  2  0  0  0  0
  2 28  1  0  0  0  0
  3  4  1  0  0  0  0
  3 29  1  0  0  0  0
  4  5  2  0  0  0  0
  4 30  1  0  0  0  0
  5  6  1  0  0  0  0
  5 31  1  0  0  0  0
  6  7  2  0  0  0  0
  6  8  1  0  0  0  0
  9  8  1  0  0  0  0
  9 10  1  0  0  0  0
  9 32  1  1  0  0  0
 10 11  1  0  0  0  0
 10 33  1  0  0  0  0
 10 34  1  0  0  0  0
 11 12  1  0  0  0  0
 11 35  1  0  0  0  0
 11 36  1  0  0  0  0
 12 13  2  0  0  0  0
 12 37  1  0  0  0  0
 13 14  1  0  0  0  0
 13 38  1  0  0  0  0
 14 15  1  0  0  0  0
 14 16  1  0  0  0  0
 14 39  1  1  0  0  0
 15 40  1  0  0  0  0
 16 17  1  0  0  0  0
 16 18  1  0  0  0  0
 16 41  1  6  0  0  0
 17 42  1  0  0  0  0
 18 19  1  0  0  0  0
 18 22  1  0  0  0  0
 18 43  1  1  0  0  0
 19 20  1  0  0  0  0
 19 44  1  0  0  0  0
 19 45  1  0  0  0  0
 20 21  1  0  0  0  0
 20 46  1  0  0  0  0
 20 47  1  0  0  0  0
 21 48  1  0  0  0  0
 21 49  1  0  0  0  0
 21 50  1  0  0  0  0
 22 23  1  0  0  0  0
 23 24  2  0  0  0  0
 23  9  1  0  0  0  0
M  END
>  <IDENTIFIER>
CNP0227901.14

>  <Energy>
240.73

$$$$
