
 OpenBabel09072512453D

148154  0  0  0  0  0  0  0  0999 V2000
   -6.9782   -6.3545   -1.1277 C   0  0  0  0  0  0  0  0  0  0  0  0
   -6.1414   -5.1056   -1.0151 C   0  0  0  0  0  0  0  0  0  0  0  0
   -6.8247   -3.7646   -0.9417 C   0  0  0  0  0  0  0  0  0  0  0  0
   -4.7967   -5.2309   -0.9521 C   0  0  0  0  0  0  0  0  0  0  0  0
   -3.8143   -4.0844   -0.8210 C   0  0  0  0  0  0  0  0  0  0  0  0
   -3.1574   -4.1644    0.5692 C   0  0  0  0  0  0  0  0  0  0  0  0
   -2.0901   -3.0774    0.9812 C   0  0  2  0  0  0  0  0  0  0  0  0
   -2.0036   -3.2062    2.5383 C   0  0  0  0  0  0  0  0  0  0  0  0
   -2.4248   -1.7635    0.5301 O   0  0  0  0  0  0  0  0  0  0  0  0
   -3.6114   -1.1657    1.0243 C   0  0  2  0  0  0  0  0  0  0  0  0
   -4.3495   -0.7036   -0.0884 O   0  0  0  0  0  0  0  0  0  0  0  0
   -5.6510   -0.2238    0.2641 C   0  0  2  0  0  0  0  0  0  0  0  0
   -6.1101    0.7121   -0.8658 C   0  0  0  0  0  0  0  0  0  0  0  0
   -7.4422    1.1178   -0.6314 O   0  0  0  0  0  0  0  0  0  0  0  0
   -7.8801    2.0504   -1.6047 C   0  0  2  0  0  0  0  0  0  0  0  0
   -8.2098    3.2607   -0.9601 O   0  0  0  0  0  0  0  0  0  0  0  0
   -8.4608    4.3208   -1.8950 C   0  0  2  0  0  0  0  0  0  0  0  0
   -9.3194    5.3854   -1.1868 C   0  0  0  0  0  0  0  0  0  0  0  0
   -8.6477    5.8844   -0.0606 O   0  0  0  0  0  0  0  0  0  0  0  0
   -9.1400    3.8444   -3.2338 C   0  0  1  0  0  0  0  0  0  0  0  0
   -8.1590    3.4982   -4.1794 O   0  0  0  0  0  0  0  0  0  0  0  0
  -10.0052    2.6018   -2.9504 C   0  0  2  0  0  0  0  0  0  0  0  0
  -11.0754    2.9555   -2.1014 O   0  0  0  0  0  0  0  0  0  0  0  0
   -9.1218    1.4678   -2.3313 C   0  0  1  0  0  0  0  0  0  0  0  0
   -8.7118    0.5267   -3.2938 O   0  0  0  0  0  0  0  0  0  0  0  0
   -5.7126    0.4735    1.6721 C   0  0  1  0  0  0  0  0  0  0  0  0
   -5.9779   -0.4796    2.6707 O   0  0  0  0  0  0  0  0  0  0  0  0
   -4.3534    1.1277    1.9697 C   0  0  2  0  0  0  0  0  0  0  0  0
   -4.1145    2.1700    1.0482 O   0  0  0  0  0  0  0  0  0  0  0  0
   -3.2282    0.0410    1.9348 C   0  0  1  0  0  0  0  0  0  0  0  0
   -2.8988   -0.4041    3.2265 O   0  0  0  0  0  0  0  0  0  0  0  0
   -0.6515   -3.3850    0.3971 C   0  0  1  0  0  0  0  0  0  0  0  0
   -0.5928   -3.7677   -1.0958 C   0  0  0  0  0  0  0  0  0  0  0  0
    0.8641   -3.5431   -1.5866 C   0  0  0  0  0  0  0  0  0  0  0  0
    1.6220   -2.9073   -0.3873 C   0  0  2  0  0  0  0  0  0  0  0  0
    2.2331   -4.1340    0.4101 C   0  0  0  0  0  0  0  0  0  0  0  0
    0.4342   -2.2456    0.3901 C   0  0  2  0  0  0  0  0  0  0  0  0
    0.9066   -1.5531    1.6919 C   0  0  2  0  0  0  0  0  0  0  0  0
   -0.1459   -0.8179    2.2510 O   0  0  0  0  0  0  0  0  0  0  0  0
    2.0352   -0.5394    1.3987 C   0  0  0  0  0  0  0  0  0  0  0  0
    3.2395   -1.1667    0.6555 C   0  0  2  0  0  0  0  0  0  0  0  0
    4.5360   -0.2325    0.6477 C   0  0  1  0  0  0  0  0  0  0  0  0
    4.2577    1.1699    0.0206 C   0  0  0  0  0  0  0  0  0  0  0  0
    5.0048   -0.0051    2.1504 C   0  0  0  0  0  0  0  0  0  0  0  0
    6.5273   -0.1734    2.4169 C   0  0  0  0  0  0  0  0  0  0  0  0
    7.3748    0.4508    1.3077 C   0  0  2  0  0  0  0  0  0  0  0  0
    7.0453    1.8311    1.2255 O   0  0  0  0  0  0  0  0  0  0  0  0
    8.0431    2.6999    1.7434 C   0  0  2  0  0  0  0  0  0  0  0  0
    7.4144    3.7823    2.4399 O   0  0  0  0  0  0  0  0  0  0  0  0
    7.2252    4.9607    1.6724 C   0  0  2  0  0  0  0  0  0  0  0  0
    6.1139    4.7507    0.6169 C   0  0  0  0  0  0  0  0  0  0  0  0
    5.8135    5.9542   -0.0382 O   0  0  0  0  0  0  0  0  0  0  0  0
    8.5712    5.5285    1.1064 C   0  0  1  0  0  0  0  0  0  0  0  0
    9.0408    6.6154    1.8637 O   0  0  0  0  0  0  0  0  0  0  0  0
    9.6739    4.4504    1.0079 C   0  0  2  0  0  0  0  0  0  0  0  0
   10.6869    4.8475    0.1170 O   0  0  0  0  0  0  0  0  0  0  0  0
    9.0275    3.1279    0.6100 C   0  0  1  0  0  0  0  0  0  0  0  0
    9.9850    2.1268    0.3659 O   0  0  0  0  0  0  0  0  0  0  0  0
    7.1154   -0.3147   -0.0618 C   0  0  0  0  0  0  0  0  0  0  0  0
    8.1736   -1.4532   -0.1717 C   0  0  0  0  0  0  0  0  0  0  0  0
    7.3686    0.6288   -1.2656 C   0  0  0  0  0  0  0  0  0  0  0  0
    5.6758   -1.0079   -0.0986 C   0  0  2  0  0  0  0  0  0  0  0  0
    5.2293   -1.4981   -1.5078 C   0  0  0  0  0  0  0  0  0  0  0  0
    4.0222   -2.4521   -1.3978 C   0  0  0  0  0  0  0  0  0  0  0  0
    2.7692   -1.8085   -0.7253 C   0  0  1  0  0  0  0  0  0  0  0  0
    2.2005   -0.7479   -1.7332 C   0  0  0  0  0  0  0  0  0  0  0  0
   -8.0636   -6.1227   -1.1519 H   0  0  0  0  0  0  0  0  0  0  0  0
   -6.7870   -7.0135   -0.2540 H   0  0  0  0  0  0  0  0  0  0  0  0
   -6.7180   -6.8999   -2.0590 H   0  0  0  0  0  0  0  0  0  0  0  0
   -7.9290   -3.8612   -0.9922 H   0  0  0  0  0  0  0  0  0  0  0  0
   -6.4977   -3.1160   -1.7811 H   0  0  0  0  0  0  0  0  0  0  0  0
   -6.5721   -3.2910    0.0282 H   0  0  0  0  0  0  0  0  0  0  0  0
   -4.3691   -6.2308   -0.9740 H   0  0  0  0  0  0  0  0  0  0  0  0
   -4.3149   -3.1045   -0.9149 H   0  0  0  0  0  0  0  0  0  0  0  0
   -3.1066   -4.1724   -1.6596 H   0  0  0  0  0  0  0  0  0  0  0  0
   -2.7159   -5.1737    0.7296 H   0  0  0  0  0  0  0  0  0  0  0  0
   -4.0217   -4.0889    1.2668 H   0  0  0  0  0  0  0  0  0  0  0  0
   -2.9787   -3.0125    3.0271 H   0  0  0  0  0  0  0  0  0  0  0  0
   -1.2688   -2.5730    3.0342 H   0  0  0  0  0  0  0  0  0  0  0  0
   -1.7243   -4.2464    2.8150 H   0  0  0  0  0  0  0  0  0  0  0  0
   -4.2569   -1.8879    1.5694 H   0  0  0  0  0  0  0  0  0  0  0  0
   -6.3831   -1.0570    0.2490 H   0  0  0  0  0  0  0  0  0  0  0  0
   -6.0624    0.1407   -1.8214 H   0  0  0  0  0  0  0  0  0  0  0  0
   -5.4376    1.5908   -0.9374 H   0  0  0  0  0  0  0  0  0  0  0  0
   -7.0865    2.2814   -2.3615 H   0  0  0  0  0  0  0  0  0  0  0  0
   -7.5091    4.8425   -2.1430 H   0  0  0  0  0  0  0  0  0  0  0  0
  -10.3204    5.0089   -0.8913 H   0  0  0  0  0  0  0  0  0  0  0  0
   -9.4975    6.2361   -1.8786 H   0  0  0  0  0  0  0  0  0  0  0  0
   -8.8008    5.2362    0.6757 H   0  0  0  0  0  0  0  0  0  0  0  0
   -9.7643    4.6532   -3.6815 H   0  0  0  0  0  0  0  0  0  0  0  0
   -7.7712    4.3474   -4.5176 H   0  0  0  0  0  0  0  0  0  0  0  0
  -10.4771    2.2158   -3.8801 H   0  0  0  0  0  0  0  0  0  0  0  0
  -10.8074    2.8250   -1.1551 H   0  0  0  0  0  0  0  0  0  0  0  0
   -9.7685    0.9138   -1.6160 H   0  0  0  0  0  0  0  0  0  0  0  0
   -8.2184    1.0084   -4.0061 H   0  0  0  0  0  0  0  0  0  0  0  0
   -6.5218    1.2386    1.7164 H   0  0  0  0  0  0  0  0  0  0  0  0
   -6.9378   -0.7212    2.5928 H   0  0  0  0  0  0  0  0  0  0  0  0
   -4.3473    1.6103    2.9713 H   0  0  0  0  0  0  0  0  0  0  0  0
   -3.5864    1.8266    0.2819 H   0  0  0  0  0  0  0  0  0  0  0  0
   -2.3186    0.5464    1.5433 H   0  0  0  0  0  0  0  0  0  0  0  0
   -3.7231   -0.7519    3.6518 H   0  0  0  0  0  0  0  0  0  0  0  0
   -0.3027   -4.2589    0.9664 H   0  0  0  0  0  0  0  0  0  0  0  0
   -1.2146   -3.0147   -1.6329 H   0  0  0  0  0  0  0  0  0  0  0  0
   -0.9773   -4.7839   -1.3237 H   0  0  0  0  0  0  0  0  0  0  0  0
    0.7533   -2.8798   -2.4603 H   0  0  0  0  0  0  0  0  0  0  0  0
    1.3645   -4.4544   -1.9800 H   0  0  0  0  0  0  0  0  0  0  0  0
    1.5375   -4.9681    0.5941 H   0  0  0  0  0  0  0  0  0  0  0  0
    2.6601   -3.8771    1.3934 H   0  0  0  0  0  0  0  0  0  0  0  0
    3.0009   -4.6603   -0.1848 H   0  0  0  0  0  0  0  0  0  0  0  0
    0.0074   -1.4278   -0.2310 H   0  0  0  0  0  0  0  0  0  0  0  0
    1.2644   -2.3335    2.4004 H   0  0  0  0  0  0  0  0  0  0  0  0
    0.1041   -0.6250    3.1929 H   0  0  0  0  0  0  0  0  0  0  0  0
    2.3546   -0.1165    2.3732 H   0  0  0  0  0  0  0  0  0  0  0  0
    1.6223    0.3001    0.8041 H   0  0  0  0  0  0  0  0  0  0  0  0
    3.5762   -2.0126    1.2795 H   0  0  0  0  0  0  0  0  0  0  0  0
    3.3842    1.6563    0.4970 H   0  0  0  0  0  0  0  0  0  0  0  0
    4.1340    1.1838   -1.0618 H   0  0  0  0  0  0  0  0  0  0  0  0
    5.0702    1.8790    0.1757 H   0  0  0  0  0  0  0  0  0  0  0  0
    4.5340   -0.7285    2.8508 H   0  0  0  0  0  0  0  0  0  0  0  0
    4.6619    0.9958    2.4950 H   0  0  0  0  0  0  0  0  0  0  0  0
    6.7783   -1.2552    2.4666 H   0  0  0  0  0  0  0  0  0  0  0  0
    6.7717    0.2570    3.4127 H   0  0  0  0  0  0  0  0  0  0  0  0
    8.4533    0.3211    1.5618 H   0  0  0  0  0  0  0  0  0  0  0  0
    8.6486    2.2234    2.5491 H   0  0  0  0  0  0  0  0  0  0  0  0
    6.8019    5.7350    2.3497 H   0  0  0  0  0  0  0  0  0  0  0  0
    5.1972    4.3556    1.1131 H   0  0  0  0  0  0  0  0  0  0  0  0
    6.3977    4.0038   -0.1466 H   0  0  0  0  0  0  0  0  0  0  0  0
    5.2462    6.4831    0.5820 H   0  0  0  0  0  0  0  0  0  0  0  0
    8.3470    5.9221    0.0912 H   0  0  0  0  0  0  0  0  0  0  0  0
    9.1573    6.2987    2.7973 H   0  0  0  0  0  0  0  0  0  0  0  0
   10.1368    4.2879    2.0072 H   0  0  0  0  0  0  0  0  0  0  0  0
   10.2950    4.8657   -0.7956 H   0  0  0  0  0  0  0  0  0  0  0  0
    8.4828    3.3137   -0.3387 H   0  0  0  0  0  0  0  0  0  0  0  0
   10.5469    2.0390    1.1797 H   0  0  0  0  0  0  0  0  0  0  0  0
    9.2052   -1.0392   -0.1471 H   0  0  0  0  0  0  0  0  0  0  0  0
    8.0785   -2.0249   -1.1156 H   0  0  0  0  0  0  0  0  0  0  0  0
    8.0842   -2.1692    0.6731 H   0  0  0  0  0  0  0  0  0  0  0  0
    8.3996    1.0296   -1.2345 H   0  0  0  0  0  0  0  0  0  0  0  0
    6.6693    1.4831   -1.2936 H   0  0  0  0  0  0  0  0  0  0  0  0
    7.2761    0.0855   -2.2282 H   0  0  0  0  0  0  0  0  0  0  0  0
    5.7909   -1.9366    0.5075 H   0  0  0  0  0  0  0  0  0  0  0  0
    6.0440   -2.0817   -1.9813 H   0  0  0  0  0  0  0  0  0  0  0  0
    5.0182   -0.6453   -2.1798 H   0  0  0  0  0  0  0  0  0  0  0  0
    4.4129   -3.2883   -0.7930 H   0  0  0  0  0  0  0  0  0  0  0  0
    3.7568   -2.8574   -2.3985 H   0  0  0  0  0  0  0  0  0  0  0  0
    2.9215   -0.0146   -2.0797 H   0  0  0  0  0  0  0  0  0  0  0  0
    1.3331   -0.1819   -1.3527 H   0  0  0  0  0  0  0  0  0  0  0  0
    1.9159   -1.2045   -2.6957 H   0  0  0  0  0  0  0  0  0  0  0  0
  1  2  1  0  0  0  0
  1 67  1  0  0  0  0
  1 68  1  0  0  0  0
  1 69  1  0  0  0  0
  2  3  1  0  0  0  0
  2  4  2  0  0  0  0
  3 70  1  0  0  0  0
  3 71  1  0  0  0  0
  3 72  1  0  0  0  0
  4  5  1  0  0  0  0
  4 73  1  0  0  0  0
  5  6  1  0  0  0  0
  5 74  1  0  0  0  0
  5 75  1  0  0  0  0
  6  7  1  0  0  0  0
  6 76  1  0  0  0  0
  6 77  1  0  0  0  0
  7  8  1  0  0  0  0
  7  9  1  6  0  0  0
  7 32  1  0  0  0  0
  8 78  1  0  0  0  0
  8 79  1  0  0  0  0
  8 80  1  0  0  0  0
 10  9  1  0  0  0  0
 10 11  1  0  0  0  0
 10 81  1  1  0  0  0
 11 12  1  0  0  0  0
 12 13  1  0  0  0  0
 12 26  1  0  0  0  0
 12 82  1  1  0  0  0
 13 14  1  0  0  0  0
 13 83  1  0  0  0  0
 13 84  1  0  0  0  0
 15 14  1  0  0  0  0
 15 16  1  0  0  0  0
 15 85  1  6  0  0  0
 16 17  1  0  0  0  0
 17 18  1  0  0  0  0
 17 20  1  0  0  0  0
 17 86  1  6  0  0  0
 18 19  1  0  0  0  0
 18 87  1  0  0  0  0
 18 88  1  0  0  0  0
 19 89  1  0  0  0  0
 20 21  1  0  0  0  0
 20 22  1  0  0  0  0
 20 90  1  6  0  0  0
 21 91  1  0  0  0  0
 22 23  1  0  0  0  0
 22 24  1  0  0  0  0
 22 92  1  6  0  0  0
 23 93  1  0  0  0  0
 24 25  1  0  0  0  0
 24 15  1  0  0  0  0
 24 94  1  1  0  0  0
 25 95  1  0  0  0  0
 26 27  1  0  0  0  0
 26 28  1  0  0  0  0
 26 96  1  1  0  0  0
 27 97  1  0  0  0  0
 28 29  1  0  0  0  0
 28 30  1  0  0  0  0
 28 98  1  1  0  0  0
 29 99  1  0  0  0  0
 30 31  1  0  0  0  0
 30 10  1  0  0  0  0
 30100  1  6  0  0  0
 31101  1  0  0  0  0
 32 33  1  0  0  0  0
 32102  1  1  0  0  0
 33 34  1  0  0  0  0
 33103  1  0  0  0  0
 33104  1  0  0  0  0
 34 35  1  0  0  0  0
 34105  1  0  0  0  0
 34106  1  0  0  0  0
 35 36  1  1  0  0  0
 35 37  1  0  0  0  0
 36107  1  0  0  0  0
 36108  1  0  0  0  0
 36109  1  0  0  0  0
 37 38  1  0  0  0  0
 37 32  1  0  0  0  0
 37110  1  6  0  0  0
 38 39  1  0  0  0  0
 38 40  1  0  0  0  0
 38111  1  1  0  0  0
 39112  1  0  0  0  0
 40113  1  0  0  0  0
 40114  1  0  0  0  0
 41 40  1  0  0  0  0
 41 42  1  0  0  0  0
 41115  1  1  0  0  0
 42 43  1  6  0  0  0
 42 44  1  0  0  0  0
 43116  1  0  0  0  0
 43117  1  0  0  0  0
 43118  1  0  0  0  0
 44 45  1  0  0  0  0
 44119  1  0  0  0  0
 44120  1  0  0  0  0
 45 46  1  0  0  0  0
 45121  1  0  0  0  0
 45122  1  0  0  0  0
 46 47  1  0  0  0  0
 46 59  1  0  0  0  0
 46123  1  1  0  0  0
 48 47  1  0  0  0  0
 48 49  1  0  0  0  0
 48124  1  1  0  0  0
 49 50  1  0  0  0  0
 50 51  1  0  0  0  0
 50 53  1  0  0  0  0
 50125  1  1  0  0  0
 51 52  1  0  0  0  0
 51126  1  0  0  0  0
 51127  1  0  0  0  0
 52128  1  0  0  0  0
 53 54  1  0  0  0  0
 53 55  1  0  0  0  0
 53129  1  6  0  0  0
 54130  1  0  0  0  0
 55 56  1  0  0  0  0
 55 57  1  0  0  0  0
 55131  1  1  0  0  0
 56132  1  0  0  0  0
 57 58  1  0  0  0  0
 57 48  1  0  0  0  0
 57133  1  6  0  0  0
 58134  1  0  0  0  0
 59 60  1  0  0  0  0
 59 61  1  0  0  0  0
 59 62  1  0  0  0  0
 60135  1  0  0  0  0
 60136  1  0  0  0  0
 60137  1  0  0  0  0
 61138  1  0  0  0  0
 61139  1  0  0  0  0
 61140  1  0  0  0  0
 62 63  1  0  0  0  0
 62 42  1  0  0  0  0
 62141  1  1  0  0  0
 63 64  1  0  0  0  0
 63142  1  0  0  0  0
 63143  1  0  0  0  0
 64 65  1  0  0  0  0
 64144  1  0  0  0  0
 64145  1  0  0  0  0
 65 66  1  6  0  0  0
 65 41  1  0  0  0  0
 65 35  1  0  0  0  0
 66146  1  0  0  0  0
 66147  1  0  0  0  0
 66148  1  0  0  0  0
M  END
>  <IDENTIFIER>
CNP0189051.3

>  <Energy>
2145.06

$$$$
