
 OpenBabel09082505533D

114119  0  0  0  0  0  0  0  0999 V2000
    6.7144   -6.1954   -1.1483 C   0  0  0  0  0  0  0  0  0  0  0  0
    5.5107   -5.4968   -1.7738 C   0  0  0  0  0  0  0  0  0  0  0  0
    4.4891   -4.9806   -0.7407 C   0  0  1  0  0  0  0  0  0  0  0  0
    5.0659   -3.9041    0.2252 C   0  0  0  0  0  0  0  0  0  0  0  0
    5.5389   -2.6130   -0.5004 C   0  0  0  0  0  0  0  0  0  0  0  0
    5.6953   -1.3674    0.4135 C   0  0  0  0  0  0  0  0  0  0  0  0
    4.4059   -0.4839    0.5677 C   0  0  2  0  0  0  0  0  0  0  0  0
    4.6742    0.6272    1.4137 O   0  0  0  0  0  0  0  0  0  0  0  0
    5.3145    1.7020    0.7438 C   0  0  1  0  0  0  0  0  0  0  0  0
    4.5604    3.0086    1.1099 C   0  0  0  0  0  0  0  0  0  0  0  0
    5.4693    3.9234    1.9255 C   0  0  0  0  0  0  0  0  0  0  0  0
    6.7538    4.2108    1.1210 C   0  0  2  0  0  0  0  0  0  0  0  0
    6.4423    5.1144   -0.0073 N   0  0  0  0  0  0  0  0  0  0  0  0
    7.6427    5.6245   -0.6753 C   0  0  0  0  0  0  0  0  0  0  0  0
    7.3453    2.8541    0.6012 C   0  0  1  0  0  0  0  0  0  0  0  0
    8.8354    2.7472    0.9380 C   0  0  0  0  0  0  0  0  0  0  0  0
    6.6755    1.7381    1.1683 O   0  0  0  0  0  0  0  0  0  0  0  0
    3.1753   -1.2350    1.1228 C   0  0  1  0  0  0  0  0  0  0  0  0
    3.3771   -1.6808    2.5836 C   0  0  0  0  0  0  0  0  0  0  0  0
    1.8703   -0.4703    1.0091 C   0  0  0  0  0  0  0  0  0  0  0  0
    1.7255    0.5251    1.7064 O   0  0  0  0  0  0  0  0  0  0  0  0
    0.6948   -0.9573    0.1953 C   0  0  0  0  0  0  0  0  0  0  0  0
   -0.5619   -0.5822    0.5017 C   0  0  0  0  0  0  0  0  0  0  0  0
   -1.5908   -1.3240   -0.3110 C   0  0  2  0  0  0  0  0  0  0  0  0
   -0.7467   -2.4992   -0.8543 C   0  0  1  0  0  0  0  0  0  0  0  0
   -1.3396   -3.1830   -2.0681 C   0  0  0  0  0  0  0  0  0  0  0  0
   -2.3935   -2.6868   -2.7401 C   0  0  0  0  0  0  0  0  0  0  0  0
   -3.0005   -1.3444   -2.4077 C   0  0  1  0  0  0  0  0  0  0  0  0
   -4.3970   -1.4194   -1.7743 C   0  0  0  0  0  0  0  0  0  0  0  0
   -4.4591   -0.2203   -0.8044 C   0  0  2  0  0  0  0  0  0  0  0  0
   -5.6046    0.5755   -1.0302 O   0  0  0  0  0  0  0  0  0  0  0  0
   -6.6322    0.3638   -0.0798 C   0  0  2  0  0  0  0  0  0  0  0  0
   -7.8351   -0.0237   -0.7537 O   0  0  0  0  0  0  0  0  0  0  0  0
   -8.5979    1.1012   -1.1313 C   0  0  1  0  0  0  0  0  0  0  0  0
   -9.7047    0.6789   -2.0949 C   0  0  0  0  0  0  0  0  0  0  0  0
   -9.1735    1.8315    0.1191 C   0  0  2  0  0  0  0  0  0  0  0  0
   -9.3178    3.2022   -0.2275 O   0  0  0  0  0  0  0  0  0  0  0  0
  -10.6593    3.6187   -0.1211 C   0  0  0  0  0  0  0  0  0  0  0  0
   -8.2062    1.7056    1.3304 C   0  0  1  0  0  0  0  0  0  0  0  0
   -8.4797    0.4933    2.0246 O   0  0  0  0  0  0  0  0  0  0  0  0
   -8.6589    0.7300    3.4033 C   0  0  0  0  0  0  0  0  0  0  0  0
   -6.7726    1.6503    0.7926 C   0  0  1  0  0  0  0  0  0  0  0  0
   -5.8297    1.6016    1.8525 O   0  0  0  0  0  0  0  0  0  0  0  0
   -5.0962    2.8015    1.9284 C   0  0  0  0  0  0  0  0  0  0  0  0
   -3.1939    0.5893   -1.0855 C   0  0  0  0  0  0  0  0  0  0  0  0
   -2.1660   -0.4709   -1.4694 C   0  0  1  0  0  0  0  0  0  0  0  0
    0.6159   -1.8560   -1.0457 C   0  0  2  0  0  0  0  0  0  0  0  0
    1.7614   -2.6972   -1.6433 C   0  0  0  0  0  0  0  0  0  0  0  0
    2.3039   -3.8891   -0.9156 C   0  0  0  0  0  0  0  0  0  0  0  0
    1.8505   -4.2568    0.1582 O   0  0  0  0  0  0  0  0  0  0  0  0
    3.4292   -4.4322   -1.4444 O   0  0  0  0  0  0  0  0  0  0  0  0
    7.3747   -6.5757   -1.9561 H   0  0  0  0  0  0  0  0  0  0  0  0
    6.3814   -7.0539   -0.5273 H   0  0  0  0  0  0  0  0  0  0  0  0
    7.3048   -5.4921   -0.5265 H   0  0  0  0  0  0  0  0  0  0  0  0
    4.9953   -6.2310   -2.4320 H   0  0  0  0  0  0  0  0  0  0  0  0
    5.8641   -4.6615   -2.4155 H   0  0  0  0  0  0  0  0  0  0  0  0
    4.1246   -5.8448   -0.1414 H   0  0  0  0  0  0  0  0  0  0  0  0
    5.8929   -4.3045    0.8482 H   0  0  0  0  0  0  0  0  0  0  0  0
    4.2645   -3.7066    0.9438 H   0  0  0  0  0  0  0  0  0  0  0  0
    4.8768   -2.3266   -1.3424 H   0  0  0  0  0  0  0  0  0  0  0  0
    6.5268   -2.8656   -0.9424 H   0  0  0  0  0  0  0  0  0  0  0  0
    6.4307   -0.7039   -0.0913 H   0  0  0  0  0  0  0  0  0  0  0  0
    6.1440   -1.6585    1.3866 H   0  0  0  0  0  0  0  0  0  0  0  0
    4.0925   -0.1664   -0.4554 H   0  0  0  0  0  0  0  0  0  0  0  0
    5.2759    1.5940   -0.3674 H   0  0  0  0  0  0  0  0  0  0  0  0
    3.6291    2.7908    1.6777 H   0  0  0  0  0  0  0  0  0  0  0  0
    4.2626    3.5406    0.1803 H   0  0  0  0  0  0  0  0  0  0  0  0
    5.7379    3.3975    2.8698 H   0  0  0  0  0  0  0  0  0  0  0  0
    4.9532    4.8666    2.2070 H   0  0  0  0  0  0  0  0  0  0  0  0
    7.4412    4.7231    1.8340 H   0  0  0  0  0  0  0  0  0  0  0  0
    5.9245    5.9484    0.3572 H   0  0  0  0  0  0  0  0  0  0  0  0
    8.2130    4.8043   -1.1553 H   0  0  0  0  0  0  0  0  0  0  0  0
    8.2919    6.1716    0.0419 H   0  0  0  0  0  0  0  0  0  0  0  0
    7.3393    6.3254   -1.4820 H   0  0  0  0  0  0  0  0  0  0  0  0
    7.2582    2.7870   -0.5079 H   0  0  0  0  0  0  0  0  0  0  0  0
    8.9813    2.7737    2.0397 H   0  0  0  0  0  0  0  0  0  0  0  0
    9.4079    3.5822    0.4844 H   0  0  0  0  0  0  0  0  0  0  0  0
    9.2430    1.7892    0.5517 H   0  0  0  0  0  0  0  0  0  0  0  0
    3.0442   -2.1015    0.5116 H   0  0  0  0  0  0  0  0  0  0  0  0
    3.4761   -0.8008    3.2543 H   0  0  0  0  0  0  0  0  0  0  0  0
    4.2871   -2.3009    2.7032 H   0  0  0  0  0  0  0  0  0  0  0  0
    2.5055   -2.2832    2.9187 H   0  0  0  0  0  0  0  0  0  0  0  0
   -0.8212    0.0982    1.3038 H   0  0  0  0  0  0  0  0  0  0  0  0
   -2.3976   -1.7642    0.3124 H   0  0  0  0  0  0  0  0  0  0  0  0
   -0.6577   -3.2489   -0.0339 H   0  0  0  0  0  0  0  0  0  0  0  0
   -0.9100   -4.1294   -2.3838 H   0  0  0  0  0  0  0  0  0  0  0  0
   -2.8149   -3.2616   -3.5592 H   0  0  0  0  0  0  0  0  0  0  0  0
   -3.0850   -0.7438   -3.3437 H   0  0  0  0  0  0  0  0  0  0  0  0
   -4.5358   -2.3405   -1.1673 H   0  0  0  0  0  0  0  0  0  0  0  0
   -5.1642   -1.3967   -2.5804 H   0  0  0  0  0  0  0  0  0  0  0  0
   -4.3366   -0.5855    0.2425 H   0  0  0  0  0  0  0  0  0  0  0  0
   -6.4442   -0.4833    0.6213 H   0  0  0  0  0  0  0  0  0  0  0  0
   -7.9283    1.7915   -1.6998 H   0  0  0  0  0  0  0  0  0  0  0  0
  -10.4009   -0.0276   -1.5940 H   0  0  0  0  0  0  0  0  0  0  0  0
   -9.2602    0.1711   -2.9773 H   0  0  0  0  0  0  0  0  0  0  0  0
  -10.2733    1.5642   -2.4469 H   0  0  0  0  0  0  0  0  0  0  0  0
  -10.1288    1.3564    0.4581 H   0  0  0  0  0  0  0  0  0  0  0  0
  -10.7200    4.6788   -0.4428 H   0  0  0  0  0  0  0  0  0  0  0  0
  -11.0066    3.5687    0.9338 H   0  0  0  0  0  0  0  0  0  0  0  0
  -11.3187    3.0341   -0.7991 H   0  0  0  0  0  0  0  0  0  0  0  0
   -8.3560    2.6094    1.9722 H   0  0  0  0  0  0  0  0  0  0  0  0
   -8.8339   -0.2427    3.9068 H   0  0  0  0  0  0  0  0  0  0  0  0
   -9.5564    1.3621    3.5841 H   0  0  0  0  0  0  0  0  0  0  0  0
   -7.7463    1.1768    3.8558 H   0  0  0  0  0  0  0  0  0  0  0  0
   -6.6514    2.5481    0.1334 H   0  0  0  0  0  0  0  0  0  0  0  0
   -4.4006    2.7330    2.7897 H   0  0  0  0  0  0  0  0  0  0  0  0
   -5.7668    3.6699    2.1127 H   0  0  0  0  0  0  0  0  0  0  0  0
   -4.4785    2.9467    1.0149 H   0  0  0  0  0  0  0  0  0  0  0  0
   -2.8930    1.2820   -0.2712 H   0  0  0  0  0  0  0  0  0  0  0  0
   -3.3787    1.2025   -1.9990 H   0  0  0  0  0  0  0  0  0  0  0  0
   -1.3232   -0.0016   -2.0189 H   0  0  0  0  0  0  0  0  0  0  0  0
    0.4798   -1.1215   -1.8692 H   0  0  0  0  0  0  0  0  0  0  0  0
    2.6066   -1.9949   -1.8121 H   0  0  0  0  0  0  0  0  0  0  0  0
    1.4440   -3.0609   -2.6452 H   0  0  0  0  0  0  0  0  0  0  0  0
  1  2  1  0  0  0  0
  1 52  1  0  0  0  0
  1 53  1  0  0  0  0
  1 54  1  0  0  0  0
  2 55  1  0  0  0  0
  2 56  1  0  0  0  0
  3  2  1  0  0  0  0
  3  4  1  0  0  0  0
  3 57  1  1  0  0  0
  4  5  1  0  0  0  0
  4 58  1  0  0  0  0
  4 59  1  0  0  0  0
  5  6  1  0  0  0  0
  5 60  1  0  0  0  0
  5 61  1  0  0  0  0
  6  7  1  0  0  0  0
  6 62  1  0  0  0  0
  6 63  1  0  0  0  0
  7  8  1  0  0  0  0
  7 18  1  0  0  0  0
  7 64  1  6  0  0  0
  9  8  1  0  0  0  0
  9 10  1  0  0  0  0
  9 65  1  6  0  0  0
 10 11  1  0  0  0  0
 10 66  1  0  0  0  0
 10 67  1  0  0  0  0
 11 12  1  0  0  0  0
 11 68  1  0  0  0  0
 11 69  1  0  0  0  0
 12 13  1  0  0  0  0
 12 15  1  0  0  0  0
 12 70  1  1  0  0  0
 13 14  1  0  0  0  0
 13 71  1  0  0  0  0
 14 72  1  0  0  0  0
 14 73  1  0  0  0  0
 14 74  1  0  0  0  0
 15 16  1  0  0  0  0
 15 17  1  0  0  0  0
 15 75  1  6  0  0  0
 16 76  1  0  0  0  0
 16 77  1  0  0  0  0
 16 78  1  0  0  0  0
 17  9  1  0  0  0  0
 18 19  1  0  0  0  0
 18 20  1  0  0  0  0
 18 79  1  6  0  0  0
 19 80  1  0  0  0  0
 19 81  1  0  0  0  0
 19 82  1  0  0  0  0
 20 21  2  0  0  0  0
 20 22  1  0  0  0  0
 22 23  2  0  0  0  0
 23 83  1  0  0  0  0
 24 23  1  0  0  0  0
 24 25  1  0  0  0  0
 24 84  1  1  0  0  0
 25 26  1  0  0  0  0
 25 47  1  0  0  0  0
 25 85  1  1  0  0  0
 26 27  2  0  0  0  0
 26 86  1  0  0  0  0
 27 28  1  0  0  0  0
 27 87  1  0  0  0  0
 28 29  1  0  0  0  0
 28 88  1  6  0  0  0
 29 30  1  0  0  0  0
 29 89  1  0  0  0  0
 29 90  1  0  0  0  0
 30 31  1  0  0  0  0
 30 45  1  0  0  0  0
 30 91  1  1  0  0  0
 32 31  1  0  0  0  0
 32 33  1  0  0  0  0
 32 92  1  1  0  0  0
 33 34  1  0  0  0  0
 34 35  1  0  0  0  0
 34 36  1  0  0  0  0
 34 93  1  6  0  0  0
 35 94  1  0  0  0  0
 35 95  1  0  0  0  0
 35 96  1  0  0  0  0
 36 37  1  0  0  0  0
 36 39  1  0  0  0  0
 36 97  1  1  0  0  0
 37 38  1  0  0  0  0
 38 98  1  0  0  0  0
 38 99  1  0  0  0  0
 38100  1  0  0  0  0
 39 40  1  0  0  0  0
 39 42  1  0  0  0  0
 39101  1  1  0  0  0
 40 41  1  0  0  0  0
 41102  1  0  0  0  0
 41103  1  0  0  0  0
 41104  1  0  0  0  0
 42 43  1  0  0  0  0
 42 32  1  0  0  0  0
 42105  1  6  0  0  0
 43 44  1  0  0  0  0
 44106  1  0  0  0  0
 44107  1  0  0  0  0
 44108  1  0  0  0  0
 45109  1  0  0  0  0
 45110  1  0  0  0  0
 46 45  1  0  0  0  0
 46 24  1  0  0  0  0
 46 28  1  0  0  0  0
 46111  1  6  0  0  0
 47 48  1  0  0  0  0
 47 22  1  0  0  0  0
 47112  1  6  0  0  0
 48 49  1  0  0  0  0
 48113  1  0  0  0  0
 48114  1  0  0  0  0
 49 50  2  0  0  0  0
 49 51  1  0  0  0  0
 51  3  1  0  0  0  0
M  END
>  <IDENTIFIER>
CNP0259693.1

>  <Energy>
1542.16

$$$$
