
 OpenBabel09092500253D

 40 41  0  0  0  0  0  0  0  0999 V2000
    0.2239   -2.9319    1.0596 C   0  0  0  0  0  0  0  0  0  0  0  0
   -0.3454   -1.7550    0.7220 C   0  0  0  0  0  0  0  0  0  0  0  0
    0.4619   -0.4574    0.6137 C   0  0  0  0  0  0  0  0  0  0  0  0
    1.9574   -0.5617    0.9520 C   0  0  0  0  0  0  0  0  0  0  0  0
    2.6162    0.8178    0.7972 C   0  0  1  0  0  0  0  0  0  0  0  0
    4.0326    0.7333    0.9493 O   0  0  0  0  0  0  0  0  0  0  0  0
    3.5596    1.1166   -0.3142 C   0  0  0  0  0  0  0  0  0  0  0  0
    3.7607    2.5982   -0.6314 C   0  0  0  0  0  0  0  0  0  0  0  0
    3.9051    0.1040   -1.4133 C   0  0  0  0  0  0  0  0  0  0  0  0
   -1.8545   -1.7269    0.4681 C   0  0  1  0  0  0  0  0  0  0  0  0
   -2.6029   -0.8336    1.5007 C   0  0  0  0  0  0  0  0  0  0  0  0
   -2.7598    0.5766    1.0008 C   0  0  0  0  0  0  0  0  0  0  0  0
   -3.2202    0.7448   -0.2567 C   0  0  0  0  0  0  0  0  0  0  0  0
   -3.3927    2.1139   -0.8511 C   0  0  0  0  0  0  0  0  0  0  0  0
   -3.4819   -0.4991   -1.0923 C   0  0  0  0  0  0  0  0  0  0  0  0
   -2.1975   -1.3451   -1.0150 C   0  0  0  0  0  0  0  0  0  0  0  0
    1.2808   -3.0376    1.2668 H   0  0  0  0  0  0  0  0  0  0  0  0
   -0.3678   -3.8385    1.1390 H   0  0  0  0  0  0  0  0  0  0  0  0
    0.0134    0.2882    1.3041 H   0  0  0  0  0  0  0  0  0  0  0  0
    0.3834   -0.0652   -0.4196 H   0  0  0  0  0  0  0  0  0  0  0  0
    2.4226   -1.3231    0.3036 H   0  0  0  0  0  0  0  0  0  0  0  0
    2.0731   -0.8868    2.0085 H   0  0  0  0  0  0  0  0  0  0  0  0
    2.2503    1.6443    1.4437 H   0  0  0  0  0  0  0  0  0  0  0  0
    4.8046    2.7700   -0.9680 H   0  0  0  0  0  0  0  0  0  0  0  0
    3.5688    3.2430    0.2526 H   0  0  0  0  0  0  0  0  0  0  0  0
    3.0676    2.8948   -1.4466 H   0  0  0  0  0  0  0  0  0  0  0  0
    4.8925    0.3648   -1.8484 H   0  0  0  0  0  0  0  0  0  0  0  0
    3.1398    0.1490   -2.2153 H   0  0  0  0  0  0  0  0  0  0  0  0
    3.9995   -0.9344   -1.0433 H   0  0  0  0  0  0  0  0  0  0  0  0
   -2.2736   -2.7430    0.6510 H   0  0  0  0  0  0  0  0  0  0  0  0
   -2.1771   -0.9030    2.5244 H   0  0  0  0  0  0  0  0  0  0  0  0
   -3.6449   -1.2197    1.5703 H   0  0  0  0  0  0  0  0  0  0  0  0
   -2.4954    1.4181    1.6326 H   0  0  0  0  0  0  0  0  0  0  0  0
   -3.1344    2.9123   -0.1234 H   0  0  0  0  0  0  0  0  0  0  0  0
   -4.4492    2.2486   -1.1626 H   0  0  0  0  0  0  0  0  0  0  0  0
   -2.7350    2.2170   -1.7385 H   0  0  0  0  0  0  0  0  0  0  0  0
   -3.7200   -0.2279   -2.1432 H   0  0  0  0  0  0  0  0  0  0  0  0
   -4.3359   -1.0799   -0.6807 H   0  0  0  0  0  0  0  0  0  0  0  0
   -1.4120   -0.6946   -1.4497 H   0  0  0  0  0  0  0  0  0  0  0  0
   -2.2355   -2.2557   -1.6497 H   0  0  0  0  0  0  0  0  0  0  0  0
  1  2  2  0  0  0  0
  1 17  1  0  0  0  0
  1 18  1  0  0  0  0
  2  3  1  0  0  0  0
  3  4  1  0  0  0  0
  3 19  1  0  0  0  0
  3 20  1  0  0  0  0
  4 21  1  0  0  0  0
  4 22  1  0  0  0  0
  5  4  1  0  0  0  0
  5  6  1  0  0  0  0
  5 23  1  1  0  0  0
  6  7  1  0  0  0  0
  7  8  1  0  0  0  0
  7  9  1  0  0  0  0
  7  5  1  0  0  0  0
  8 24  1  0  0  0  0
  8 25  1  0  0  0  0
  8 26  1  0  0  0  0
  9 27  1  0  0  0  0
  9 28  1  0  0  0  0
  9 29  1  0  0  0  0
 10  2  1  0  0  0  0
 10 11  1  0  0  0  0
 10 30  1  1  0  0  0
 11 12  1  0  0  0  0
 11 31  1  0  0  0  0
 11 32  1  0  0  0  0
 12 13  2  0  0  0  0
 12 33  1  0  0  0  0
 13 14  1  0  0  0  0
 13 15  1  0  0  0  0
 14 34  1  0  0  0  0
 14 35  1  0  0  0  0
 14 36  1  0  0  0  0
 15 16  1  0  0  0  0
 15 37  1  0  0  0  0
 15 38  1  0  0  0  0
 16 10  1  0  0  0  0
 16 39  1  0  0  0  0
 16 40  1  0  0  0  0
M  END
>  <IDENTIFIER>
CNP0236821.1

>  <Energy>
1762.69

$$$$
