
 OpenBabel09122513053D

105110  0  0  0  0  0  0  0  0999 V2000
   -3.6205   -4.1615    3.0763 C   0  0  0  0  0  0  0  0  0  0  0  0
   -3.1817   -3.1588    1.9902 C   0  0  2  0  0  0  0  0  0  0  0  0
   -2.8376   -3.9286    0.6916 C   0  0  0  0  0  0  0  0  0  0  0  0
   -2.7247   -2.9316   -0.4611 C   0  0  0  0  0  0  0  0  0  0  0  0
   -1.5861   -1.8774   -0.2802 C   0  0  2  0  0  0  0  0  0  0  0  0
   -2.0204   -0.6865   -1.1566 C   0  0  0  0  0  0  0  0  0  0  0  0
   -1.3494   -0.2520   -2.0804 O   0  0  0  0  0  0  0  0  0  0  0  0
   -3.2616   -0.1919   -0.9006 O   0  0  0  0  0  0  0  0  0  0  0  0
   -3.9764    0.8214   -1.4914 C   0  0  2  0  0  0  0  0  0  0  0  0
   -4.4271    1.6613   -0.4406 O   0  0  0  0  0  0  0  0  0  0  0  0
   -5.2738    2.7062   -0.8923 C   0  0  2  0  0  0  0  0  0  0  0  0
   -5.6220    3.5603    0.3394 C   0  0  0  0  0  0  0  0  0  0  0  0
   -6.4333    4.6532    0.0054 O   0  0  0  0  0  0  0  0  0  0  0  0
   -6.5560    2.1247   -1.5499 C   0  0  1  0  0  0  0  0  0  0  0  0
   -7.4324    3.1335   -1.9872 O   0  0  0  0  0  0  0  0  0  0  0  0
   -6.1547    1.2166   -2.7234 C   0  0  2  0  0  0  0  0  0  0  0  0
   -7.2827    0.6229   -3.3183 O   0  0  0  0  0  0  0  0  0  0  0  0
   -5.1737    0.1552   -2.2096 C   0  0  1  0  0  0  0  0  0  0  0  0
   -4.7397   -0.6834   -3.2515 O   0  0  0  0  0  0  0  0  0  0  0  0
   -0.2333   -2.4716   -0.8005 C   0  0  0  0  0  0  0  0  0  0  0  0
    1.0106   -1.5757   -0.4808 C   0  0  0  0  0  0  0  0  0  0  0  0
    1.2030   -1.3307    1.0500 C   0  0  2  0  0  0  0  0  0  0  0  0
    1.4373   -2.7587    1.6678 C   0  0  0  0  0  0  0  0  0  0  0  0
   -0.1423   -0.6348    1.4067 C   0  0  0  0  0  0  0  0  0  0  0  0
   -0.2009    0.7088    1.5723 C   0  0  0  0  0  0  0  0  0  0  0  0
    0.9429    1.6911    1.4911 C   0  0  0  0  0  0  0  0  0  0  0  0
    2.3714    1.1311    1.2203 C   0  0  2  0  0  0  0  0  0  0  0  0
    3.2712    1.7512    0.0425 C   0  0  2  0  0  0  0  0  0  0  0  0
    3.2091    3.3123    0.1748 C   0  0  0  0  0  0  0  0  0  0  0  0
    2.7023    1.3437   -1.3367 C   0  0  0  0  0  0  0  0  0  0  0  0
    3.5901    1.7514   -2.5339 C   0  0  2  0  0  0  0  0  0  0  0  0
    2.9487    1.4681   -3.7540 O   0  0  0  0  0  0  0  0  0  0  0  0
    4.9657    1.0409   -2.4734 C   0  0  2  0  0  0  0  0  0  0  0  0
    4.8364   -0.3311   -2.7618 O   0  0  0  0  0  0  0  0  0  0  0  0
    5.7405    1.3419   -1.1357 C   0  0  2  0  0  0  0  0  0  0  0  0
    6.3069    2.7975   -1.2520 C   0  0  0  0  0  0  0  0  0  0  0  0
    7.0585    0.4681   -1.0656 C   0  0  0  0  0  0  0  0  0  0  0  0
    6.9083   -0.9179   -1.2735 O   0  0  0  0  0  0  0  0  0  0  0  0
    4.8060    1.2654    0.1946 C   0  0  2  0  0  0  0  0  0  0  0  0
    4.9589    0.0227    1.1363 C   0  0  0  0  0  0  0  0  0  0  0  0
    3.8254   -0.9817    0.9956 C   0  0  0  0  0  0  0  0  0  0  0  0
    2.4668   -0.4162    1.5412 C   0  0  2  0  0  0  0  0  0  0  0  0
    2.5243   -0.4731    3.1242 C   0  0  0  0  0  0  0  0  0  0  0  0
   -1.5030   -1.3580    1.2222 C   0  0  2  0  0  0  0  0  0  0  0  0
   -1.9602   -2.2924    2.4217 C   0  0  1  0  0  0  0  0  0  0  0  0
   -2.3597   -1.3663    3.6200 C   0  0  0  0  0  0  0  0  0  0  0  0
   -0.9578   -3.1879    2.8187 O   0  0  0  0  0  0  0  0  0  0  0  0
   -4.4872   -4.7541    2.7141 H   0  0  0  0  0  0  0  0  0  0  0  0
   -3.9532   -3.6423    3.9964 H   0  0  0  0  0  0  0  0  0  0  0  0
   -2.7993   -4.8640    3.3307 H   0  0  0  0  0  0  0  0  0  0  0  0
   -4.0585   -2.5013    1.7886 H   0  0  0  0  0  0  0  0  0  0  0  0
   -3.6737   -4.6171    0.4412 H   0  0  0  0  0  0  0  0  0  0  0  0
   -1.9149   -4.5373    0.8051 H   0  0  0  0  0  0  0  0  0  0  0  0
   -3.7265   -2.4496   -0.4873 H   0  0  0  0  0  0  0  0  0  0  0  0
   -2.6154   -3.4520   -1.4382 H   0  0  0  0  0  0  0  0  0  0  0  0
   -3.3432    1.3954   -2.2081 H   0  0  0  0  0  0  0  0  0  0  0  0
   -4.7214    3.3512   -1.6133 H   0  0  0  0  0  0  0  0  0  0  0  0
   -4.6894    3.9207    0.8314 H   0  0  0  0  0  0  0  0  0  0  0  0
   -6.1562    2.9371    1.0891 H   0  0  0  0  0  0  0  0  0  0  0  0
   -5.8430    5.3210   -0.4308 H   0  0  0  0  0  0  0  0  0  0  0  0
   -7.0899    1.5113   -0.7892 H   0  0  0  0  0  0  0  0  0  0  0  0
   -6.9394    3.6974   -2.6385 H   0  0  0  0  0  0  0  0  0  0  0  0
   -5.6424    1.8348   -3.4940 H   0  0  0  0  0  0  0  0  0  0  0  0
   -7.7407    0.0784   -2.6235 H   0  0  0  0  0  0  0  0  0  0  0  0
   -5.7104   -0.4755   -1.4636 H   0  0  0  0  0  0  0  0  0  0  0  0
   -4.2666   -0.1151   -3.9142 H   0  0  0  0  0  0  0  0  0  0  0  0
   -0.3004   -2.6140   -1.8994 H   0  0  0  0  0  0  0  0  0  0  0  0
   -0.0993   -3.4981   -0.4301 H   0  0  0  0  0  0  0  0  0  0  0  0
    0.8218   -0.6141   -0.9844 H   0  0  0  0  0  0  0  0  0  0  0  0
    1.9018   -2.0580   -0.9302 H   0  0  0  0  0  0  0  0  0  0  0  0
    0.7208   -3.5336    1.3943 H   0  0  0  0  0  0  0  0  0  0  0  0
    1.4380   -2.7768    2.7665 H   0  0  0  0  0  0  0  0  0  0  0  0
    2.3886   -3.1960    1.3115 H   0  0  0  0  0  0  0  0  0  0  0  0
   -1.1693    1.1789    1.7223 H   0  0  0  0  0  0  0  0  0  0  0  0
    0.9434    2.2436    2.4573 H   0  0  0  0  0  0  0  0  0  0  0  0
    0.6563    2.4076    0.7021 H   0  0  0  0  0  0  0  0  0  0  0  0
    2.9552    1.6257    2.0296 H   0  0  0  0  0  0  0  0  0  0  0  0
    2.1832    3.7088    0.0825 H   0  0  0  0  0  0  0  0  0  0  0  0
    3.7541    3.8673   -0.5878 H   0  0  0  0  0  0  0  0  0  0  0  0
    3.6088    3.6386    1.1591 H   0  0  0  0  0  0  0  0  0  0  0  0
    1.6849    1.7753   -1.4589 H   0  0  0  0  0  0  0  0  0  0  0  0
    2.6210    0.2615   -1.3772 H   0  0  0  0  0  0  0  0  0  0  0  0
    3.7335    2.8472   -2.5149 H   0  0  0  0  0  0  0  0  0  0  0  0
    2.6646    0.5172   -3.7424 H   0  0  0  0  0  0  0  0  0  0  0  0
    5.5781    1.4308   -3.3168 H   0  0  0  0  0  0  0  0  0  0  0  0
    4.3125   -0.7686   -2.0567 H   0  0  0  0  0  0  0  0  0  0  0  0
    6.9992    2.8899   -2.1174 H   0  0  0  0  0  0  0  0  0  0  0  0
    6.8892    3.0713   -0.3450 H   0  0  0  0  0  0  0  0  0  0  0  0
    5.5654    3.5781   -1.4286 H   0  0  0  0  0  0  0  0  0  0  0  0
    7.6120    0.6538   -0.1196 H   0  0  0  0  0  0  0  0  0  0  0  0
    7.7367    0.7868   -1.8870 H   0  0  0  0  0  0  0  0  0  0  0  0
    6.1074   -1.2526   -0.8111 H   0  0  0  0  0  0  0  0  0  0  0  0
    5.3095    1.9809    0.8841 H   0  0  0  0  0  0  0  0  0  0  0  0
    4.9439    0.3533    2.1946 H   0  0  0  0  0  0  0  0  0  0  0  0
    5.9596   -0.4345    1.0874 H   0  0  0  0  0  0  0  0  0  0  0  0
    4.1019   -1.9027    1.5488 H   0  0  0  0  0  0  0  0  0  0  0  0
    3.7625   -1.2570   -0.0628 H   0  0  0  0  0  0  0  0  0  0  0  0
    2.8136   -1.4622    3.5223 H   0  0  0  0  0  0  0  0  0  0  0  0
    1.5557   -0.1715    3.5744 H   0  0  0  0  0  0  0  0  0  0  0  0
    3.2938    0.1877    3.5697 H   0  0  0  0  0  0  0  0  0  0  0  0
   -2.3328   -0.6184    1.2656 H   0  0  0  0  0  0  0  0  0  0  0  0
   -1.5051   -0.7192    3.9116 H   0  0  0  0  0  0  0  0  0  0  0  0
   -2.6507   -1.9458    4.5175 H   0  0  0  0  0  0  0  0  0  0  0  0
   -3.2131   -0.7064    3.3481 H   0  0  0  0  0  0  0  0  0  0  0  0
   -0.6059   -2.9448    3.7151 H   0  0  0  0  0  0  0  0  0  0  0  0
  1 48  1  0  0  0  0
  1 49  1  0  0  0  0
  1 50  1  0  0  0  0
  2  1  1  0  0  0  0
  2  3  1  0  0  0  0
  2 51  1  6  0  0  0
  3  4  1  0  0  0  0
  3 52  1  0  0  0  0
  3 53  1  0  0  0  0
  4  5  1  0  0  0  0
  4 54  1  0  0  0  0
  4 55  1  0  0  0  0
  5  6  1  6  0  0  0
  5 20  1  0  0  0  0
  6  7  2  0  0  0  0
  6  8  1  0  0  0  0
  9  8  1  0  0  0  0
  9 10  1  0  0  0  0
  9 56  1  6  0  0  0
 10 11  1  0  0  0  0
 11 12  1  0  0  0  0
 11 14  1  0  0  0  0
 11 57  1  6  0  0  0
 12 13  1  0  0  0  0
 12 58  1  0  0  0  0
 12 59  1  0  0  0  0
 13 60  1  0  0  0  0
 14 15  1  0  0  0  0
 14 16  1  0  0  0  0
 14 61  1  1  0  0  0
 15 62  1  0  0  0  0
 16 17  1  0  0  0  0
 16 18  1  0  0  0  0
 16 63  1  6  0  0  0
 17 64  1  0  0  0  0
 18 19  1  0  0  0  0
 18  9  1  0  0  0  0
 18 65  1  1  0  0  0
 19 66  1  0  0  0  0
 20 21  1  0  0  0  0
 20 67  1  0  0  0  0
 20 68  1  0  0  0  0
 21 22  1  0  0  0  0
 21 69  1  0  0  0  0
 21 70  1  0  0  0  0
 22 23  1  1  0  0  0
 22 24  1  0  0  0  0
 23 71  1  0  0  0  0
 23 72  1  0  0  0  0
 23 73  1  0  0  0  0
 24 25  2  0  0  0  0
 25 26  1  0  0  0  0
 25 74  1  0  0  0  0
 26 75  1  0  0  0  0
 26 76  1  0  0  0  0
 27 26  1  0  0  0  0
 27 28  1  0  0  0  0
 27 77  1  1  0  0  0
 28 29  1  1  0  0  0
 28 30  1  0  0  0  0
 29 78  1  0  0  0  0
 29 79  1  0  0  0  0
 29 80  1  0  0  0  0
 30 31  1  0  0  0  0
 30 81  1  0  0  0  0
 30 82  1  0  0  0  0
 31 32  1  0  0  0  0
 31 33  1  0  0  0  0
 31 83  1  1  0  0  0
 32 84  1  0  0  0  0
 33 34  1  0  0  0  0
 33 35  1  0  0  0  0
 33 85  1  6  0  0  0
 34 86  1  0  0  0  0
 35 36  1  6  0  0  0
 35 37  1  0  0  0  0
 35 39  1  0  0  0  0
 36 87  1  0  0  0  0
 36 88  1  0  0  0  0
 36 89  1  0  0  0  0
 37 38  1  0  0  0  0
 37 90  1  0  0  0  0
 37 91  1  0  0  0  0
 38 92  1  0  0  0  0
 39 40  1  0  0  0  0
 39 28  1  0  0  0  0
 39 93  1  1  0  0  0
 40 41  1  0  0  0  0
 40 94  1  0  0  0  0
 40 95  1  0  0  0  0
 41 42  1  0  0  0  0
 41 96  1  0  0  0  0
 41 97  1  0  0  0  0
 42 43  1  1  0  0  0
 42 22  1  0  0  0  0
 42 27  1  0  0  0  0
 43 98  1  0  0  0  0
 43 99  1  0  0  0  0
 43100  1  0  0  0  0
 44 24  1  0  0  0  0
 44 45  1  0  0  0  0
 44  5  1  0  0  0  0
 44101  1  1  0  0  0
 45 46  1  0  0  0  0
 45 47  1  1  0  0  0
 45  2  1  0  0  0  0
 46102  1  0  0  0  0
 46103  1  0  0  0  0
 46104  1  0  0  0  0
 47105  1  0  0  0  0
M  END
>  <IDENTIFIER>
CNP0183445.24

>  <Energy>
1523.37

$$$$
