
 OpenBabel09062514492D

161160  0  0  0  0  0  0  0  0999 V2000
   -6.4952    3.7500    0.0000 C   0  0  0  0  0  0  0  0  0  0  0  0
   -5.1962    3.0000    0.0000 C   0  0  0  0  0  0  0  0  0  0  0  0
   -3.6786    3.4198   -0.2231 C   0  0  0  0  0  0  0  0  0  0  0  0
   -2.7022    2.1491   -0.0316 C   0  0  0  0  0  0  0  0  0  0  0  0
   -1.1370    2.2682   -0.3133 C   0  0  0  0  0  0  0  0  0  0  0  0
   -0.3014    0.9694   -0.0044 C   0  0  0  0  0  0  0  0  0  0  0  0
    1.0574    0.7928   -0.2368 C   0  0  0  0  0  0  0  0  0  0  0  0
    1.8389   -0.5208    0.1325 C   0  0  0  0  0  0  0  0  0  0  0  0
    3.3562   -0.6394   -0.2540 C   0  0  0  0  0  0  0  0  0  0  0  0
    4.1702   -1.7131    0.0946 C   0  0  0  0  0  0  0  0  0  0  0  0
    5.6818   -1.8568   -0.3068 C   0  0  0  0  0  0  0  0  0  0  0  0
    6.5063   -3.0491    0.3019 C   0  0  0  0  0  0  0  0  0  0  0  0
    7.8590   -3.2592    0.0583 C   0  0  0  0  0  0  0  0  0  0  0  0
    8.7678   -4.3173    0.7853 C   0  0  0  0  0  0  0  0  0  0  0  0
    9.7019   -5.2954   -0.0096 C   0  0  0  0  0  0  0  0  0  0  0  0
   10.5608   -6.1745    0.6430 C   0  0  0  0  0  0  0  0  0  0  0  0
   11.4586   -7.2915    0.0014 C   0  0  0  0  0  0  0  0  0  0  0  0
   12.9854   -7.4594    0.4568 C   0  0  0  0  0  0  0  0  0  0  0  0
   13.6419   -8.8432   -0.0093 C   0  0  0  0  0  0  0  0  0  0  0  0
   15.1238   -9.2373    0.3505 C   0  0  0  0  0  0  0  0  0  0  0  0
   15.8532   -8.4517    0.9337 O   0  0  0  0  0  0  0  0  0  0  0  0
   15.5885  -10.5000    0.0000 O   0  0  0  0  0  0  0  0  0  0  0  0
   16.8875  -11.2500    0.0000 C   0  0  0  0  0  2  0  0  0  0  0  0
   18.1865  -12.0000    0.0000 C   0  0  1  0  0  0  0  0  0  0  0  0
   18.8707  -13.3988    0.6061 C   0  0  0  0  0  0  0  0  0  0  0  0
   20.1380  -13.9003    0.0190 O   0  0  0  0  0  0  0  0  0  0  0  0
   20.9235  -15.0548    0.4021 C   0  0  0  0  0  0  0  0  0  0  0  0
   20.6079  -15.6129    1.4419 O   0  0  0  0  0  0  0  0  0  0  0  0
   22.0760  -15.8452   -0.4856 C   0  0  0  0  0  0  0  0  0  0  0  0
   23.5196  -16.4634    0.1141 C   0  0  0  0  0  0  0  0  0  0  0  0
   24.5546  -17.5114   -0.7256 C   0  0  0  0  0  0  0  0  0  0  0  0
   25.9808  -18.0000    0.0000 C   0  0  0  0  0  0  0  0  0  0  0  0
   27.2798  -18.7500    0.0000 C   0  0  0  0  0  0  0  0  0  0  0  0
   28.5788  -19.5000    0.0000 C   0  0  0  0  0  0  0  0  0  0  0  0
   30.2287  -19.8154    0.0037 C   0  0  0  0  0  0  0  0  0  0  0  0
   30.8307  -21.4065    0.0134 C   0  0  0  0  0  0  0  0  0  0  0  0
   32.4760  -21.7500    0.0000 C   0  0  0  0  0  0  0  0  0  0  0  0
   33.7750  -22.5000    0.0000 C   0  0  0  0  0  2  0  0  0  0  0  0
   35.0740  -23.2500    0.0000 C   0  0  0  0  0  0  0  0  0  0  0  0
   36.3731  -24.0000    0.0000 C   0  0  0  0  0  0  0  0  0  0  0  0
   37.6721  -24.7500    0.0000 C   0  0  0  0  0  2  0  0  0  0  0  0
   38.9711  -25.5000    0.0000 C   0  0  0  0  0  0  0  0  0  0  0  0
   40.5916  -25.6963   -0.5511 C   0  0  0  0  0  0  0  0  0  0  0  0
   41.5692  -27.0000    0.0000 C   0  0  0  0  0  0  0  0  0  0  0  0
   42.8683  -27.7500    0.0000 C   0  0  0  0  0  0  0  0  0  0  0  0
   19.1100  -10.8815    0.2051 O   0  0  0  0  0  0  0  0  0  0  0  0
   20.4556  -10.5074   -0.0741 C   0  0  0  0  0  0  0  0  0  0  0  0
   21.2410  -11.3477   -0.4796 O   0  0  0  0  0  0  0  0  0  0  0  0
   20.9732   -8.9862    0.1055 C   0  0  0  0  0  0  0  0  0  0  0  0
   22.5179   -8.4303   -0.1263 C   0  0  0  0  0  0  0  0  0  0  0  0
   22.6865   -6.8038    0.0000 C   0  0  0  0  0  0  0  0  0  0  0  0
   23.4365   -5.5048    0.0000 C   0  0  0  0  0  0  0  0  0  0  0  0
   24.1865   -4.2058    0.0000 C   0  0  0  0  0  0  0  0  0  0  0  0
   24.4342   -2.8927    0.9682 C   0  0  0  0  0  0  0  0  0  0  0  0
   25.1684   -1.5678    0.2673 C   0  0  0  0  0  2  0  0  0  0  0  0
   25.9002   -0.2889    0.9718 C   0  0  0  0  0  0  0  0  0  0  0  0
   26.2400    0.9573    0.3543 C   0  0  0  0  0  0  0  0  0  0  0  0
   27.0523    2.2499    0.9551 C   0  0  0  0  0  0  0  0  0  0  0  0
   27.1865    3.5885    0.0000 C   0  0  0  0  0  0  0  0  0  0  0  0
   27.9365    4.8875    0.0000 C   0  0  0  0  0  0  0  0  0  0  0  0
   28.6865    6.1865    0.0000 C   0  0  0  0  0  0  0  0  0  0  0  0
   29.4365    7.4856    0.0000 C   0  0  0  0  0  0  0  0  0  0  0  0
   30.1865    8.7846    0.0000 C   0  0  0  0  0  0  0  0  0  0  0  0
   30.9365   10.0836    0.0000 C   0  0  0  0  0  0  0  0  0  0  0  0
   31.6865   11.3827    0.0000 C   0  0  0  0  0  0  0  0  0  0  0  0
   -6.2481    4.3935    0.8727 H   0  0  0  0  0  0  0  0  0  0  0  0
   -7.1526    2.8956    0.2860 H   0  0  0  0  0  0  0  0  0  0  0  0
   -7.4218    4.2850    0.0000 H   0  0  0  0  0  0  0  0  0  0  0  0
   -5.3486    2.2143   -0.7749 H   0  0  0  0  0  0  0  0  0  0  0  0
   -5.1679    2.4662    0.9822 H   0  0  0  0  0  0  0  0  0  0  0  0
   -3.5680    3.8279   -1.2496 H   0  0  0  0  0  0  0  0  0  0  0  0
   -3.3935    4.2057    0.5079 H   0  0  0  0  0  0  0  0  0  0  0  0
   -2.8230    1.8041    1.0181 H   0  0  0  0  0  0  0  0  0  0  0  0
   -3.0722    1.3382   -0.6952 H   0  0  0  0  0  0  0  0  0  0  0  0
   -1.0060    2.5297   -1.3845 H   0  0  0  0  0  0  0  0  0  0  0  0
   -0.7235    3.0952    0.3020 H   0  0  0  0  0  0  0  0  0  0  0  0
   -0.8419    0.1362    0.4348 H   0  0  0  0  0  0  0  0  0  0  0  0
    1.6123    1.6069   -0.6920 H   0  0  0  0  0  0  0  0  0  0  0  0
    1.7585   -0.6421    1.2334 H   0  0  0  0  0  0  0  0  0  0  0  0
    1.3185   -1.3755   -0.3485 H   0  0  0  0  0  0  0  0  0  0  0  0
    3.7942    0.1705   -0.8300 H   0  0  0  0  0  0  0  0  0  0  0  0
    3.7353   -2.5079    0.6921 H   0  0  0  0  0  0  0  0  0  0  0  0
    5.7372   -1.9116   -1.4146 H   0  0  0  0  0  0  0  0  0  0  0  0
    6.1952   -0.9271    0.0184 H   0  0  0  0  0  0  0  0  0  0  0  0
    5.9996   -3.7063    0.9998 H   0  0  0  0  0  0  0  0  0  0  0  0
    8.3626   -2.5712   -0.6142 H   0  0  0  0  0  0  0  0  0  0  0  0
    8.1291   -4.9239    1.4612 H   0  0  0  0  0  0  0  0  0  0  0  0
    9.4500   -3.7159    1.4230 H   0  0  0  0  0  0  0  0  0  0  0  0
    9.6536   -5.3032   -1.0922 H   0  0  0  0  0  0  0  0  0  0  0  0
   10.5539   -6.1531    1.7285 H   0  0  0  0  0  0  0  0  0  0  0  0
   10.9642   -8.2364    0.3110 H   0  0  0  0  0  0  0  0  0  0  0  0
   11.4014   -7.2406   -1.1069 H   0  0  0  0  0  0  0  0  0  0  0  0
   13.0217   -7.4406    1.5667 H   0  0  0  0  0  0  0  0  0  0  0  0
   13.5774   -6.6018    0.0728 H   0  0  0  0  0  0  0  0  0  0  0  0
   13.5556   -8.8997   -1.1151 H   0  0  0  0  0  0  0  0  0  0  0  0
   13.0022   -9.6445    0.4175 H   0  0  0  0  0  0  0  0  0  0  0  0
   18.2211  -12.2358   -1.0843 H   0  0  0  0  0  0  0  0  0  0  0  0
   18.1169  -14.2021    0.4742 H   0  0  0  0  0  0  0  0  0  0  0  0
   19.0098  -13.2551    1.6994 H   0  0  0  0  0  0  0  0  0  0  0  0
   21.5469  -16.7590   -0.8316 H   0  0  0  0  0  0  0  0  0  0  0  0
   22.2906  -15.2468   -1.3947 H   0  0  0  0  0  0  0  0  0  0  0  0
   24.1246  -15.5838    0.4167 H   0  0  0  0  0  0  0  0  0  0  0  0
   23.2516  -17.0080    1.0434 H   0  0  0  0  0  0  0  0  0  0  0  0
   24.8268  -17.0075   -1.6767 H   0  0  0  0  0  0  0  0  0  0  0  0
   23.9742  -18.4222   -0.9835 H   0  0  0  0  0  0  0  0  0  0  0  0
   25.5304  -18.4008    0.9389 H   0  0  0  0  0  0  0  0  0  0  0  0
   26.3024  -16.9438    0.2206 H   0  0  0  0  0  0  0  0  0  0  0  0
   27.6370  -18.2561    0.9480 H   0  0  0  0  0  0  0  0  0  0  0  0
   27.6129  -18.1724   -0.8988 H   0  0  0  0  0  0  0  0  0  0  0  0
   28.3573  -20.1800    0.8609 H   0  0  0  0  0  0  0  0  0  0  0  0
   28.3657  -20.1355   -0.8934 H   0  0  0  0  0  0  0  0  0  0  0  0
   30.6533  -19.3142   -0.8918 H   0  0  0  0  0  0  0  0  0  0  0  0
   30.6518  -19.3086    0.8958 H   0  0  0  0  0  0  0  0  0  0  0  0
   30.3925  -21.9190   -0.8685 H   0  0  0  0  0  0  0  0  0  0  0  0
   30.4118  -21.8958    0.9180 H   0  0  0  0  0  0  0  0  0  0  0  0
   32.7334  -21.1091    0.8689 H   0  0  0  0  0  0  0  0  0  0  0  0
   32.7110  -21.1456   -0.9009 H   0  0  0  0  0  0  0  0  0  0  0  0
   34.7050  -23.8055   -0.8961 H   0  0  0  0  0  0  0  0  0  0  0  0
   34.7049  -23.8057    0.8959 H   0  0  0  0  0  0  0  0  0  0  0  0
   36.7421  -23.4445    0.8961 H   0  0  0  0  0  0  0  0  0  0  0  0
   36.7423  -23.4442   -0.8959 H   0  0  0  0  0  0  0  0  0  0  0  0
   38.5772  -26.5045   -0.2591 H   0  0  0  0  0  0  0  0  0  0  0  0
   39.1433  -25.5379    1.0955 H   0  0  0  0  0  0  0  0  0  0  0  0
   40.5563  -25.7563   -1.6584 H   0  0  0  0  0  0  0  0  0  0  0  0
   41.1314  -24.7619   -0.2877 H   0  0  0  0  0  0  0  0  0  0  0  0
   41.4269  -26.7982    1.0913 H   0  0  0  0  0  0  0  0  0  0  0  0
   40.8699  -27.8286   -0.2554 H   0  0  0  0  0  0  0  0  0  0  0  0
   42.6208  -28.5065    0.7848 H   0  0  0  0  0  0  0  0  0  0  0  0
   43.4814  -26.9126    0.4014 H   0  0  0  0  0  0  0  0  0  0  0  0
   43.7950  -28.2850    0.0000 H   0  0  0  0  0  0  0  0  0  0  0  0
   20.3295   -8.3915   -0.5760 H   0  0  0  0  0  0  0  0  0  0  0  0
   20.7058   -8.6959    1.1430 H   0  0  0  0  0  0  0  0  0  0  0  0
   22.8537   -8.7295   -1.1415 H   0  0  0  0  0  0  0  0  0  0  0  0
   23.1802   -8.9227    0.6164 H   0  0  0  0  0  0  0  0  0  0  0  0
   22.1501   -6.6803    0.9716 H   0  0  0  0  0  0  0  0  0  0  0  0
   21.9133   -6.5362   -0.7612 H   0  0  0  0  0  0  0  0  0  0  0  0
   24.0882   -5.8738    0.8298 H   0  0  0  0  0  0  0  0  0  0  0  0
   23.8648   -5.8054   -0.9940 H   0  0  0  0  0  0  0  0  0  0  0  0
   25.2488   -4.4391   -0.2779 H   0  0  0  0  0  0  0  0  0  0  0  0
   23.7449   -3.6962   -0.8892 H   0  0  0  0  0  0  0  0  0  0  0  0
   23.4500   -2.5462    1.3461 H   0  0  0  0  0  0  0  0  0  0  0  0
   25.0353   -3.2201    1.8420 H   0  0  0  0  0  0  0  0  0  0  0  0
   26.1924   -0.4202    2.0080 H   0  0  0  0  0  0  0  0  0  0  0  0
   25.9277    1.0645   -0.6793 H   0  0  0  0  0  0  0  0  0  0  0  0
   28.0757    1.8995    1.2043 H   0  0  0  0  0  0  0  0  0  0  0  0
   26.5605    2.5672    1.8981 H   0  0  0  0  0  0  0  0  0  0  0  0
   26.0990    3.8197   -0.1618 H   0  0  0  0  0  0  0  0  0  0  0  0
   27.5420    3.1194   -0.9476 H   0  0  0  0  0  0  0  0  0  0  0  0
   27.3774    5.2443   -0.9117 H   0  0  0  0  0  0  0  0  0  0  0  0
   27.3580    5.1958    0.9104 H   0  0  0  0  0  0  0  0  0  0  0  0
   29.3137    5.8338   -0.8700 H   0  0  0  0  0  0  0  0  0  0  0  0
   29.2892    5.8456    0.8900 H   0  0  0  0  0  0  0  0  0  0  0  0
   28.8305    7.8241   -0.8901 H   0  0  0  0  0  0  0  0  0  0  0  0
   28.7902    7.8356    0.8606 H   0  0  0  0  0  0  0  0  0  0  0  0
   30.7105    8.3692    0.9247 H   0  0  0  0  0  0  0  0  0  0  0  0
   30.7509    8.4568   -0.9188 H   0  0  0  0  0  0  0  0  0  0  0  0
   31.9686    9.6461    0.1869 H   0  0  0  0  0  0  0  0  0  0  0  0
   30.2922   10.3823    0.8775 H   0  0  0  0  0  0  0  0  0  0  0  0
   31.9249   11.5119    1.0954 H   0  0  0  0  0  0  0  0  0  0  0  0
   30.8353   12.0204   -0.3359 H   0  0  0  0  0  0  0  0  0  0  0  0
   32.2215   12.3094    0.0000 H   0  0  0  0  0  0  0  0  0  0  0  0
  1  2  1  0  0  0  0
  1 66  1  0  0  0  0
  1 67  1  0  0  0  0
  1 68  1  0  0  0  0
  2  3  1  0  0  0  0
  2 69  1  0  0  0  0
  2 70  1  0  0  0  0
  3  4  1  0  0  0  0
  3 71  1  0  0  0  0
  3 72  1  0  0  0  0
  4  5  1  0  0  0  0
  4 73  1  0  0  0  0
  4 74  1  0  0  0  0
  5  6  1  0  0  0  0
  5 75  1  0  0  0  0
  5 76  1  0  0  0  0
  6  7  2  3  0  0  0
  6 77  1  0  0  0  0
  7  8  1  0  0  0  0
  7 78  1  0  0  0  0
  8  9  1  0  0  0  0
  8 79  1  0  0  0  0
  8 80  1  0  0  0  0
  9 10  2  3  0  0  0
  9 81  1  0  0  0  0
 10 11  1  0  0  0  0
 10 82  1  0  0  0  0
 11 12  1  0  0  0  0
 11 83  1  0  0  0  0
 11 84  1  0  0  0  0
 12 13  2  3  0  0  0
 12 85  1  0  0  0  0
 13 14  1  0  0  0  0
 13 86  1  0  0  0  0
 14 15  1  0  0  0  0
 14 87  1  0  0  0  0
 14 88  1  0  0  0  0
 15 16  2  3  0  0  0
 15 89  1  0  0  0  0
 16 17  1  0  0  0  0
 16 90  1  0  0  0  0
 17 18  1  0  0  0  0
 17 91  1  0  0  0  0
 17 92  1  0  0  0  0
 18 19  1  0  0  0  0
 18 93  1  0  0  0  0
 18 94  1  0  0  0  0
 19 20  1  0  0  0  0
 19 95  1  0  0  0  0
 19 96  1  0  0  0  0
 20 21  2  0  0  0  0
 20 22  1  0  0  0  0
 22 23  1  0  0  0  0
 24 23  1  0  0  0  0
 24 25  1  0  0  0  0
 24 46  1  0  0  0  0
 24 97  1  1  0  0  0
 25 26  1  0  0  0  0
 25 98  1  0  0  0  0
 25 99  1  0  0  0  0
 26 27  1  0  0  0  0
 27 28  2  0  0  0  0
 27 29  1  0  0  0  0
 29 30  1  0  0  0  0
 29100  1  0  0  0  0
 29101  1  0  0  0  0
 30 31  1  0  0  0  0
 30102  1  0  0  0  0
 30103  1  0  0  0  0
 31 32  1  0  0  0  0
 31104  1  0  0  0  0
 31105  1  0  0  0  0
 32 33  1  0  0  0  0
 32106  1  0  0  0  0
 32107  1  0  0  0  0
 33 34  1  0  0  0  0
 33108  1  0  0  0  0
 33109  1  0  0  0  0
 34 35  1  0  0  0  0
 34110  1  0  0  0  0
 34111  1  0  0  0  0
 35 36  1  0  0  0  0
 35112  1  0  0  0  0
 35113  1  0  0  0  0
 36 37  1  0  0  0  0
 36114  1  0  0  0  0
 36115  1  0  0  0  0
 37 38  1  0  0  0  0
 37116  1  0  0  0  0
 37117  1  0  0  0  0
 38 39  1  0  0  0  0
 39 40  1  0  0  0  0
 39118  1  0  0  0  0
 39119  1  0  0  0  0
 40 41  1  0  0  0  0
 40120  1  0  0  0  0
 40121  1  0  0  0  0
 41 42  1  0  0  0  0
 42 43  1  0  0  0  0
 42122  1  0  0  0  0
 42123  1  0  0  0  0
 43 44  1  0  0  0  0
 43124  1  0  0  0  0
 43125  1  0  0  0  0
 44 45  1  0  0  0  0
 44126  1  0  0  0  0
 44127  1  0  0  0  0
 45128  1  0  0  0  0
 45129  1  0  0  0  0
 45130  1  0  0  0  0
 46 47  1  0  0  0  0
 47 48  2  0  0  0  0
 47 49  1  0  0  0  0
 49 50  1  0  0  0  0
 49131  1  0  0  0  0
 49132  1  0  0  0  0
 50 51  1  0  0  0  0
 50133  1  0  0  0  0
 50134  1  0  0  0  0
 51 52  1  0  0  0  0
 51135  1  0  0  0  0
 51136  1  0  0  0  0
 52 53  1  0  0  0  0
 52137  1  0  0  0  0
 52138  1  0  0  0  0
 53 54  1  0  0  0  0
 53139  1  0  0  0  0
 53140  1  0  0  0  0
 54 55  1  0  0  0  0
 54141  1  0  0  0  0
 54142  1  0  0  0  0
 55 56  1  0  0  0  0
 56 57  2  3  0  0  0
 56143  1  0  0  0  0
 57 58  1  0  0  0  0
 57144  1  0  0  0  0
 58 59  1  0  0  0  0
 58145  1  0  0  0  0
 58146  1  0  0  0  0
 59 60  1  0  0  0  0
 59147  1  0  0  0  0
 59148  1  0  0  0  0
 60 61  1  0  0  0  0
 60149  1  0  0  0  0
 60150  1  0  0  0  0
 61 62  1  0  0  0  0
 61151  1  0  0  0  0
 61152  1  0  0  0  0
 62 63  1  0  0  0  0
 62153  1  0  0  0  0
 62154  1  0  0  0  0
 63 64  1  0  0  0  0
 63155  1  0  0  0  0
 63156  1  0  0  0  0
 64 65  1  0  0  0  0
 64157  1  0  0  0  0
 64158  1  0  0  0  0
 65159  1  0  0  0  0
 65160  1  0  0  0  0
 65161  1  0  0  0  0
M  END
>  <IDENTIFIER>
CNP0114523.2

>  <Energy>
8738.37

$$$$
