
 OpenBabel09052507263D

100102  0  0  0  0  0  0  0  0999 V2000
   -5.3424   -0.1950    2.7971 C   0  0  0  0  0  0  0  0  0  0  0  0
   -4.0737    0.5004    3.2718 C   0  0  0  0  0  0  0  0  0  0  0  0
   -3.3359    1.4451    2.2764 C   0  0  2  0  0  0  0  0  0  0  0  0
   -4.1175    2.7536    1.8603 C   0  0  0  0  0  0  0  0  0  0  0  0
   -4.7954    2.8294    0.4544 C   0  0  0  0  0  0  0  0  0  0  0  0
   -6.1395    2.0996    0.2486 C   0  0  0  0  0  0  0  0  0  0  0  0
   -6.4443    1.8640   -1.2672 C   0  0  2  0  0  0  0  0  0  0  0  0
   -7.8526    1.2738   -1.5073 C   0  0  0  0  0  0  0  0  0  0  0  0
   -8.9840    2.2015   -1.0585 C   0  0  0  0  0  0  0  0  0  0  0  0
   -5.3942    0.8728   -1.7452 C   0  0  0  0  0  0  0  0  0  0  0  0
   -5.3509   -0.2118   -1.1824 O   0  0  0  0  0  0  0  0  0  0  0  0
   -4.4327    1.2174   -2.6537 N   0  0  0  0  0  0  0  0  0  0  0  0
   -3.1689    0.4912   -2.7194 C   0  0  0  0  0  0  0  0  0  0  0  0
   -3.2628   -1.0046   -3.0934 C   0  0  0  0  0  0  0  0  0  0  0  0
   -2.1450   -1.8363   -2.3961 C   0  0  0  0  0  0  0  0  0  0  0  0
   -2.3388   -1.8759   -0.8296 C   0  0  1  0  0  0  0  0  0  0  0  0
   -2.5471   -3.3478   -0.3656 C   0  0  0  0  0  0  0  0  0  0  0  0
   -2.9539   -3.5311    1.0950 C   0  0  0  0  0  0  0  0  0  0  0  0
   -1.2300   -1.0552   -0.0580 C   0  0  2  0  0  0  0  0  0  0  0  0
   -0.1445   -1.9242    0.2234 O   0  0  0  0  0  0  0  0  0  0  0  0
    1.1353   -1.4858   -0.2224 C   0  0  2  0  0  0  0  0  0  0  0  0
    1.6207   -2.4150   -1.1975 O   0  0  0  0  0  0  0  0  0  0  0  0
    2.2715   -3.5023   -0.5737 C   0  0  1  0  0  0  0  0  0  0  0  0
    2.3821   -4.6901   -1.5290 C   0  0  0  0  0  0  0  0  0  0  0  0
    3.6458   -3.0411    0.0009 C   0  0  1  0  0  0  0  0  0  0  0  0
    4.6899   -3.0803   -0.9430 O   0  0  0  0  0  0  0  0  0  0  0  0
    3.5520   -1.6351    0.6766 C   0  0  1  0  0  0  0  0  0  0  0  0
    4.1128   -0.5882   -0.1827 N   0  0  0  0  0  0  0  0  0  0  0  0
    5.2248    0.1271    0.1714 C   0  0  0  0  0  0  0  0  0  0  0  0
    5.7669   -0.0722    1.2485 O   0  0  0  0  0  0  0  0  0  0  0  0
    5.7362    1.0749   -0.6703 N   0  0  0  0  0  0  0  0  0  0  0  0
    6.9040    1.8761   -0.3307 C   0  0  0  0  0  0  0  0  0  0  0  0
    8.1957    1.0356   -0.2926 C   0  0  0  0  0  0  0  0  0  0  0  0
    9.3763    1.8802    0.1293 C   0  0  0  0  0  0  0  0  0  0  0  0
    9.4489    2.3870    1.4404 C   0  0  0  0  0  0  0  0  0  0  0  0
   10.5389    3.1656    1.8393 C   0  0  0  0  0  0  0  0  0  0  0  0
   11.5643    3.4515    0.9345 C   0  0  0  0  0  0  0  0  0  0  0  0
   11.5030    2.9531   -0.3695 C   0  0  0  0  0  0  0  0  0  0  0  0
   10.4176    2.1656   -0.7715 C   0  0  0  0  0  0  0  0  0  0  0  0
    2.0737   -1.3487    1.0310 C   0  0  1  0  0  0  0  0  0  0  0  0
    1.8956   -0.1213    1.6913 O   0  0  0  0  0  0  0  0  0  0  0  0
   -1.7235   -0.4076    1.2802 C   0  0  0  0  0  0  0  0  0  0  0  0
   -2.7407    0.7297    1.0354 C   0  0  0  0  0  0  0  0  0  0  0  0
   -5.6749   -0.9150    3.5745 H   0  0  0  0  0  0  0  0  0  0  0  0
   -5.1656   -0.7623    1.8594 H   0  0  0  0  0  0  0  0  0  0  0  0
   -6.1614    0.5402    2.6953 H   0  0  0  0  0  0  0  0  0  0  0  0
   -3.3630   -0.2912    3.5860 H   0  0  0  0  0  0  0  0  0  0  0  0
   -4.3293    1.0714    4.1907 H   0  0  0  0  0  0  0  0  0  0  0  0
   -2.4767    1.8071    2.8867 H   0  0  0  0  0  0  0  0  0  0  0  0
   -3.3097    3.5126    1.7532 H   0  0  0  0  0  0  0  0  0  0  0  0
   -4.7684    3.1289    2.6782 H   0  0  0  0  0  0  0  0  0  0  0  0
   -4.0494    2.5031   -0.2911 H   0  0  0  0  0  0  0  0  0  0  0  0
   -4.9865    3.8964    0.2050 H   0  0  0  0  0  0  0  0  0  0  0  0
   -6.9162    2.6927    0.7709 H   0  0  0  0  0  0  0  0  0  0  0  0
   -6.1167    1.1047    0.6998 H   0  0  0  0  0  0  0  0  0  0  0  0
   -6.3669    2.8289   -1.8159 H   0  0  0  0  0  0  0  0  0  0  0  0
   -7.9615    0.3008   -0.9795 H   0  0  0  0  0  0  0  0  0  0  0  0
   -7.9740    1.0943   -2.5981 H   0  0  0  0  0  0  0  0  0  0  0  0
   -8.9703    2.3551    0.0392 H   0  0  0  0  0  0  0  0  0  0  0  0
   -9.9610    1.7410   -1.3154 H   0  0  0  0  0  0  0  0  0  0  0  0
   -8.9068    3.1840   -1.5698 H   0  0  0  0  0  0  0  0  0  0  0  0
   -4.4953    2.1216   -3.1445 H   0  0  0  0  0  0  0  0  0  0  0  0
   -2.7496    0.5866   -1.7097 H   0  0  0  0  0  0  0  0  0  0  0  0
   -2.4402    0.9987   -3.3872 H   0  0  0  0  0  0  0  0  0  0  0  0
   -3.2329   -1.1026   -4.1996 H   0  0  0  0  0  0  0  0  0  0  0  0
   -4.2185   -1.4642   -2.7766 H   0  0  0  0  0  0  0  0  0  0  0  0
   -1.1296   -1.4852   -2.6804 H   0  0  0  0  0  0  0  0  0  0  0  0
   -2.2387   -2.8637   -2.8117 H   0  0  0  0  0  0  0  0  0  0  0  0
   -3.3156   -1.4151   -0.6352 H   0  0  0  0  0  0  0  0  0  0  0  0
   -1.6381   -3.9531   -0.5688 H   0  0  0  0  0  0  0  0  0  0  0  0
   -3.3809   -3.7695   -0.9713 H   0  0  0  0  0  0  0  0  0  0  0  0
   -2.1158   -3.2853    1.7739 H   0  0  0  0  0  0  0  0  0  0  0  0
   -3.2078   -4.5970    1.2737 H   0  0  0  0  0  0  0  0  0  0  0  0
   -3.8495   -2.9162    1.3309 H   0  0  0  0  0  0  0  0  0  0  0  0
   -0.9348   -0.1888   -0.6886 H   0  0  0  0  0  0  0  0  0  0  0  0
    1.1419   -0.5024   -0.7429 H   0  0  0  0  0  0  0  0  0  0  0  0
    1.6314   -3.8699    0.2648 H   0  0  0  0  0  0  0  0  0  0  0  0
    2.9771   -4.4256   -2.4274 H   0  0  0  0  0  0  0  0  0  0  0  0
    1.3668   -4.9964   -1.8601 H   0  0  0  0  0  0  0  0  0  0  0  0
    2.8613   -5.5492   -1.0128 H   0  0  0  0  0  0  0  0  0  0  0  0
    3.8819   -3.8055    0.7740 H   0  0  0  0  0  0  0  0  0  0  0  0
    4.3767   -2.6112   -1.7597 H   0  0  0  0  0  0  0  0  0  0  0  0
    4.1371   -1.6885    1.6202 H   0  0  0  0  0  0  0  0  0  0  0  0
    3.6702   -0.4085   -1.0981 H   0  0  0  0  0  0  0  0  0  0  0  0
    5.2607    1.2618   -1.5664 H   0  0  0  0  0  0  0  0  0  0  0  0
    6.7223    2.3835    0.6412 H   0  0  0  0  0  0  0  0  0  0  0  0
    7.0429    2.6623   -1.1058 H   0  0  0  0  0  0  0  0  0  0  0  0
    8.3575    0.6164   -1.3101 H   0  0  0  0  0  0  0  0  0  0  0  0
    8.1138    0.1818    0.4124 H   0  0  0  0  0  0  0  0  0  0  0  0
    8.6641    2.1706    2.1552 H   0  0  0  0  0  0  0  0  0  0  0  0
   10.5897    3.5478    2.8510 H   0  0  0  0  0  0  0  0  0  0  0  0
   12.4051    4.0590    1.2442 H   0  0  0  0  0  0  0  0  0  0  0  0
   12.2979    3.1771   -1.0692 H   0  0  0  0  0  0  0  0  0  0  0  0
   10.3872    1.7884   -1.7856 H   0  0  0  0  0  0  0  0  0  0  0  0
    1.7954   -2.1512    1.7501 H   0  0  0  0  0  0  0  0  0  0  0  0
    2.1399    0.5982    1.0525 H   0  0  0  0  0  0  0  0  0  0  0  0
   -0.8508    0.0430    1.8001 H   0  0  0  0  0  0  0  0  0  0  0  0
   -2.1471   -1.1651    1.9513 H   0  0  0  0  0  0  0  0  0  0  0  0
   -3.5989    0.3472    0.4709 H   0  0  0  0  0  0  0  0  0  0  0  0
   -2.2046    1.4897    0.4264 H   0  0  0  0  0  0  0  0  0  0  0  0
  1  2  1  0  0  0  0
  1 44  1  0  0  0  0
  1 45  1  0  0  0  0
  1 46  1  0  0  0  0
  2 47  1  0  0  0  0
  2 48  1  0  0  0  0
  3  2  1  0  0  0  0
  3  4  1  0  0  0  0
  3 49  1  1  0  0  0
  4  5  1  0  0  0  0
  4 50  1  0  0  0  0
  4 51  1  0  0  0  0
  5  6  1  0  0  0  0
  5 52  1  0  0  0  0
  5 53  1  0  0  0  0
  6  7  1  0  0  0  0
  6 54  1  0  0  0  0
  6 55  1  0  0  0  0
  7  8  1  0  0  0  0
  7 10  1  0  0  0  0
  7 56  1  6  0  0  0
  8  9  1  0  0  0  0
  8 57  1  0  0  0  0
  8 58  1  0  0  0  0
  9 59  1  0  0  0  0
  9 60  1  0  0  0  0
  9 61  1  0  0  0  0
 10 11  2  0  0  0  0
 10 12  1  0  0  0  0
 12 13  1  0  0  0  0
 12 62  1  0  0  0  0
 13 14  1  0  0  0  0
 13 63  1  0  0  0  0
 13 64  1  0  0  0  0
 14 15  1  0  0  0  0
 14 65  1  0  0  0  0
 14 66  1  0  0  0  0
 15 16  1  0  0  0  0
 15 67  1  0  0  0  0
 15 68  1  0  0  0  0
 16 17  1  0  0  0  0
 16 19  1  0  0  0  0
 16 69  1  1  0  0  0
 17 18  1  0  0  0  0
 17 70  1  0  0  0  0
 17 71  1  0  0  0  0
 18 72  1  0  0  0  0
 18 73  1  0  0  0  0
 18 74  1  0  0  0  0
 19 20  1  0  0  0  0
 19 42  1  0  0  0  0
 19 75  1  6  0  0  0
 21 20  1  0  0  0  0
 21 22  1  0  0  0  0
 21 76  1  6  0  0  0
 22 23  1  0  0  0  0
 23 24  1  0  0  0  0
 23 25  1  0  0  0  0
 23 77  1  1  0  0  0
 24 78  1  0  0  0  0
 24 79  1  0  0  0  0
 24 80  1  0  0  0  0
 25 26  1  0  0  0  0
 25 27  1  0  0  0  0
 25 81  1  1  0  0  0
 26 82  1  0  0  0  0
 27 28  1  0  0  0  0
 27 40  1  0  0  0  0
 27 83  1  1  0  0  0
 28 29  1  0  0  0  0
 28 84  1  0  0  0  0
 29 30  2  0  0  0  0
 29 31  1  0  0  0  0
 31 32  1  0  0  0  0
 31 85  1  0  0  0  0
 32 33  1  0  0  0  0
 32 86  1  0  0  0  0
 32 87  1  0  0  0  0
 33 34  1  0  0  0  0
 33 88  1  0  0  0  0
 33 89  1  0  0  0  0
 34 35  2  0  0  0  0
 35 36  1  0  0  0  0
 35 90  1  0  0  0  0
 36 37  2  0  0  0  0
 36 91  1  0  0  0  0
 37 38  1  0  0  0  0
 37 92  1  0  0  0  0
 38 39  2  0  0  0  0
 38 93  1  0  0  0  0
 39 34  1  0  0  0  0
 39 94  1  0  0  0  0
 40 41  1  0  0  0  0
 40 21  1  0  0  0  0
 40 95  1  1  0  0  0
 41 96  1  0  0  0  0
 42 43  1  0  0  0  0
 42 97  1  0  0  0  0
 42 98  1  0  0  0  0
 43  3  1  0  0  0  0
 43 99  1  0  0  0  0
 43100  1  0  0  0  0
M  END
>  <IDENTIFIER>
CNP0333682.2

>  <Energy>
973.845

$$$$
