
 OpenBabel09082520233D

 82 83  0  0  0  0  0  0  0  0999 V2000
    2.0210    1.1198   -2.2494 C   0  0  0  0  0  0  0  0  0  0  0  0
    1.5472    1.2223   -0.9910 C   0  0  0  0  0  0  0  0  0  0  0  0
    2.4653    1.1745    0.2509 C   0  0  2  0  0  0  0  0  0  0  0  0
    2.5452    2.4629    0.7608 O   0  0  0  0  0  0  0  0  0  0  0  0
    2.1428    2.8562    2.0010 C   0  0  0  0  0  0  0  0  0  0  0  0
    2.3464    4.2750    2.4256 C   0  0  0  0  0  0  0  0  0  0  0  0
    1.6217    2.0687    2.7780 O   0  0  0  0  0  0  0  0  0  0  0  0
    3.9097    0.6618    0.0271 C   0  0  0  0  0  0  0  0  0  0  0  0
    4.0627   -0.8508   -0.1753 C   0  0  0  0  0  0  0  0  0  0  0  0
    4.4628   -1.2366   -1.2643 O   0  0  0  0  0  0  0  0  0  0  0  0
    3.9086   -1.8761    0.9782 C   0  0  0  0  0  0  0  0  0  0  0  0
    4.8129   -1.4331    2.1562 C   0  0  0  0  0  0  0  0  0  0  0  0
    4.4275   -3.2885    0.5805 C   0  0  0  0  0  0  0  0  0  0  0  0
    2.4682   -1.9393    1.4954 C   0  0  0  0  0  0  0  0  0  0  0  0
    1.3408   -2.3029    0.8440 C   0  0  0  0  0  0  0  0  0  0  0  0
    1.2110   -2.8014   -0.5717 C   0  0  1  0  0  0  0  0  0  0  0  0
    0.5238   -4.1715   -0.5808 C   0  0  0  0  0  0  0  0  0  0  0  0
    0.5479   -1.8245   -1.5285 C   0  0  0  0  0  0  0  0  0  0  0  0
    1.1416   -1.6581   -2.5870 O   0  0  0  0  0  0  0  0  0  0  0  0
   -0.7452   -1.0090   -1.3099 C   0  0  1  0  0  0  0  0  0  0  0  0
   -1.0651   -0.4079   -2.5300 O   0  0  0  0  0  0  0  0  0  0  0  0
   -1.3662   -1.0118   -3.7159 C   0  0  0  0  0  0  0  0  0  0  0  0
   -1.6362   -0.1668   -4.9173 C   0  0  0  0  0  0  0  0  0  0  0  0
   -1.3997   -2.2296   -3.8180 O   0  0  0  0  0  0  0  0  0  0  0  0
   -2.0054   -1.7641   -0.8387 C   0  0  0  0  0  0  0  0  0  0  0  0
   -2.9502   -0.6388   -0.3221 C   0  0  1  0  0  0  0  0  0  0  0  0
   -3.5896    0.2735   -1.4054 C   0  0  0  0  0  0  0  0  0  0  0  0
   -3.9568   -1.1547    0.4853 O   0  0  0  0  0  0  0  0  0  0  0  0
   -4.9452   -2.0122    0.1136 C   0  0  0  0  0  0  0  0  0  0  0  0
   -5.9691   -2.4268    1.1193 C   0  0  0  0  0  0  0  0  0  0  0  0
   -5.0077   -2.4537   -1.0245 O   0  0  0  0  0  0  0  0  0  0  0  0
   -1.9571    0.1424    0.5376 C   0  0  2  0  0  0  0  0  0  0  0  0
   -2.3979    1.3804    0.9829 O   0  0  0  0  0  0  0  0  0  0  0  0
   -2.5301    1.7235    2.2965 C   0  0  0  0  0  0  0  0  0  0  0  0
   -3.1139    3.0442    2.6709 C   0  0  0  0  0  0  0  0  0  0  0  0
   -2.1713    0.9656    3.1882 O   0  0  0  0  0  0  0  0  0  0  0  0
   -0.5866    0.1244   -0.2115 C   0  0  2  0  0  0  0  0  0  0  0  0
    0.0389    1.4352   -0.7990 C   0  0  1  0  0  0  0  0  0  0  0  0
   -0.1669    2.5399    0.0150 O   0  0  0  0  0  0  0  0  0  0  0  0
   -0.7353    3.7106   -0.4053 C   0  0  0  0  0  0  0  0  0  0  0  0
   -0.9623    4.8257    0.5593 C   0  0  0  0  0  0  0  0  0  0  0  0
   -1.0506    3.8779   -1.5753 O   0  0  0  0  0  0  0  0  0  0  0  0
    3.0667    0.9803   -2.4808 H   0  0  0  0  0  0  0  0  0  0  0  0
    1.3509    1.1718   -3.1020 H   0  0  0  0  0  0  0  0  0  0  0  0
    2.0374    0.5063    1.0111 H   0  0  0  0  0  0  0  0  0  0  0  0
    2.8226    4.8573    1.6092 H   0  0  0  0  0  0  0  0  0  0  0  0
    2.9998    4.3061    3.3220 H   0  0  0  0  0  0  0  0  0  0  0  0
    1.3723    4.7400    2.6780 H   0  0  0  0  0  0  0  0  0  0  0  0
    4.5270    0.9348    0.9050 H   0  0  0  0  0  0  0  0  0  0  0  0
    4.3793    1.2290   -0.8019 H   0  0  0  0  0  0  0  0  0  0  0  0
    5.8724   -1.3439    1.8298 H   0  0  0  0  0  0  0  0  0  0  0  0
    4.7690   -2.1740    2.9850 H   0  0  0  0  0  0  0  0  0  0  0  0
    4.4910   -0.4623    2.5854 H   0  0  0  0  0  0  0  0  0  0  0  0
    5.5037   -3.2353    0.3056 H   0  0  0  0  0  0  0  0  0  0  0  0
    3.9265   -3.7571   -0.2778 H   0  0  0  0  0  0  0  0  0  0  0  0
    4.3289   -3.9924    1.4352 H   0  0  0  0  0  0  0  0  0  0  0  0
    2.3111   -1.6272    2.5261 H   0  0  0  0  0  0  0  0  0  0  0  0
    0.4140   -2.2390    1.4087 H   0  0  0  0  0  0  0  0  0  0  0  0
    2.2026   -2.9708   -1.0078 H   0  0  0  0  0  0  0  0  0  0  0  0
   -0.4983   -4.1372   -0.1621 H   0  0  0  0  0  0  0  0  0  0  0  0
    1.1132   -4.8910    0.0275 H   0  0  0  0  0  0  0  0  0  0  0  0
    0.4666   -4.5626   -1.6191 H   0  0  0  0  0  0  0  0  0  0  0  0
   -1.5551    0.9094   -4.6555 H   0  0  0  0  0  0  0  0  0  0  0  0
   -2.6584   -0.3710   -5.2979 H   0  0  0  0  0  0  0  0  0  0  0  0
   -0.8945   -0.4000   -5.7101 H   0  0  0  0  0  0  0  0  0  0  0  0
   -1.7382   -2.3811    0.0435 H   0  0  0  0  0  0  0  0  0  0  0  0
   -2.4600   -2.4427   -1.5875 H   0  0  0  0  0  0  0  0  0  0  0  0
   -4.1962   -0.3205   -2.1184 H   0  0  0  0  0  0  0  0  0  0  0  0
   -2.8659    0.8806   -1.9766 H   0  0  0  0  0  0  0  0  0  0  0  0
   -4.2611    1.0082   -0.9119 H   0  0  0  0  0  0  0  0  0  0  0  0
   -5.7685   -1.9383    2.0962 H   0  0  0  0  0  0  0  0  0  0  0  0
   -5.9370   -3.5282    1.2541 H   0  0  0  0  0  0  0  0  0  0  0  0
   -6.9795   -2.1284    0.7690 H   0  0  0  0  0  0  0  0  0  0  0  0
   -1.8086   -0.5410    1.4142 H   0  0  0  0  0  0  0  0  0  0  0  0
   -3.4044    3.6089    1.7633 H   0  0  0  0  0  0  0  0  0  0  0  0
   -2.3675    3.6292    3.2490 H   0  0  0  0  0  0  0  0  0  0  0  0
   -4.0163    2.8877    3.2975 H   0  0  0  0  0  0  0  0  0  0  0  0
    0.0723   -0.1634    0.6166 H   0  0  0  0  0  0  0  0  0  0  0  0
   -0.4476    1.6337   -1.7735 H   0  0  0  0  0  0  0  0  0  0  0  0
   -0.6529    4.5242    1.5781 H   0  0  0  0  0  0  0  0  0  0  0  0
   -2.0394    5.0927    0.5720 H   0  0  0  0  0  0  0  0  0  0  0  0
   -0.3796    5.7158    0.2435 H   0  0  0  0  0  0  0  0  0  0  0  0
  1  2  2  0  0  0  0
  1 43  1  0  0  0  0
  1 44  1  0  0  0  0
  2  3  1  0  0  0  0
  3  4  1  0  0  0  0
  3  8  1  0  0  0  0
  3 45  1  1  0  0  0
  4  5  1  0  0  0  0
  5  6  1  0  0  0  0
  5  7  2  0  0  0  0
  6 46  1  0  0  0  0
  6 47  1  0  0  0  0
  6 48  1  0  0  0  0
  8  9  1  0  0  0  0
  8 49  1  0  0  0  0
  8 50  1  0  0  0  0
  9 10  2  0  0  0  0
  9 11  1  0  0  0  0
 11 12  1  0  0  0  0
 11 13  1  0  0  0  0
 11 14  1  0  0  0  0
 12 51  1  0  0  0  0
 12 52  1  0  0  0  0
 12 53  1  0  0  0  0
 13 54  1  0  0  0  0
 13 55  1  0  0  0  0
 13 56  1  0  0  0  0
 14 15  2  0  0  0  0
 14 57  1  0  0  0  0
 15 16  1  0  0  0  0
 15 58  1  0  0  0  0
 16 17  1  0  0  0  0
 16 18  1  0  0  0  0
 16 59  1  6  0  0  0
 17 60  1  0  0  0  0
 17 61  1  0  0  0  0
 17 62  1  0  0  0  0
 18 19  2  0  0  0  0
 18 20  1  0  0  0  0
 20 21  1  6  0  0  0
 20 25  1  0  0  0  0
 21 22  1  0  0  0  0
 22 23  1  0  0  0  0
 22 24  2  0  0  0  0
 23 63  1  0  0  0  0
 23 64  1  0  0  0  0
 23 65  1  0  0  0  0
 25 26  1  0  0  0  0
 25 66  1  0  0  0  0
 25 67  1  0  0  0  0
 26 27  1  0  0  0  0
 26 28  1  1  0  0  0
 26 32  1  0  0  0  0
 27 68  1  0  0  0  0
 27 69  1  0  0  0  0
 27 70  1  0  0  0  0
 28 29  1  0  0  0  0
 29 30  1  0  0  0  0
 29 31  2  0  0  0  0
 30 71  1  0  0  0  0
 30 72  1  0  0  0  0
 30 73  1  0  0  0  0
 32 33  1  0  0  0  0
 32 37  1  0  0  0  0
 32 74  1  1  0  0  0
 33 34  1  0  0  0  0
 34 35  1  0  0  0  0
 34 36  2  0  0  0  0
 35 75  1  0  0  0  0
 35 76  1  0  0  0  0
 35 77  1  0  0  0  0
 37 38  1  0  0  0  0
 37 20  1  0  0  0  0
 37 78  1  1  0  0  0
 38 39  1  0  0  0  0
 38  2  1  0  0  0  0
 38 79  1  6  0  0  0
 39 40  1  0  0  0  0
 40 41  1  0  0  0  0
 40 42  2  0  0  0  0
 41 80  1  0  0  0  0
 41 81  1  0  0  0  0
 41 82  1  0  0  0  0
M  END
>  <IDENTIFIER>
CNP0208451.2

>  <Energy>
666.172

$$$$
