
 OpenBabel09122501593D

 41 43  0  0  0  0  0  0  0  0999 V2000
    4.9521    2.1942    0.9174 C   0  0  0  0  0  0  0  0  0  0  0  0
    4.9478    0.8535    1.2430 O   0  0  0  0  0  0  0  0  0  0  0  0
    4.0208   -0.0579    0.8461 C   0  0  0  0  0  0  0  0  0  0  0  0
    2.9520    0.2763   -0.0125 C   0  0  0  0  0  0  0  0  0  0  0  0
    2.0001   -0.6887   -0.3825 C   0  0  0  0  0  0  0  0  0  0  0  0
    0.8529   -0.3153   -1.2975 C   0  0  0  0  0  0  0  0  0  0  0  0
   -0.5267   -0.2777   -0.5816 C   0  0  1  0  0  0  0  0  0  0  0  0
   -0.8425   -1.5462   -0.0461 O   0  0  0  0  0  0  0  0  0  0  0  0
   -0.5262    0.8233    0.5288 C   0  0  0  0  0  0  0  0  0  0  0  0
   -1.7818    1.0065    1.0900 O   0  0  0  0  0  0  0  0  0  0  0  0
   -2.9536    0.7028    0.4749 C   0  0  0  0  0  0  0  0  0  0  0  0
   -4.1534    0.8461    1.1789 C   0  0  0  0  0  0  0  0  0  0  0  0
   -5.3730    0.5118    0.5733 C   0  0  0  0  0  0  0  0  0  0  0  0
   -6.5350    0.6452    1.2442 O   0  0  0  0  0  0  0  0  0  0  0  0
   -5.3866    0.0310   -0.7404 C   0  0  0  0  0  0  0  0  0  0  0  0
   -4.1921   -0.1108   -1.4530 C   0  0  0  0  0  0  0  0  0  0  0  0
   -2.9673    0.2294   -0.8532 C   0  0  0  0  0  0  0  0  0  0  0  0
   -1.6438    0.1111   -1.5834 C   0  0  2  0  0  0  0  0  0  0  0  0
   -1.7144   -0.7754   -2.6750 O   0  0  0  0  0  0  0  0  0  0  0  0
    2.1330   -2.0003    0.0989 C   0  0  0  0  0  0  0  0  0  0  0  0
    3.1932   -2.3405    0.9397 C   0  0  0  0  0  0  0  0  0  0  0  0
    4.1361   -1.3753    1.3169 C   0  0  0  0  0  0  0  0  0  0  0  0
    5.1575   -1.7037    2.1351 O   0  0  0  0  0  0  0  0  0  0  0  0
    5.8265    2.6803    1.3964 H   0  0  0  0  0  0  0  0  0  0  0  0
    4.0271    2.6817    1.2939 H   0  0  0  0  0  0  0  0  0  0  0  0
    5.0320    2.3237   -0.1826 H   0  0  0  0  0  0  0  0  0  0  0  0
    2.8473    1.2867   -0.3845 H   0  0  0  0  0  0  0  0  0  0  0  0
    0.8425   -1.0252   -2.1527 H   0  0  0  0  0  0  0  0  0  0  0  0
    1.0324    0.6971   -1.7233 H   0  0  0  0  0  0  0  0  0  0  0  0
   -0.4661   -1.6141    0.8694 H   0  0  0  0  0  0  0  0  0  0  0  0
   -0.1991    1.7984    0.1056 H   0  0  0  0  0  0  0  0  0  0  0  0
    0.1946    0.5621    1.3324 H   0  0  0  0  0  0  0  0  0  0  0  0
   -4.1354    1.2116    2.1984 H   0  0  0  0  0  0  0  0  0  0  0  0
   -6.5681    0.9753    2.1536 H   0  0  0  0  0  0  0  0  0  0  0  0
   -6.3258   -0.2308   -1.2114 H   0  0  0  0  0  0  0  0  0  0  0  0
   -4.2289   -0.4779   -2.4705 H   0  0  0  0  0  0  0  0  0  0  0  0
   -1.4038    1.1206   -1.9850 H   0  0  0  0  0  0  0  0  0  0  0  0
   -1.9408   -1.6741   -2.3187 H   0  0  0  0  0  0  0  0  0  0  0  0
    1.4220   -2.7657   -0.1832 H   0  0  0  0  0  0  0  0  0  0  0  0
    3.2806   -3.3585    1.2990 H   0  0  0  0  0  0  0  0  0  0  0  0
    5.2722   -2.6001    2.4818 H   0  0  0  0  0  0  0  0  0  0  0  0
  1  2  1  0  0  0  0
  1 24  1  0  0  0  0
  1 25  1  0  0  0  0
  1 26  1  0  0  0  0
  2  3  1  0  0  0  0
  3  4  2  0  0  0  0
  4  5  1  0  0  0  0
  4 27  1  0  0  0  0
  5  6  1  0  0  0  0
  5 20  2  0  0  0  0
  6  7  1  0  0  0  0
  6 28  1  0  0  0  0
  6 29  1  0  0  0  0
  7  8  1  1  0  0  0
  7  9  1  0  0  0  0
  8 30  1  0  0  0  0
  9 10  1  0  0  0  0
  9 31  1  0  0  0  0
  9 32  1  0  0  0  0
 10 11  1  0  0  0  0
 11 12  2  0  0  0  0
 12 13  1  0  0  0  0
 12 33  1  0  0  0  0
 13 14  1  0  0  0  0
 13 15  2  0  0  0  0
 14 34  1  0  0  0  0
 15 16  1  0  0  0  0
 15 35  1  0  0  0  0
 16 17  2  0  0  0  0
 16 36  1  0  0  0  0
 17 18  1  0  0  0  0
 17 11  1  0  0  0  0
 18 19  1  0  0  0  0
 18  7  1  0  0  0  0
 18 37  1  6  0  0  0
 19 38  1  0  0  0  0
 20 21  1  0  0  0  0
 20 39  1  0  0  0  0
 21 22  2  0  0  0  0
 21 40  1  0  0  0  0
 22 23  1  0  0  0  0
 22  3  1  0  0  0  0
 23 41  1  0  0  0  0
M  END
>  <IDENTIFIER>
CNP0262739.1

>  <Energy>
274.861

$$$$
