
 OpenBabel09092505403D

 51 53  0  0  0  0  0  0  0  0999 V2000
    3.3953   -1.0569    1.8598 C   0  0  0  0  0  0  0  0  0  0  0  0
    3.0161   -0.8404    0.3689 C   0  0  2  0  0  0  0  0  0  0  0  0
    3.2759   -2.2272   -0.3254 C   0  0  0  0  0  0  0  0  0  0  0  0
    2.4295   -3.2135    0.2091 O   0  0  0  0  0  0  0  0  0  0  0  0
    3.6564    0.3242   -0.4504 C   0  0  2  0  0  0  0  0  0  0  0  0
    3.6415    1.7180    0.2616 C   0  0  0  0  0  0  0  0  0  0  0  0
    2.3922    1.9210    1.1554 C   0  0  0  0  0  0  0  0  0  0  0  0
    1.1813    1.0636    0.6935 C   0  0  2  0  0  0  0  0  0  0  0  0
    0.2417    0.7604    1.8841 C   0  0  0  0  0  0  0  0  0  0  0  0
   -0.9074    0.0224    1.5017 O   0  0  0  0  0  0  0  0  0  0  0  0
   -1.8049    0.7905    0.7105 C   0  0  1  0  0  0  0  0  0  0  0  0
   -1.6626    0.3282   -0.6397 O   0  0  0  0  0  0  0  0  0  0  0  0
   -2.8752    0.3380   -1.3632 C   0  0  1  0  0  0  0  0  0  0  0  0
   -2.5988    0.0439   -2.8439 C   0  0  0  0  0  0  0  0  0  0  0  0
   -2.0521   -1.2373   -3.0132 O   0  0  0  0  0  0  0  0  0  0  0  0
   -3.9015   -0.6713   -0.7596 C   0  0  2  0  0  0  0  0  0  0  0  0
   -5.1933   -0.3699   -1.2291 O   0  0  0  0  0  0  0  0  0  0  0  0
   -3.8426   -0.6857    0.8026 C   0  0  1  0  0  0  0  0  0  0  0  0
   -3.0825   -1.7716    1.2872 O   0  0  0  0  0  0  0  0  0  0  0  0
   -3.2417    0.6323    1.3140 C   0  0  2  0  0  0  0  0  0  0  0  0
   -4.0722    1.6972    0.9223 O   0  0  0  0  0  0  0  0  0  0  0  0
    1.6410   -0.2295   -0.0750 C   0  0  1  0  0  0  0  0  0  0  0  0
    2.3809    0.3174   -1.3175 C   0  0  0  0  0  0  0  0  0  0  0  0
    4.4466   -1.4109    1.9230 H   0  0  0  0  0  0  0  0  0  0  0  0
    2.7387   -1.8300    2.3103 H   0  0  0  0  0  0  0  0  0  0  0  0
    3.3502   -0.2053    2.5338 H   0  0  0  0  0  0  0  0  0  0  0  0
    4.3490   -2.5069   -0.1941 H   0  0  0  0  0  0  0  0  0  0  0  0
    3.1378   -2.2501   -1.4205 H   0  0  0  0  0  0  0  0  0  0  0  0
    2.9848   -3.7998    0.7868 H   0  0  0  0  0  0  0  0  0  0  0  0
    4.6166    0.1608   -0.9856 H   0  0  0  0  0  0  0  0  0  0  0  0
    3.6507    2.4881   -0.5409 H   0  0  0  0  0  0  0  0  0  0  0  0
    4.5533    1.8809    0.8764 H   0  0  0  0  0  0  0  0  0  0  0  0
    2.1385    2.9904    1.3159 H   0  0  0  0  0  0  0  0  0  0  0  0
    2.6682    1.6130    2.1691 H   0  0  0  0  0  0  0  0  0  0  0  0
    0.6083    1.6715   -0.0398 H   0  0  0  0  0  0  0  0  0  0  0  0
   -0.0529    1.6959    2.4125 H   0  0  0  0  0  0  0  0  0  0  0  0
    0.7931    0.1522    2.6315 H   0  0  0  0  0  0  0  0  0  0  0  0
   -1.5678    1.8804    0.7566 H   0  0  0  0  0  0  0  0  0  0  0  0
   -3.2820    1.3737   -1.3308 H   0  0  0  0  0  0  0  0  0  0  0  0
   -1.9106    0.8108   -3.2676 H   0  0  0  0  0  0  0  0  0  0  0  0
   -3.5443    0.1058   -3.4234 H   0  0  0  0  0  0  0  0  0  0  0  0
   -1.0924   -1.1748   -2.7665 H   0  0  0  0  0  0  0  0  0  0  0  0
   -3.6861   -1.7108   -1.0896 H   0  0  0  0  0  0  0  0  0  0  0  0
   -5.4522    0.5158   -0.8651 H   0  0  0  0  0  0  0  0  0  0  0  0
   -4.8709   -0.8374    1.1988 H   0  0  0  0  0  0  0  0  0  0  0  0
   -2.2997   -1.9158    0.6940 H   0  0  0  0  0  0  0  0  0  0  0  0
   -3.1953    0.6281    2.4285 H   0  0  0  0  0  0  0  0  0  0  0  0
   -3.7893    2.4920    1.4460 H   0  0  0  0  0  0  0  0  0  0  0  0
    0.7872   -0.9048   -0.2988 H   0  0  0  0  0  0  0  0  0  0  0  0
    2.0380    1.2590   -1.8029 H   0  0  0  0  0  0  0  0  0  0  0  0
    2.4383   -0.4473   -2.1158 H   0  0  0  0  0  0  0  0  0  0  0  0
  1 24  1  0  0  0  0
  1 25  1  0  0  0  0
  1 26  1  0  0  0  0
  2  1  1  1  0  0  0
  2  3  1  0  0  0  0
  2  5  1  0  0  0  0
  3  4  1  0  0  0  0
  3 27  1  0  0  0  0
  3 28  1  0  0  0  0
  4 29  1  0  0  0  0
  5  6  1  0  0  0  0
  5 30  1  6  0  0  0
  6  7  1  0  0  0  0
  6 31  1  0  0  0  0
  6 32  1  0  0  0  0
  7  8  1  0  0  0  0
  7 33  1  0  0  0  0
  7 34  1  0  0  0  0
  8  9  1  0  0  0  0
  8 22  1  0  0  0  0
  8 35  1  6  0  0  0
  9 10  1  0  0  0  0
  9 36  1  0  0  0  0
  9 37  1  0  0  0  0
 11 10  1  0  0  0  0
 11 12  1  0  0  0  0
 11 38  1  1  0  0  0
 12 13  1  0  0  0  0
 13 14  1  0  0  0  0
 13 16  1  0  0  0  0
 13 39  1  1  0  0  0
 14 15  1  0  0  0  0
 14 40  1  0  0  0  0
 14 41  1  0  0  0  0
 15 42  1  0  0  0  0
 16 17  1  0  0  0  0
 16 18  1  0  0  0  0
 16 43  1  6  0  0  0
 17 44  1  0  0  0  0
 18 19  1  0  0  0  0
 18 20  1  0  0  0  0
 18 45  1  1  0  0  0
 19 46  1  0  0  0  0
 20 21  1  0  0  0  0
 20 11  1  0  0  0  0
 20 47  1  1  0  0  0
 21 48  1  0  0  0  0
 22 23  1  0  0  0  0
 22  2  1  0  0  0  0
 22 49  1  6  0  0  0
 23  5  1  0  0  0  0
 23 50  1  0  0  0  0
 23 51  1  0  0  0  0
M  END
>  <IDENTIFIER>
CNP0312424.2

>  <Energy>
1172.72

$$$$
