
 OpenBabel09102501393D

 49 51  0  0  0  0  0  0  0  0999 V2000
   -0.8138    3.8915    0.4621 C   0  0  0  0  0  0  0  0  0  0  0  0
   -0.7347    2.9434   -0.5365 O   0  0  0  0  0  0  0  0  0  0  0  0
   -0.2453    1.7030   -0.3192 C   0  0  0  0  0  0  0  0  0  0  0  0
    1.1560    1.4372   -0.3576 C   0  0  0  0  0  0  0  0  0  0  0  0
    2.1889    2.4877   -0.7074 C   0  0  0  0  0  0  0  0  0  0  0  0
    1.9117    3.7727   -1.4472 C   0  0  0  0  0  0  0  0  0  0  0  0
    3.3605    2.2876   -0.4223 O   0  0  0  0  0  0  0  0  0  0  0  0
    1.5937    0.1189   -0.0484 C   0  0  0  0  0  0  0  0  0  0  0  0
    0.6704   -0.8970    0.2393 C   0  0  0  0  0  0  0  0  0  0  0  0
    1.1774   -2.2505    0.5277 C   0  0  0  0  0  0  0  0  0  0  0  0
    2.4898   -2.4971    0.5181 C   0  0  0  0  0  0  0  0  0  0  0  0
    3.5082   -1.4154    0.2042 C   0  0  0  0  0  0  0  0  0  0  0  0
    4.4487   -1.2530    1.4040 C   0  0  0  0  0  0  0  0  0  0  0  0
    4.3072   -1.8410   -1.0335 C   0  0  0  0  0  0  0  0  0  0  0  0
    2.9201   -0.1812   -0.0577 O   0  0  0  0  0  0  0  0  0  0  0  0
   -0.7020   -0.6354    0.2293 C   0  0  0  0  0  0  0  0  0  0  0  0
   -1.1597    0.6704   -0.0221 C   0  0  0  0  0  0  0  0  0  0  0  0
   -2.6610    0.9261    0.0379 C   0  0  2  0  0  0  0  0  0  0  0  0
   -3.1037    1.1224    1.3590 O   0  0  0  0  0  0  0  0  0  0  0  0
   -3.3680   -0.2996   -0.5674 C   0  0  1  0  0  0  0  0  0  0  0  0
   -3.0732   -0.3642   -1.9473 O   0  0  0  0  0  0  0  0  0  0  0  0
   -2.9538   -1.6217    0.1898 C   0  0  0  0  0  0  0  0  0  0  0  0
   -3.3357   -2.8468   -0.6649 C   0  0  0  0  0  0  0  0  0  0  0  0
   -3.6774   -1.7694    1.5458 C   0  0  0  0  0  0  0  0  0  0  0  0
   -1.5823   -1.6541    0.4331 O   0  0  0  0  0  0  0  0  0  0  0  0
   -1.2260    4.8304    0.0394 H   0  0  0  0  0  0  0  0  0  0  0  0
    0.1913    4.0972    0.8863 H   0  0  0  0  0  0  0  0  0  0  0  0
   -1.4880    3.5456    1.2712 H   0  0  0  0  0  0  0  0  0  0  0  0
    0.8807    3.8882   -1.8136 H   0  0  0  0  0  0  0  0  0  0  0  0
    2.5507    3.8020   -2.3552 H   0  0  0  0  0  0  0  0  0  0  0  0
    2.1745    4.6393   -0.8050 H   0  0  0  0  0  0  0  0  0  0  0  0
    0.4915   -3.0611    0.7554 H   0  0  0  0  0  0  0  0  0  0  0  0
    2.8357   -3.5034    0.7383 H   0  0  0  0  0  0  0  0  0  0  0  0
    4.9663   -2.2097    1.6342 H   0  0  0  0  0  0  0  0  0  0  0  0
    3.8737   -0.9356    2.3005 H   0  0  0  0  0  0  0  0  0  0  0  0
    5.2164   -0.4782    1.1905 H   0  0  0  0  0  0  0  0  0  0  0  0
    4.8214   -2.8111   -0.8581 H   0  0  0  0  0  0  0  0  0  0  0  0
    5.0727   -1.0749   -1.2829 H   0  0  0  0  0  0  0  0  0  0  0  0
    3.6284   -1.9529   -1.9066 H   0  0  0  0  0  0  0  0  0  0  0  0
   -2.9390    1.8329   -0.5415 H   0  0  0  0  0  0  0  0  0  0  0  0
   -2.3638    1.4960    1.9040 H   0  0  0  0  0  0  0  0  0  0  0  0
   -4.4713   -0.1744   -0.5008 H   0  0  0  0  0  0  0  0  0  0  0  0
   -2.1204   -0.6118   -2.0656 H   0  0  0  0  0  0  0  0  0  0  0  0
   -4.4286   -2.8597   -0.8689 H   0  0  0  0  0  0  0  0  0  0  0  0
   -3.0610   -3.7878   -0.1410 H   0  0  0  0  0  0  0  0  0  0  0  0
   -2.7942   -2.8456   -1.6339 H   0  0  0  0  0  0  0  0  0  0  0  0
   -4.7798   -1.7478    1.4068 H   0  0  0  0  0  0  0  0  0  0  0  0
   -3.3930   -0.9886    2.2728 H   0  0  0  0  0  0  0  0  0  0  0  0
   -3.4057   -2.7380    2.0192 H   0  0  0  0  0  0  0  0  0  0  0  0
  1  2  1  0  0  0  0
  1 26  1  0  0  0  0
  1 27  1  0  0  0  0
  1 28  1  0  0  0  0
  2  3  1  0  0  0  0
  3  4  2  0  0  0  0
  4  5  1  0  0  0  0
  4  8  1  0  0  0  0
  5  6  1  0  0  0  0
  5  7  2  0  0  0  0
  6 29  1  0  0  0  0
  6 30  1  0  0  0  0
  6 31  1  0  0  0  0
  8  9  2  0  0  0  0
  9 10  1  0  0  0  0
  9 16  1  0  0  0  0
 10 11  2  0  0  0  0
 10 32  1  0  0  0  0
 11 12  1  0  0  0  0
 11 33  1  0  0  0  0
 12 13  1  0  0  0  0
 12 14  1  0  0  0  0
 12 15  1  0  0  0  0
 13 34  1  0  0  0  0
 13 35  1  0  0  0  0
 13 36  1  0  0  0  0
 14 37  1  0  0  0  0
 14 38  1  0  0  0  0
 14 39  1  0  0  0  0
 15  8  1  0  0  0  0
 16 17  2  0  0  0  0
 17 18  1  0  0  0  0
 17  3  1  0  0  0  0
 18 19  1  0  0  0  0
 18 20  1  0  0  0  0
 18 40  1  6  0  0  0
 19 41  1  0  0  0  0
 20 21  1  0  0  0  0
 20 22  1  0  0  0  0
 20 42  1  1  0  0  0
 21 43  1  0  0  0  0
 22 23  1  0  0  0  0
 22 24  1  0  0  0  0
 22 25  1  0  0  0  0
 23 44  1  0  0  0  0
 23 45  1  0  0  0  0
 23 46  1  0  0  0  0
 24 47  1  0  0  0  0
 24 48  1  0  0  0  0
 24 49  1  0  0  0  0
 25 16  1  0  0  0  0
M  END
>  <IDENTIFIER>
CNP0185492.1

>  <Energy>
420.235

$$$$
