
 OpenBabel09072522323D

 84 88  0  0  0  0  0  0  0  0999 V2000
   -6.7943    1.8038    2.0685 C   0  0  0  0  0  0  0  0  0  0  0  0
   -5.8076    1.5351    0.9366 C   0  0  0  0  0  0  0  0  0  0  0  0
   -5.9730    0.1974    0.1584 C   0  0  2  0  0  0  0  0  0  0  0  0
   -4.7684    0.0962   -0.7547 C   0  0  0  0  0  0  0  0  0  0  0  0
   -3.8470   -0.8779   -0.6344 C   0  0  0  0  0  0  0  0  0  0  0  0
   -2.5759   -0.9915   -1.4853 C   0  0  1  0  0  0  0  0  0  0  0  0
   -2.5460    0.0443   -2.6280 C   0  0  0  0  0  0  0  0  0  0  0  0
   -1.3528   -0.8660   -0.5238 C   0  0  1  0  0  0  0  0  0  0  0  0
   -1.2936   -2.0252    0.5406 C   0  0  0  0  0  0  0  0  0  0  0  0
    0.2047   -2.2503    0.8943 C   0  0  0  0  0  0  0  0  0  0  0  0
    0.8690   -0.9791    0.3862 C   0  0  1  0  0  0  0  0  0  0  0  0
    0.5965    0.1138    1.4868 C   0  0  0  0  0  0  0  0  0  0  0  0
    2.3912   -1.0038    0.0939 C   0  0  2  0  0  0  0  0  0  0  0  0
    3.3728   -1.6295    1.0691 C   0  0  0  0  0  0  0  0  0  0  0  0
    4.8089   -1.6158    0.4135 C   0  0  0  0  0  0  0  0  0  0  0  0
    5.1680   -0.2618   -0.3488 C   0  0  2  0  0  0  0  0  0  0  0  0
    6.6900    0.1846   -0.2883 C   0  0  2  0  0  0  0  0  0  0  0  0
    7.6120   -0.6894    0.5797 C   0  0  0  0  0  0  0  0  0  0  0  0
    6.8013    1.6830    0.1523 C   0  0  1  0  0  0  0  0  0  0  0  0
    6.1705    2.5312   -0.7840 O   0  0  0  0  0  0  0  0  0  0  0  0
    6.1089    1.9124    1.5287 C   0  0  0  0  0  0  0  0  0  0  0  0
    4.7553    1.1635    1.6624 C   0  0  0  0  0  0  0  0  0  0  0  0
    4.2305    0.8117    0.2355 C   0  0  1  0  0  0  0  0  0  0  0  0
    3.2015    1.8610   -0.0698 C   0  0  0  0  0  0  0  0  0  0  0  0
    2.8084    0.4262   -0.4118 C   0  0  2  0  0  0  0  0  0  0  0  0
    2.1743    0.5842   -1.8322 C   0  0  0  0  0  0  0  0  0  0  0  0
    0.6160    0.5430   -1.6780 C   0  0  0  0  0  0  0  0  0  0  0  0
    0.1192   -0.7866   -1.0100 C   0  0  2  0  0  0  0  0  0  0  0  0
    0.3261   -1.9452   -2.0665 C   0  0  0  0  0  0  0  0  0  0  0  0
   -7.2690   -0.0114   -0.6984 C   0  0  0  0  0  0  0  0  0  0  0  0
   -8.5329   -0.2782    0.1323 C   0  0  0  0  0  0  0  0  0  0  0  0
   -7.5303    1.1184   -1.7103 C   0  0  0  0  0  0  0  0  0  0  0  0
   -6.4637    2.7062    2.6254 H   0  0  0  0  0  0  0  0  0  0  0  0
   -6.8230    0.9463    2.7736 H   0  0  0  0  0  0  0  0  0  0  0  0
   -7.8005    2.0395    1.6895 H   0  0  0  0  0  0  0  0  0  0  0  0
   -4.8047    1.5025    1.4210 H   0  0  0  0  0  0  0  0  0  0  0  0
   -5.8085    2.4018    0.2402 H   0  0  0  0  0  0  0  0  0  0  0  0
   -5.9259   -0.6367    0.8939 H   0  0  0  0  0  0  0  0  0  0  0  0
   -4.6555    0.8735   -1.4983 H   0  0  0  0  0  0  0  0  0  0  0  0
   -3.9892   -1.6296    0.1374 H   0  0  0  0  0  0  0  0  0  0  0  0
   -2.5749   -1.9913   -1.9696 H   0  0  0  0  0  0  0  0  0  0  0  0
   -2.4801    1.0793   -2.2305 H   0  0  0  0  0  0  0  0  0  0  0  0
   -3.4589   -0.0601   -3.2537 H   0  0  0  0  0  0  0  0  0  0  0  0
   -1.7074   -0.1312   -3.3177 H   0  0  0  0  0  0  0  0  0  0  0  0
   -1.5071    0.0960    0.0091 H   0  0  0  0  0  0  0  0  0  0  0  0
   -1.6946   -2.9930    0.1680 H   0  0  0  0  0  0  0  0  0  0  0  0
   -1.8930   -1.7126    1.4234 H   0  0  0  0  0  0  0  0  0  0  0  0
    0.5951   -3.0988    0.2966 H   0  0  0  0  0  0  0  0  0  0  0  0
    0.3976   -2.5270    1.9528 H   0  0  0  0  0  0  0  0  0  0  0  0
    1.2080   -0.0971    2.3893 H   0  0  0  0  0  0  0  0  0  0  0  0
   -0.4471    0.1501    1.8506 H   0  0  0  0  0  0  0  0  0  0  0  0
    0.8255    1.1331    1.1454 H   0  0  0  0  0  0  0  0  0  0  0  0
    2.5413   -1.7116   -0.7406 H   0  0  0  0  0  0  0  0  0  0  0  0
    3.0962   -2.6727    1.3363 H   0  0  0  0  0  0  0  0  0  0  0  0
    3.3241   -1.0500    2.0084 H   0  0  0  0  0  0  0  0  0  0  0  0
    4.9384   -2.4452   -0.3147 H   0  0  0  0  0  0  0  0  0  0  0  0
    5.4687   -1.8350    1.2721 H   0  0  0  0  0  0  0  0  0  0  0  0
    4.8934   -0.3659   -1.4246 H   0  0  0  0  0  0  0  0  0  0  0  0
    7.1105    0.0837   -1.3126 H   0  0  0  0  0  0  0  0  0  0  0  0
    7.3287   -0.6601    1.6510 H   0  0  0  0  0  0  0  0  0  0  0  0
    8.6592   -0.3280    0.4935 H   0  0  0  0  0  0  0  0  0  0  0  0
    7.5945   -1.7388    0.2146 H   0  0  0  0  0  0  0  0  0  0  0  0
    7.8616    2.0111    0.2152 H   0  0  0  0  0  0  0  0  0  0  0  0
    6.2862    2.1614   -1.6957 H   0  0  0  0  0  0  0  0  0  0  0  0
    5.9560    3.0081    1.6386 H   0  0  0  0  0  0  0  0  0  0  0  0
    6.7564    1.5979    2.3781 H   0  0  0  0  0  0  0  0  0  0  0  0
    4.0674    1.7206    2.3367 H   0  0  0  0  0  0  0  0  0  0  0  0
    4.9868    0.2360    2.2154 H   0  0  0  0  0  0  0  0  0  0  0  0
    3.6174    2.5456   -0.8386 H   0  0  0  0  0  0  0  0  0  0  0  0
    2.5987    2.2886    0.7549 H   0  0  0  0  0  0  0  0  0  0  0  0
    2.5414   -0.2156   -2.5059 H   0  0  0  0  0  0  0  0  0  0  0  0
    2.4313    1.5294   -2.3593 H   0  0  0  0  0  0  0  0  0  0  0  0
    0.1648    0.6944   -2.6748 H   0  0  0  0  0  0  0  0  0  0  0  0
    0.3118    1.4111   -1.0551 H   0  0  0  0  0  0  0  0  0  0  0  0
   -0.2565   -1.7406   -2.9829 H   0  0  0  0  0  0  0  0  0  0  0  0
   -0.0270   -2.9354   -1.7235 H   0  0  0  0  0  0  0  0  0  0  0  0
    1.3623   -2.0743   -2.4219 H   0  0  0  0  0  0  0  0  0  0  0  0
   -7.1086   -0.9528   -1.2742 H   0  0  0  0  0  0  0  0  0  0  0  0
   -8.8962    0.6031    0.6736 H   0  0  0  0  0  0  0  0  0  0  0  0
   -8.3554   -1.1064    0.8526 H   0  0  0  0  0  0  0  0  0  0  0  0
   -9.3615   -0.5884   -0.5428 H   0  0  0  0  0  0  0  0  0  0  0  0
   -7.7201    2.0790   -1.1877 H   0  0  0  0  0  0  0  0  0  0  0  0
   -8.4198    0.8744   -2.3301 H   0  0  0  0  0  0  0  0  0  0  0  0
   -6.6761    1.2464   -2.4041 H   0  0  0  0  0  0  0  0  0  0  0  0
  1  2  1  0  0  0  0
  1 33  1  0  0  0  0
  1 34  1  0  0  0  0
  1 35  1  0  0  0  0
  2 36  1  0  0  0  0
  2 37  1  0  0  0  0
  3  2  1  0  0  0  0
  3  4  1  0  0  0  0
  3 30  1  0  0  0  0
  3 38  1  1  0  0  0
  4  5  2  0  0  0  0
  4 39  1  0  0  0  0
  5  6  1  0  0  0  0
  5 40  1  0  0  0  0
  6  7  1  0  0  0  0
  6  8  1  0  0  0  0
  6 41  1  6  0  0  0
  7 42  1  0  0  0  0
  7 43  1  0  0  0  0
  7 44  1  0  0  0  0
  8  9  1  0  0  0  0
  8 45  1  1  0  0  0
  9 10  1  0  0  0  0
  9 46  1  0  0  0  0
  9 47  1  0  0  0  0
 10 11  1  0  0  0  0
 10 48  1  0  0  0  0
 10 49  1  0  0  0  0
 11 12  1  1  0  0  0
 11 13  1  0  0  0  0
 12 50  1  0  0  0  0
 12 51  1  0  0  0  0
 12 52  1  0  0  0  0
 13 14  1  0  0  0  0
 13 53  1  6  0  0  0
 14 15  1  0  0  0  0
 14 54  1  0  0  0  0
 14 55  1  0  0  0  0
 15 56  1  0  0  0  0
 15 57  1  0  0  0  0
 16 15  1  0  0  0  0
 16 17  1  0  0  0  0
 16 58  1  6  0  0  0
 17 18  1  0  0  0  0
 17 19  1  0  0  0  0
 17 59  1  6  0  0  0
 18 60  1  0  0  0  0
 18 61  1  0  0  0  0
 18 62  1  0  0  0  0
 19 20  1  0  0  0  0
 19 21  1  0  0  0  0
 19 63  1  1  0  0  0
 20 64  1  0  0  0  0
 21 22  1  0  0  0  0
 21 65  1  0  0  0  0
 21 66  1  0  0  0  0
 22 67  1  0  0  0  0
 22 68  1  0  0  0  0
 23 22  1  1  0  0  0
 23 24  1  0  0  0  0
 23 16  1  0  0  0  0
 24 69  1  0  0  0  0
 24 70  1  0  0  0  0
 25 24  1  1  0  0  0
 25 26  1  0  0  0  0
 25 13  1  0  0  0  0
 25 23  1  0  0  0  0
 26 27  1  0  0  0  0
 26 71  1  0  0  0  0
 26 72  1  0  0  0  0
 27 28  1  0  0  0  0
 27 73  1  0  0  0  0
 27 74  1  0  0  0  0
 28 29  1  6  0  0  0
 28  8  1  0  0  0  0
 28 11  1  0  0  0  0
 29 75  1  0  0  0  0
 29 76  1  0  0  0  0
 29 77  1  0  0  0  0
 30 31  1  0  0  0  0
 30 32  1  0  0  0  0
 30 78  1  0  0  0  0
 31 79  1  0  0  0  0
 31 80  1  0  0  0  0
 31 81  1  0  0  0  0
 32 82  1  0  0  0  0
 32 83  1  0  0  0  0
 32 84  1  0  0  0  0
M  END
>  <IDENTIFIER>
CNP0224954.2

>  <Energy>
2736.9

$$$$
