
 OpenBabel09092517353D

148155  0  0  0  0  0  0  0  0999 V2000
  -14.5282   -1.2465   -1.0444 C   0  0  0  0  0  0  0  0  0  0  0  0
  -13.3061   -0.5924   -0.7821 O   0  0  0  0  0  0  0  0  0  0  0  0
  -12.7497   -1.0199    0.4572 C   0  0  1  0  0  0  0  0  0  0  0  0
  -11.2543   -1.2850    0.2632 C   0  0  1  0  0  0  0  0  0  0  0  0
  -11.0081   -2.4129   -0.5418 O   0  0  0  0  0  0  0  0  0  0  0  0
  -10.6081   -0.0071   -0.3494 C   0  0  2  0  0  0  0  0  0  0  0  0
   -9.1932   -0.0510   -0.1921 O   0  0  0  0  0  0  0  0  0  0  0  0
   -8.5064    0.5461   -1.2922 C   0  0  2  0  0  0  0  0  0  0  0  0
   -7.6923   -0.5720   -1.9899 C   0  0  1  0  0  0  0  0  0  0  0  0
   -7.1444   -0.1565   -3.3593 C   0  0  0  0  0  0  0  0  0  0  0  0
   -6.6443   -1.1285   -1.1836 O   0  0  0  0  0  0  0  0  0  0  0  0
   -6.1479   -0.3084   -0.1208 C   0  0  1  0  0  0  0  0  0  0  0  0
   -4.7909   -0.6870    0.1151 O   0  0  0  0  0  0  0  0  0  0  0  0
   -4.4255   -0.6479    1.4930 C   0  0  1  0  0  0  0  0  0  0  0  0
   -3.7639   -1.9747    1.8677 C   0  0  1  0  0  0  0  0  0  0  0  0
   -4.6593   -3.0481    1.6307 O   0  0  0  0  0  0  0  0  0  0  0  0
   -4.4110   -4.1116    2.5233 C   0  0  0  0  0  0  0  0  0  0  0  0
   -2.4610   -2.1589    1.0586 C   0  0  0  0  0  0  0  0  0  0  0  0
   -1.6910   -0.8274    0.8910 C   0  0  2  0  0  0  0  0  0  0  0  0
   -0.3072   -1.1229    0.9880 O   0  0  0  0  0  0  0  0  0  0  0  0
    0.5209   -0.2012    0.2961 C   0  0  1  0  0  0  0  0  0  0  0  0
    1.7906    0.0675    1.1569 C   0  0  0  0  0  0  0  0  0  0  0  0
    2.8749   -0.9589    0.8477 C   0  0  0  0  0  0  0  0  0  0  0  0
    3.4183   -0.8264   -0.6346 C   0  0  1  0  0  0  0  0  0  0  0  0
    3.8660   -2.2620   -1.0437 C   0  0  0  0  0  0  0  0  0  0  0  0
    2.2341   -0.4189   -1.6332 C   0  0  2  0  0  0  0  0  0  0  0  0
    2.2564    1.0673   -1.9869 C   0  0  0  0  0  0  0  0  0  0  0  0
    3.5378    1.4168   -2.7492 C   0  0  0  0  0  0  0  0  0  0  0  0
    4.8099    0.6703   -2.2412 C   0  0  2  0  0  0  0  0  0  0  0  0
    4.6529    0.2192   -0.7482 C   0  0  2  0  0  0  0  0  0  0  0  0
    6.0164   -0.3449   -0.1828 C   0  0  2  0  0  0  0  0  0  0  0  0
    5.9524   -0.4866    1.1944 O   0  0  0  0  0  0  0  0  0  0  0  0
    6.2591   -1.6047    1.9044 C   0  0  0  0  0  0  0  0  0  0  0  0
    6.1615   -1.5711    3.3954 C   0  0  0  0  0  0  0  0  0  0  0  0
    6.6356   -2.6267    1.3496 O   0  0  0  0  0  0  0  0  0  0  0  0
    7.2126    0.5801   -0.4800 C   0  0  1  0  0  0  0  0  0  0  0  0
    8.3728   -0.0120    0.0056 O   0  0  0  0  0  0  0  0  0  0  0  0
    9.2138    0.4980    0.9430 C   0  0  0  0  0  0  0  0  0  0  0  0
    9.0176    1.6025    1.4304 O   0  0  0  0  0  0  0  0  0  0  0  0
   10.3857   -0.3107    1.3461 C   0  0  0  0  0  0  0  0  0  0  0  0
   11.2993    0.1282    2.2344 C   0  0  0  0  0  0  0  0  0  0  0  0
   12.4972   -0.6450    2.6737 C   0  0  0  0  0  0  0  0  0  0  0  0
   13.3856   -0.0375    3.5819 C   0  0  0  0  0  0  0  0  0  0  0  0
   14.5252   -0.7153    4.0292 C   0  0  0  0  0  0  0  0  0  0  0  0
   14.7932   -2.0070    3.5780 C   0  0  0  0  0  0  0  0  0  0  0  0
   13.9234   -2.6257    2.6787 C   0  0  0  0  0  0  0  0  0  0  0  0
   12.7830   -1.9543    2.2258 C   0  0  0  0  0  0  0  0  0  0  0  0
    7.3921    0.8688   -2.0193 C   0  0  2  0  0  0  0  0  0  0  0  0
    7.7760   -0.4495   -2.7564 C   0  0  0  0  0  0  0  0  0  0  0  0
    8.4307    2.0327   -2.2325 C   0  0  1  0  0  0  0  0  0  0  0  0
    8.9117    2.2300   -3.6792 C   0  0  0  0  0  0  0  0  0  0  0  0
    9.9013    1.2940   -4.3145 C   0  0  0  0  0  0  0  0  0  0  0  0
    8.5582    3.2053   -4.3275 O   0  0  0  0  0  0  0  0  0  0  0  0
    7.6382    3.2700   -1.7581 C   0  0  0  0  0  0  0  0  0  0  0  0
    6.1471    2.9465   -1.9887 C   0  0  0  0  0  0  0  0  0  0  0  0
    6.0953    1.5053   -2.5814 C   0  0  2  0  0  0  0  0  0  0  0  0
    6.2185    1.5858   -3.9884 O   0  0  0  0  0  0  0  0  0  0  0  0
    0.8633   -0.8416   -1.0766 C   0  0  0  0  0  0  0  0  0  0  0  0
   -2.0467    0.0789    1.9126 O   0  0  0  0  0  0  0  0  0  0  0  0
   -3.4039    0.5155    1.7804 C   0  0  2  0  0  0  0  0  0  0  0  0
   -3.7668    1.2113    3.0953 C   0  0  0  0  0  0  0  0  0  0  0  0
   -6.1687    1.1830   -0.4803 C   0  0  0  0  0  0  0  0  0  0  0  0
   -7.5943    1.6818   -0.7670 C   0  0  1  0  0  0  0  0  0  0  0  0
   -7.4965    2.7360   -1.7127 O   0  0  0  0  0  0  0  0  0  0  0  0
   -8.4138    3.7644   -1.4094 C   0  0  0  0  0  0  0  0  0  0  0  0
  -11.1329    1.2392    0.1280 O   0  0  0  0  0  0  0  0  0  0  0  0
  -11.7417    1.1855    1.4107 C   0  0  2  0  0  0  0  0  0  0  0  0
  -10.6695    1.0862    2.5119 C   0  0  0  0  0  0  0  0  0  0  0  0
  -12.8714    0.1003    1.5180 C   0  0  1  0  0  0  0  0  0  0  0  0
  -14.1589    0.6669    1.4963 O   0  0  0  0  0  0  0  0  0  0  0  0
  -14.9808   -0.7923   -1.9498 H   0  0  0  0  0  0  0  0  0  0  0  0
  -15.2561   -1.1045   -0.2149 H   0  0  0  0  0  0  0  0  0  0  0  0
  -14.3591   -2.3245   -1.2567 H   0  0  0  0  0  0  0  0  0  0  0  0
  -13.2446   -1.9397    0.8573 H   0  0  0  0  0  0  0  0  0  0  0  0
  -10.8306   -1.5080    1.2632 H   0  0  0  0  0  0  0  0  0  0  0  0
  -11.4859   -2.2878   -1.4031 H   0  0  0  0  0  0  0  0  0  0  0  0
  -10.9162   -0.0599   -1.4197 H   0  0  0  0  0  0  0  0  0  0  0  0
   -9.2163    1.0051   -2.0206 H   0  0  0  0  0  0  0  0  0  0  0  0
   -8.4179   -1.3901   -2.1970 H   0  0  0  0  0  0  0  0  0  0  0  0
   -6.4101    0.6661   -3.2941 H   0  0  0  0  0  0  0  0  0  0  0  0
   -7.9789    0.1705   -4.0156 H   0  0  0  0  0  0  0  0  0  0  0  0
   -6.6509   -1.0300   -3.8359 H   0  0  0  0  0  0  0  0  0  0  0  0
   -6.8106   -0.4908    0.7551 H   0  0  0  0  0  0  0  0  0  0  0  0
   -5.3092   -0.5347    2.1627 H   0  0  0  0  0  0  0  0  0  0  0  0
   -3.5071   -1.8690    2.9515 H   0  0  0  0  0  0  0  0  0  0  0  0
   -5.0711   -4.9590    2.2463 H   0  0  0  0  0  0  0  0  0  0  0  0
   -4.6626   -3.8222    3.5666 H   0  0  0  0  0  0  0  0  0  0  0  0
   -3.3665   -4.4834    2.4429 H   0  0  0  0  0  0  0  0  0  0  0  0
   -2.6480   -2.5650    0.0399 H   0  0  0  0  0  0  0  0  0  0  0  0
   -1.8530   -2.9080    1.6111 H   0  0  0  0  0  0  0  0  0  0  0  0
   -1.9567   -0.3861   -0.1027 H   0  0  0  0  0  0  0  0  0  0  0  0
    0.0386    0.7993    0.1859 H   0  0  0  0  0  0  0  0  0  0  0  0
    1.5063    0.0677    2.2318 H   0  0  0  0  0  0  0  0  0  0  0  0
    2.2250    1.0663    0.9637 H   0  0  0  0  0  0  0  0  0  0  0  0
    2.3873   -1.9461    1.0099 H   0  0  0  0  0  0  0  0  0  0  0  0
    3.6854   -0.9052    1.5908 H   0  0  0  0  0  0  0  0  0  0  0  0
    3.0070   -2.9653   -1.0342 H   0  0  0  0  0  0  0  0  0  0  0  0
    4.6043   -2.6836   -0.3350 H   0  0  0  0  0  0  0  0  0  0  0  0
    4.2955   -2.2887   -2.0653 H   0  0  0  0  0  0  0  0  0  0  0  0
    2.3709   -0.9347   -2.6122 H   0  0  0  0  0  0  0  0  0  0  0  0
    2.2143    1.6725   -1.0650 H   0  0  0  0  0  0  0  0  0  0  0  0
    1.3845    1.3682   -2.6077 H   0  0  0  0  0  0  0  0  0  0  0  0
    3.6230    2.5196   -2.6630 H   0  0  0  0  0  0  0  0  0  0  0  0
    3.4300    1.1791   -3.8303 H   0  0  0  0  0  0  0  0  0  0  0  0
    4.8923   -0.2797   -2.8074 H   0  0  0  0  0  0  0  0  0  0  0  0
    4.4137    1.1458   -0.1826 H   0  0  0  0  0  0  0  0  0  0  0  0
    6.2541   -1.3089   -0.6633 H   0  0  0  0  0  0  0  0  0  0  0  0
    5.8199   -0.5702    3.7353 H   0  0  0  0  0  0  0  0  0  0  0  0
    7.1580   -1.7784    3.8391 H   0  0  0  0  0  0  0  0  0  0  0  0
    5.4366   -2.3364    3.7421 H   0  0  0  0  0  0  0  0  0  0  0  0
    6.9990    1.5090    0.0809 H   0  0  0  0  0  0  0  0  0  0  0  0
   10.4776   -1.2838    0.8838 H   0  0  0  0  0  0  0  0  0  0  0  0
   11.1654    1.1187    2.6639 H   0  0  0  0  0  0  0  0  0  0  0  0
   13.1980    0.9646    3.9468 H   0  0  0  0  0  0  0  0  0  0  0  0
   15.1996   -0.2346    4.7258 H   0  0  0  0  0  0  0  0  0  0  0  0
   15.6747   -2.5299    3.9259 H   0  0  0  0  0  0  0  0  0  0  0  0
   14.1333   -3.6291    2.3315 H   0  0  0  0  0  0  0  0  0  0  0  0
   12.1410   -2.4746    1.5320 H   0  0  0  0  0  0  0  0  0  0  0  0
    8.7341   -0.8533   -2.3679 H   0  0  0  0  0  0  0  0  0  0  0  0
    7.8738   -0.2975   -3.8475 H   0  0  0  0  0  0  0  0  0  0  0  0
    7.0077   -1.2374   -2.6546 H   0  0  0  0  0  0  0  0  0  0  0  0
    9.3645    1.9203   -1.6390 H   0  0  0  0  0  0  0  0  0  0  0  0
   10.2086    0.4896   -3.6168 H   0  0  0  0  0  0  0  0  0  0  0  0
   10.8131    1.8605   -4.5974 H   0  0  0  0  0  0  0  0  0  0  0  0
    9.4630    0.8443   -5.2301 H   0  0  0  0  0  0  0  0  0  0  0  0
    7.9835    4.2493   -2.1544 H   0  0  0  0  0  0  0  0  0  0  0  0
    7.7849    3.3656   -0.6608 H   0  0  0  0  0  0  0  0  0  0  0  0
    5.6303    3.6999   -2.6200 H   0  0  0  0  0  0  0  0  0  0  0  0
    5.6505    2.9784   -0.9951 H   0  0  0  0  0  0  0  0  0  0  0  0
    5.5361    2.2150   -4.3374 H   0  0  0  0  0  0  0  0  0  0  0  0
    0.9313   -1.9427   -0.9407 H   0  0  0  0  0  0  0  0  0  0  0  0
    0.0325   -0.6694   -1.7941 H   0  0  0  0  0  0  0  0  0  0  0  0
   -3.4843    1.2994    0.9956 H   0  0  0  0  0  0  0  0  0  0  0  0
   -3.7076    0.4975    3.9443 H   0  0  0  0  0  0  0  0  0  0  0  0
   -4.7961    1.6274    3.0403 H   0  0  0  0  0  0  0  0  0  0  0  0
   -3.0640    2.0506    3.2842 H   0  0  0  0  0  0  0  0  0  0  0  0
   -5.5381    1.2775   -1.3881 H   0  0  0  0  0  0  0  0  0  0  0  0
   -5.7048    1.8290    0.2945 H   0  0  0  0  0  0  0  0  0  0  0  0
   -8.0354    2.0216    0.2042 H   0  0  0  0  0  0  0  0  0  0  0  0
   -8.3958    4.5050   -2.2349 H   0  0  0  0  0  0  0  0  0  0  0  0
   -8.1165    4.2940   -0.4778 H   0  0  0  0  0  0  0  0  0  0  0  0
   -9.4554    3.3783   -1.3414 H   0  0  0  0  0  0  0  0  0  0  0  0
  -12.2192    2.1716    1.6033 H   0  0  0  0  0  0  0  0  0  0  0  0
  -10.0836    0.1508    2.4590 H   0  0  0  0  0  0  0  0  0  0  0  0
  -11.1484    1.1433    3.5131 H   0  0  0  0  0  0  0  0  0  0  0  0
   -9.9635    1.9381    2.4172 H   0  0  0  0  0  0  0  0  0  0  0  0
  -12.7580   -0.3630    2.5233 H   0  0  0  0  0  0  0  0  0  0  0  0
  -14.2199    1.2459    0.6925 H   0  0  0  0  0  0  0  0  0  0  0  0
  1  2  1  0  0  0  0
  1 71  1  0  0  0  0
  1 72  1  0  0  0  0
  1 73  1  0  0  0  0
  3  2  1  0  0  0  0
  3  4  1  0  0  0  0
  3 74  1  1  0  0  0
  4  5  1  0  0  0  0
  4  6  1  0  0  0  0
  4 75  1  1  0  0  0
  5 76  1  0  0  0  0
  6  7  1  0  0  0  0
  6 66  1  0  0  0  0
  6 77  1  6  0  0  0
  8  7  1  0  0  0  0
  8  9  1  0  0  0  0
  8 78  1  6  0  0  0
  9 10  1  0  0  0  0
  9 11  1  0  0  0  0
  9 79  1  6  0  0  0
 10 80  1  0  0  0  0
 10 81  1  0  0  0  0
 10 82  1  0  0  0  0
 11 12  1  0  0  0  0
 12 13  1  0  0  0  0
 12 62  1  0  0  0  0
 12 83  1  1  0  0  0
 14 13  1  0  0  0  0
 14 15  1  0  0  0  0
 14 84  1  1  0  0  0
 15 16  1  0  0  0  0
 15 18  1  0  0  0  0
 15 85  1  1  0  0  0
 16 17  1  0  0  0  0
 17 86  1  0  0  0  0
 17 87  1  0  0  0  0
 17 88  1  0  0  0  0
 18 19  1  0  0  0  0
 18 89  1  0  0  0  0
 18 90  1  0  0  0  0
 19 20  1  0  0  0  0
 19 59  1  0  0  0  0
 19 91  1  6  0  0  0
 21 20  1  0  0  0  0
 21 22  1  0  0  0  0
 21 92  1  6  0  0  0
 22 23  1  0  0  0  0
 22 93  1  0  0  0  0
 22 94  1  0  0  0  0
 23 24  1  0  0  0  0
 23 95  1  0  0  0  0
 23 96  1  0  0  0  0
 24 25  1  6  0  0  0
 24 26  1  0  0  0  0
 25 97  1  0  0  0  0
 25 98  1  0  0  0  0
 25 99  1  0  0  0  0
 26 27  1  0  0  0  0
 26 58  1  0  0  0  0
 26100  1  6  0  0  0
 27 28  1  0  0  0  0
 27101  1  0  0  0  0
 27102  1  0  0  0  0
 28103  1  0  0  0  0
 28104  1  0  0  0  0
 29 28  1  0  0  0  0
 29 30  1  0  0  0  0
 29105  1  6  0  0  0
 30 31  1  0  0  0  0
 30 24  1  0  0  0  0
 30106  1  1  0  0  0
 31 32  1  0  0  0  0
 31 36  1  0  0  0  0
 31107  1  6  0  0  0
 32 33  1  0  0  0  0
 33 34  1  0  0  0  0
 33 35  2  0  0  0  0
 34108  1  0  0  0  0
 34109  1  0  0  0  0
 34110  1  0  0  0  0
 36 37  1  0  0  0  0
 36 48  1  0  0  0  0
 36111  1  1  0  0  0
 37 38  1  0  0  0  0
 38 39  2  0  0  0  0
 38 40  1  0  0  0  0
 40 41  2  0  0  0  0
 40112  1  0  0  0  0
 41 42  1  0  0  0  0
 41113  1  0  0  0  0
 42 43  2  0  0  0  0
 43 44  1  0  0  0  0
 43114  1  0  0  0  0
 44 45  2  0  0  0  0
 44115  1  0  0  0  0
 45 46  1  0  0  0  0
 45116  1  0  0  0  0
 46 47  2  0  0  0  0
 46117  1  0  0  0  0
 47 42  1  0  0  0  0
 47118  1  0  0  0  0
 48 49  1  6  0  0  0
 48 50  1  0  0  0  0
 49119  1  0  0  0  0
 49120  1  0  0  0  0
 49121  1  0  0  0  0
 50 51  1  0  0  0  0
 50 54  1  0  0  0  0
 50122  1  1  0  0  0
 51 52  1  0  0  0  0
 51 53  2  0  0  0  0
 52123  1  0  0  0  0
 52124  1  0  0  0  0
 52125  1  0  0  0  0
 54 55  1  0  0  0  0
 54126  1  0  0  0  0
 54127  1  0  0  0  0
 55 56  1  0  0  0  0
 55128  1  0  0  0  0
 55129  1  0  0  0  0
 56 57  1  6  0  0  0
 56 48  1  0  0  0  0
 56 29  1  0  0  0  0
 57130  1  0  0  0  0
 58 21  1  0  0  0  0
 58131  1  0  0  0  0
 58132  1  0  0  0  0
 59 60  1  0  0  0  0
 60 61  1  0  0  0  0
 60 14  1  0  0  0  0
 60133  1  6  0  0  0
 61134  1  0  0  0  0
 61135  1  0  0  0  0
 61136  1  0  0  0  0
 62 63  1  0  0  0  0
 62137  1  0  0  0  0
 62138  1  0  0  0  0
 63 64  1  0  0  0  0
 63  8  1  0  0  0  0
 63139  1  1  0  0  0
 64 65  1  0  0  0  0
 65140  1  0  0  0  0
 65141  1  0  0  0  0
 65142  1  0  0  0  0
 66 67  1  0  0  0  0
 67 68  1  0  0  0  0
 67 69  1  0  0  0  0
 67143  1  1  0  0  0
 68144  1  0  0  0  0
 68145  1  0  0  0  0
 68146  1  0  0  0  0
 69 70  1  0  0  0  0
 69  3  1  0  0  0  0
 69147  1  1  0  0  0
 70148  1  0  0  0  0
M  END
>  <IDENTIFIER>
CNP0232455.1

>  <Energy>
1989.97

$$$$
