
 OpenBabel09052521373D

 57 56  0  0  0  0  0  0  0  0999 V2000
    5.8269    3.6847    1.2943 C   0  0  0  0  0  0  0  0  0  0  0  0
    4.8194    2.7973    2.0275 C   0  0  0  0  0  0  0  0  0  0  0  0
    3.8038    2.1209    1.0912 C   0  0  0  0  0  0  0  0  0  0  0  0
    4.4520    1.1217    0.1157 C   0  0  0  0  0  0  0  0  0  0  0  0
    3.4409    0.4723   -0.8454 C   0  0  0  0  0  0  0  0  0  0  0  0
    2.3794   -0.4099   -0.1539 C   0  0  2  0  0  0  0  0  0  0  0  0
    2.9900   -1.4278    0.6005 O   0  0  0  0  0  0  0  0  0  0  0  0
    1.4323   -1.0013   -1.1721 C   0  0  0  0  0  0  0  0  0  0  0  0
    0.4050   -1.7800   -0.7992 C   0  0  0  0  0  0  0  0  0  0  0  0
   -0.5587   -2.3639   -1.8142 C   0  0  1  0  0  0  0  0  0  0  0  0
   -0.4478   -3.8803   -1.8184 C   0  0  0  0  0  0  0  0  0  0  0  0
   -0.6060   -4.7282   -0.5853 C   0  0  0  0  0  0  0  0  0  0  0  0
   -0.1684   -4.4439   -2.8661 O   0  0  0  0  0  0  0  0  0  0  0  0
   -2.0157   -1.8271   -1.6388 C   0  0  2  0  0  0  0  0  0  0  0  0
   -2.0055   -0.3222   -1.7831 C   0  0  0  0  0  0  0  0  0  0  0  0
   -2.6073    0.2161   -2.6989 O   0  0  0  0  0  0  0  0  0  0  0  0
   -2.7053   -2.2259   -0.3142 C   0  0  0  0  0  0  0  0  0  0  0  0
   -4.1180   -1.6848   -0.2404 C   0  0  0  0  0  0  0  0  0  0  0  0
   -4.6385   -0.9131    0.7363 C   0  0  0  0  0  0  0  0  0  0  0  0
   -3.9329   -0.4241    1.9831 C   0  0  0  0  0  0  0  0  0  0  0  0
   -3.9749    1.1051    2.1013 C   0  0  0  0  0  0  0  0  0  0  0  0
   -3.1890    1.8046    0.9822 C   0  0  0  0  0  0  0  0  0  0  0  0
   -3.1730    3.3149    1.0837 C   0  0  0  0  0  0  0  0  0  0  0  0
   -2.5675    3.9466    0.2329 O   0  0  0  0  0  0  0  0  0  0  0  0
   -3.7964    3.9969    2.0730 O   0  0  0  0  0  0  0  0  0  0  0  0
    6.4876    4.1809    2.0359 H   0  0  0  0  0  0  0  0  0  0  0  0
    5.2968    4.4680    0.7117 H   0  0  0  0  0  0  0  0  0  0  0  0
    6.4704    3.0912    0.6144 H   0  0  0  0  0  0  0  0  0  0  0  0
    4.2551    3.4409    2.7368 H   0  0  0  0  0  0  0  0  0  0  0  0
    5.3619    2.0264    2.6167 H   0  0  0  0  0  0  0  0  0  0  0  0
    3.2547    2.9023    0.5215 H   0  0  0  0  0  0  0  0  0  0  0  0
    3.0781    1.5822    1.7348 H   0  0  0  0  0  0  0  0  0  0  0  0
    4.9911    0.3333    0.6845 H   0  0  0  0  0  0  0  0  0  0  0  0
    5.1883    1.6570   -0.5179 H   0  0  0  0  0  0  0  0  0  0  0  0
    4.0125   -0.1604   -1.5603 H   0  0  0  0  0  0  0  0  0  0  0  0
    2.9344    1.2728   -1.4292 H   0  0  0  0  0  0  0  0  0  0  0  0
    1.7711    0.2172    0.5300 H   0  0  0  0  0  0  0  0  0  0  0  0
    3.4936   -2.0074   -0.0305 H   0  0  0  0  0  0  0  0  0  0  0  0
    1.5852   -0.7836   -2.2264 H   0  0  0  0  0  0  0  0  0  0  0  0
    0.2598   -1.9917    0.2559 H   0  0  0  0  0  0  0  0  0  0  0  0
   -0.2549   -2.0268   -2.8335 H   0  0  0  0  0  0  0  0  0  0  0  0
   -0.7905   -4.1209    0.3220 H   0  0  0  0  0  0  0  0  0  0  0  0
    0.3290   -5.3020   -0.4150 H   0  0  0  0  0  0  0  0  0  0  0  0
   -1.4454   -5.4410   -0.7258 H   0  0  0  0  0  0  0  0  0  0  0  0
   -2.6263   -2.2504   -2.4695 H   0  0  0  0  0  0  0  0  0  0  0  0
   -1.4623    0.2905   -1.0719 H   0  0  0  0  0  0  0  0  0  0  0  0
   -2.0802   -1.9078    0.5349 H   0  0  0  0  0  0  0  0  0  0  0  0
   -2.8067   -3.3266   -0.2775 H   0  0  0  0  0  0  0  0  0  0  0  0
   -4.7808   -1.9610   -1.0564 H   0  0  0  0  0  0  0  0  0  0  0  0
   -5.6806   -0.6234    0.6321 H   0  0  0  0  0  0  0  0  0  0  0  0
   -2.8828   -0.7537    2.0645 H   0  0  0  0  0  0  0  0  0  0  0  0
   -4.4738   -0.8499    2.8547 H   0  0  0  0  0  0  0  0  0  0  0  0
   -3.5245    1.3798    3.0804 H   0  0  0  0  0  0  0  0  0  0  0  0
   -5.0350    1.4423    2.0879 H   0  0  0  0  0  0  0  0  0  0  0  0
   -3.6327    1.5330    0.0005 H   0  0  0  0  0  0  0  0  0  0  0  0
   -2.1368    1.4474    1.0094 H   0  0  0  0  0  0  0  0  0  0  0  0
   -4.2954    3.5788    2.7862 H   0  0  0  0  0  0  0  0  0  0  0  0
  1  2  1  0  0  0  0
  1 26  1  0  0  0  0
  1 27  1  0  0  0  0
  1 28  1  0  0  0  0
  2  3  1  0  0  0  0
  2 29  1  0  0  0  0
  2 30  1  0  0  0  0
  3  4  1  0  0  0  0
  3 31  1  0  0  0  0
  3 32  1  0  0  0  0
  4  5  1  0  0  0  0
  4 33  1  0  0  0  0
  4 34  1  0  0  0  0
  5  6  1  0  0  0  0
  5 35  1  0  0  0  0
  5 36  1  0  0  0  0
  6  7  1  0  0  0  0
  6  8  1  0  0  0  0
  6 37  1  1  0  0  0
  7 38  1  0  0  0  0
  8  9  2  0  0  0  0
  8 39  1  0  0  0  0
  9 10  1  0  0  0  0
  9 40  1  0  0  0  0
 10 11  1  0  0  0  0
 10 14  1  0  0  0  0
 10 41  1  6  0  0  0
 11 12  1  0  0  0  0
 11 13  2  0  0  0  0
 12 42  1  0  0  0  0
 12 43  1  0  0  0  0
 12 44  1  0  0  0  0
 14 15  1  0  0  0  0
 14 17  1  0  0  0  0
 14 45  1  6  0  0  0
 15 16  2  0  0  0  0
 15 46  1  0  0  0  0
 17 18  1  0  0  0  0
 17 47  1  0  0  0  0
 17 48  1  0  0  0  0
 18 19  2  0  0  0  0
 18 49  1  0  0  0  0
 19 20  1  0  0  0  0
 19 50  1  0  0  0  0
 20 21  1  0  0  0  0
 20 51  1  0  0  0  0
 20 52  1  0  0  0  0
 21 22  1  0  0  0  0
 21 53  1  0  0  0  0
 21 54  1  0  0  0  0
 22 23  1  0  0  0  0
 22 55  1  0  0  0  0
 22 56  1  0  0  0  0
 23 24  2  0  0  0  0
 23 25  1  0  0  0  0
 25 57  1  0  0  0  0
M  END
>  <IDENTIFIER>
CNP0112625.2

>  <Energy>
168.451

$$$$
