
 OpenBabel09072505543D

 89 94  0  0  0  0  0  0  0  0999 V2000
   -5.4278   -2.3861    2.3288 C   0  0  0  0  0  0  0  0  0  0  0  0
   -4.3380   -2.4069    1.2300 C   0  0  0  0  0  0  0  0  0  0  0  0
   -3.1887   -3.3266    1.6857 C   0  0  0  0  0  0  0  0  0  0  0  0
   -4.8763   -2.9012    0.0251 O   0  0  0  0  0  0  0  0  0  0  0  0
   -3.7581   -0.9838    0.9750 C   0  0  0  0  0  0  0  0  0  0  0  0
   -4.7627   -0.0041    0.3708 C   0  0  0  0  0  0  0  0  0  0  0  0
   -4.3503    1.4953    0.2598 C   0  0  2  0  0  0  0  0  0  0  0  0
   -5.5519    2.1929   -0.0009 O   0  0  0  0  0  0  0  0  0  0  0  0
   -5.6130    2.3436   -1.4154 C   0  0  0  0  0  0  0  0  0  0  0  0
   -6.0873    3.7673   -1.7938 C   0  0  0  0  0  0  0  0  0  0  0  0
   -6.6582    1.3839   -2.0328 C   0  0  0  0  0  0  0  0  0  0  0  0
   -4.3244    2.0935   -1.9627 O   0  0  0  0  0  0  0  0  0  0  0  0
   -3.4327    2.0305   -0.8659 C   0  0  1  0  0  0  0  0  0  0  0  0
   -3.0499    3.4958   -0.4832 C   0  0  0  0  0  0  0  0  0  0  0  0
   -2.1214    1.2302   -1.3226 C   0  0  1  0  0  0  0  0  0  0  0  0
   -1.6768    1.6891   -2.7328 C   0  0  0  0  0  0  0  0  0  0  0  0
   -0.3217    1.1052   -2.8824 C   0  0  0  0  0  0  0  0  0  0  0  0
    0.2028    0.7720   -1.7045 C   0  0  0  0  0  0  0  0  0  0  0  0
    1.5612    0.1792   -1.4705 C   0  0  0  0  0  0  0  0  0  0  0  0
    2.4719    0.0995   -2.4608 C   0  0  0  0  0  0  0  0  0  0  0  0
    3.8036   -0.4994   -2.2501 C   0  0  0  0  0  0  0  0  0  0  0  0
    4.5284   -0.6730   -3.2180 O   0  0  0  0  0  0  0  0  0  0  0  0
    4.3186   -0.8505   -0.8715 C   0  0  2  0  0  0  0  0  0  0  0  0
    4.6388   -2.3453   -0.7419 C   0  0  0  0  0  0  0  0  0  0  0  0
    5.4530   -2.6161    0.5553 C   0  0  1  0  0  0  0  0  0  0  0  0
    6.8098   -2.3141    0.3588 O   0  0  0  0  0  0  0  0  0  0  0  0
    7.1381   -1.3046    1.2942 C   0  0  0  0  0  0  0  0  0  0  0  0
    7.9878   -1.9080    2.4278 C   0  0  0  0  0  0  0  0  0  0  0  0
    7.9469   -0.2118    0.5847 C   0  0  0  0  0  0  0  0  0  0  0  0
    5.9594   -0.7356    1.8249 O   0  0  0  0  0  0  0  0  0  0  0  0
    5.0228   -1.7647    1.7466 C   0  0  1  0  0  0  0  0  0  0  0  0
    3.5945   -1.2334    1.5880 C   0  0  0  0  0  0  0  0  0  0  0  0
    3.3703   -0.3617    0.2975 C   0  0  1  0  0  0  0  0  0  0  0  0
    3.7164    1.1266    0.5860 C   0  0  0  0  0  0  0  0  0  0  0  0
    1.8593   -0.4975   -0.1283 C   0  0  1  0  0  0  0  0  0  0  0  0
    0.8391   -0.1500    1.0037 C   0  0  0  0  0  0  0  0  0  0  0  0
   -0.6027   -0.0081    0.4834 C   0  0  0  0  0  0  0  0  0  0  0  0
   -0.7187    1.1216   -0.5703 C   0  0  2  0  0  0  0  0  0  0  0  0
   -0.1894    2.4673   -0.0044 C   0  0  0  0  0  0  0  0  0  0  0  0
   -5.7896   -3.4164    2.5338 H   0  0  0  0  0  0  0  0  0  0  0  0
   -6.3133   -1.7942    2.0267 H   0  0  0  0  0  0  0  0  0  0  0  0
   -5.0207   -1.9679    3.2747 H   0  0  0  0  0  0  0  0  0  0  0  0
   -3.5634   -4.3583    1.8658 H   0  0  0  0  0  0  0  0  0  0  0  0
   -2.7319   -2.9510    2.6269 H   0  0  0  0  0  0  0  0  0  0  0  0
   -2.4005   -3.3794    0.9041 H   0  0  0  0  0  0  0  0  0  0  0  0
   -5.2671   -3.7966    0.2057 H   0  0  0  0  0  0  0  0  0  0  0  0
   -2.9549   -1.0912    0.2420 H   0  0  0  0  0  0  0  0  0  0  0  0
   -3.3649   -0.5771    1.9321 H   0  0  0  0  0  0  0  0  0  0  0  0
   -5.6356    0.0067    1.0528 H   0  0  0  0  0  0  0  0  0  0  0  0
   -5.0707   -0.4160   -0.5974 H   0  0  0  0  0  0  0  0  0  0  0  0
   -3.9474    1.7877    1.2544 H   0  0  0  0  0  0  0  0  0  0  0  0
   -7.0948    3.9598   -1.3642 H   0  0  0  0  0  0  0  0  0  0  0  0
   -6.1542    3.8645   -2.8988 H   0  0  0  0  0  0  0  0  0  0  0  0
   -5.4340    4.5852   -1.4578 H   0  0  0  0  0  0  0  0  0  0  0  0
   -7.6593    1.5780   -1.5918 H   0  0  0  0  0  0  0  0  0  0  0  0
   -6.4459    0.3147   -1.9020 H   0  0  0  0  0  0  0  0  0  0  0  0
   -6.7206    1.5436   -3.1304 H   0  0  0  0  0  0  0  0  0  0  0  0
   -2.5347    4.0305   -1.3047 H   0  0  0  0  0  0  0  0  0  0  0  0
   -2.4569    3.5371    0.4351 H   0  0  0  0  0  0  0  0  0  0  0  0
   -3.9102    4.1052   -0.1765 H   0  0  0  0  0  0  0  0  0  0  0  0
   -2.4365    0.1791   -1.5072 H   0  0  0  0  0  0  0  0  0  0  0  0
   -1.5669    2.7846   -2.8550 H   0  0  0  0  0  0  0  0  0  0  0  0
   -2.3855    1.3004   -3.4962 H   0  0  0  0  0  0  0  0  0  0  0  0
    0.1741    1.0158   -3.8375 H   0  0  0  0  0  0  0  0  0  0  0  0
    2.2599    0.4876   -3.4496 H   0  0  0  0  0  0  0  0  0  0  0  0
    5.2946   -0.3367   -0.7762 H   0  0  0  0  0  0  0  0  0  0  0  0
    5.2176   -2.7373   -1.6068 H   0  0  0  0  0  0  0  0  0  0  0  0
    3.6723   -2.8932   -0.7121 H   0  0  0  0  0  0  0  0  0  0  0  0
    5.3534   -3.6991    0.7853 H   0  0  0  0  0  0  0  0  0  0  0  0
    8.9228   -2.3470    2.0183 H   0  0  0  0  0  0  0  0  0  0  0  0
    7.4319   -2.7132    2.9513 H   0  0  0  0  0  0  0  0  0  0  0  0
    8.2534   -1.1253    3.1700 H   0  0  0  0  0  0  0  0  0  0  0  0
    8.8801   -0.6392    0.1593 H   0  0  0  0  0  0  0  0  0  0  0  0
    8.2176    0.5939    1.3002 H   0  0  0  0  0  0  0  0  0  0  0  0
    7.3696    0.2425   -0.2436 H   0  0  0  0  0  0  0  0  0  0  0  0
    5.1011   -2.3645    2.6816 H   0  0  0  0  0  0  0  0  0  0  0  0
    3.2505   -0.6928    2.4964 H   0  0  0  0  0  0  0  0  0  0  0  0
    2.9786   -2.1583    1.5188 H   0  0  0  0  0  0  0  0  0  0  0  0
    3.1276    1.5383    1.4280 H   0  0  0  0  0  0  0  0  0  0  0  0
    3.5335    1.7592   -0.3077 H   0  0  0  0  0  0  0  0  0  0  0  0
    4.7829    1.2454    0.8656 H   0  0  0  0  0  0  0  0  0  0  0  0
    1.6876   -1.5724   -0.3600 H   0  0  0  0  0  0  0  0  0  0  0  0
    1.1032    0.7851    1.5225 H   0  0  0  0  0  0  0  0  0  0  0  0
    0.8734   -0.9380    1.7866 H   0  0  0  0  0  0  0  0  0  0  0  0
   -1.2707    0.2145    1.3401 H   0  0  0  0  0  0  0  0  0  0  0  0
   -0.8675   -0.9837    0.0258 H   0  0  0  0  0  0  0  0  0  0  0  0
   -0.6608    2.6991    0.9687 H   0  0  0  0  0  0  0  0  0  0  0  0
   -0.3194    3.2937   -0.7332 H   0  0  0  0  0  0  0  0  0  0  0  0
    0.9006    2.4429    0.1955 H   0  0  0  0  0  0  0  0  0  0  0  0
  1  2  1  0  0  0  0
  1 40  1  0  0  0  0
  1 41  1  0  0  0  0
  1 42  1  0  0  0  0
  2  3  1  0  0  0  0
  2  4  1  0  0  0  0
  2  5  1  0  0  0  0
  3 43  1  0  0  0  0
  3 44  1  0  0  0  0
  3 45  1  0  0  0  0
  4 46  1  0  0  0  0
  5  6  1  0  0  0  0
  5 47  1  0  0  0  0
  5 48  1  0  0  0  0
  6 49  1  0  0  0  0
  6 50  1  0  0  0  0
  7  6  1  0  0  0  0
  7  8  1  0  0  0  0
  7 51  1  1  0  0  0
  8  9  1  0  0  0  0
  9 10  1  0  0  0  0
  9 11  1  0  0  0  0
  9 12  1  0  0  0  0
 10 52  1  0  0  0  0
 10 53  1  0  0  0  0
 10 54  1  0  0  0  0
 11 55  1  0  0  0  0
 11 56  1  0  0  0  0
 11 57  1  0  0  0  0
 12 13  1  0  0  0  0
 13 14  1  1  0  0  0
 13 15  1  0  0  0  0
 13  7  1  0  0  0  0
 14 58  1  0  0  0  0
 14 59  1  0  0  0  0
 14 60  1  0  0  0  0
 15 16  1  0  0  0  0
 15 61  1  6  0  0  0
 16 17  1  0  0  0  0
 16 62  1  0  0  0  0
 16 63  1  0  0  0  0
 17 18  2  0  0  0  0
 17 64  1  0  0  0  0
 18 19  1  0  0  0  0
 19 20  2  0  0  0  0
 20 21  1  0  0  0  0
 20 65  1  0  0  0  0
 21 22  2  0  0  0  0
 21 23  1  0  0  0  0
 23 24  1  0  0  0  0
 23 66  1  1  0  0  0
 24 67  1  0  0  0  0
 24 68  1  0  0  0  0
 25 24  1  0  0  0  0
 25 26  1  0  0  0  0
 25 69  1  1  0  0  0
 26 27  1  0  0  0  0
 27 28  1  0  0  0  0
 27 29  1  0  0  0  0
 27 30  1  0  0  0  0
 28 70  1  0  0  0  0
 28 71  1  0  0  0  0
 28 72  1  0  0  0  0
 29 73  1  0  0  0  0
 29 74  1  0  0  0  0
 29 75  1  0  0  0  0
 30 31  1  0  0  0  0
 31 32  1  0  0  0  0
 31 25  1  0  0  0  0
 31 76  1  1  0  0  0
 32 33  1  0  0  0  0
 32 77  1  0  0  0  0
 32 78  1  0  0  0  0
 33 34  1  1  0  0  0
 33 35  1  0  0  0  0
 33 23  1  0  0  0  0
 34 79  1  0  0  0  0
 34 80  1  0  0  0  0
 34 81  1  0  0  0  0
 35 36  1  0  0  0  0
 35 19  1  0  0  0  0
 35 82  1  6  0  0  0
 36 37  1  0  0  0  0
 36 83  1  0  0  0  0
 36 84  1  0  0  0  0
 37 38  1  0  0  0  0
 37 85  1  0  0  0  0
 37 86  1  0  0  0  0
 38 39  1  1  0  0  0
 38 15  1  0  0  0  0
 38 18  1  0  0  0  0
 39 87  1  0  0  0  0
 39 88  1  0  0  0  0
 39 89  1  0  0  0  0
M  END
>  <IDENTIFIER>
CNP0386349.5

>  <Energy>
1015.05

$$$$
