
 OpenBabel09082520112D

279283  0  0  0  0  0  0  0  0999 V2000
   -4.8543  -32.2208    0.0000 C   0  0  0  0  0  0  0  0  0  0  0  0
   -4.3413  -30.8113    0.0000 C   0  0  0  0  0  0  0  0  0  0  0  0
   -3.8301  -29.3975   -0.0034 C   0  0  0  0  0  0  0  0  0  0  0  0
   -3.3116  -27.9895    0.0033 C   0  0  0  0  0  0  0  0  0  0  0  0
   -2.8022  -26.5826    0.0000 C   0  0  0  0  0  0  0  0  0  0  0  0
   -2.2892  -25.1731    0.0000 C   0  0  0  0  0  0  0  0  0  0  0  0
   -1.7762  -23.7636    0.0000 C   0  0  0  0  0  0  0  0  0  0  0  0
   -1.2631  -22.3540    0.0000 C   0  0  0  0  0  0  0  0  0  0  0  0
   -0.7501  -20.9445    0.0000 C   0  0  0  0  0  0  0  0  0  0  0  0
   -0.2371  -19.5350    0.0000 C   0  0  0  0  0  0  0  0  0  0  0  0
    0.2892  -18.1182   -0.0080 C   0  0  0  0  0  0  0  0  0  0  0  0
    0.7819  -16.6840    0.0190 C   0  0  0  0  0  0  0  0  0  0  0  0
    1.2971  -15.2977   -0.0054 C   0  0  0  0  0  0  0  0  0  0  0  0
    1.8155  -13.8968    0.0002 C   0  0  0  0  0  0  0  0  0  0  0  0
    2.3281  -12.4869   -0.0003 C   0  0  0  0  0  0  0  0  0  0  0  0
    2.8431  -11.0783    0.0012 C   0  0  0  0  0  0  0  0  0  0  0  0
    3.3538   -9.6674   -0.0008 C   0  0  0  0  0  0  0  0  0  0  0  0
    3.8672   -8.2586    0.0000 C   0  0  0  0  0  0  0  0  0  0  0  0
    4.3802   -6.8491   -0.0000 C   0  0  0  0  0  0  0  0  0  0  0  0
    4.8932   -5.4396   -0.0000 C   0  0  0  0  0  0  0  0  0  0  0  0
    5.3763   -4.0305   -0.0005 C   0  0  2  0  0  0  0  0  0  0  0  0
    6.8116   -4.5515    0.0000 O   0  0  0  0  0  0  0  0  0  0  0  0
    5.5144   -2.6631   -0.0000 C   0  0  0  0  0  0  0  0  0  0  0  0
    7.4778   -3.2804    0.0000 O   0  0  0  0  0  0  0  0  0  0  0  0
    4.9551   -1.4714    0.0000 N   0  0  0  0  0  0  0  0  0  0  0  0
    5.4676   -0.0627    0.0032 C   0  0  1  0  0  0  0  0  0  0  0  0
    4.0581    0.4521   -0.0008 C   0  0  0  0  0  0  0  0  0  0  0  0
    2.6493    0.9635    0.0006 O   0  0  0  0  0  0  0  0  0  0  0  0
    1.5001    0.0001   -0.0000 C   0  0  2  0  0  0  0  0  0  0  0  0
    0.7511   -1.2930    0.0000 O   0  0  0  0  0  0  0  0  0  0  0  0
   -0.7855   -1.1186    0.0000 C   0  0  2  0  0  0  0  0  0  0  0  0
   -0.4741   -3.5364    0.0000 C   0  0  0  0  0  0  0  0  0  0  0  0
   -0.2291   -4.2539   -0.0000 O   0  0  0  0  0  0  0  0  0  0  0  0
   -1.3781   -5.2173    0.0000 C   0  0  2  0  0  0  0  0  0  0  0  0
   -2.1360   -3.9207    0.0000 C   0  0  0  0  0  0  0  0  0  0  0  0
   -3.6279   -3.9185    0.0000 O   0  0  0  0  0  0  0  0  0  0  0  0
   -1.5223   -2.5277   -0.0000 O   0  0  0  0  0  0  0  0  0  0  0  0
   -0.2222   -6.1755    0.0000 C   0  0  0  0  0  0  0  0  0  0  0  0
   -0.1796   -7.7325    0.0000 C   0  0  2  0  0  0  0  0  0  0  0  0
   -0.0880   -9.1700   -0.0000 O   0  0  0  0  0  0  0  0  0  0  0  0
   -1.3585   -9.7498   -0.0000 C   0  0  2  0  0  0  0  0  0  0  0  0
   -0.0182  -10.9151   -0.0000 C   0  0  0  0  0  0  0  0  0  0  0  0
    0.9260  -10.3055   -0.0000 O   0  0  0  0  0  0  0  0  0  0  0  0
   -0.3475  -12.8042    0.0000 O   0  0  0  0  0  0  0  0  0  0  0  0
   -2.2856   -9.3228    0.0000 C   0  0  0  0  0  0  0  0  0  0  0  0
   -3.5534   -9.5136    0.0000 C   0  0  2  0  0  0  0  0  0  0  0  0
   -5.4827   -8.4310    0.0000 O   0  0  0  0  0  0  0  0  0  0  0  0
   -3.8993   -9.8760    0.0000 C   0  0  1  0  0  0  0  0  0  0  0  0
   -5.9973  -10.8370    0.0000 N   0  0  0  0  0  0  0  0  0  0  0  0
   -6.9317  -10.3501   -0.0000 C   0  0  0  0  0  0  0  0  0  0  0  0
   -7.3417   -9.2039    0.0000 O   0  0  0  0  0  0  0  0  0  0  0  0
   -8.3200  -11.4594   -0.0000 C   0  0  0  0  0  0  0  0  0  0  0  0
   -9.2349  -12.4798    0.0000 O   0  0  0  0  0  0  0  0  0  0  0  0
   -8.9754  -13.9589    0.0000 C   0  0  2  0  0  0  0  0  0  0  0  0
   -7.5606  -13.7766    0.0000 C   0  0  0  0  0  0  0  0  0  0  0  0
   -6.4842  -14.4237    0.0000 O   0  0  0  0  0  0  0  0  0  0  0  0
   -6.9367  -11.7087   -0.0000 O   0  0  0  0  0  0  0  0  0  0  0  0
  -10.4744  -13.9573    0.0000 C   0  0  0  0  0  0  0  0  0  0  0  0
  -11.2244  -15.2564    0.0000 C   0  0  2  0  0  0  0  0  0  0  0  0
  -12.4086  -16.1926    0.0000 O   0  0  0  0  0  0  0  0  0  0  0  0
  -13.7832  -15.7079    0.0000 C   0  0  1  0  0  0  0  0  0  0  0  0
  -14.0441  -17.1841    0.0000 O   0  0  0  0  0  0  0  0  0  0  0  0
  -15.4530  -17.6976    0.0000 C   0  0  1  0  0  0  0  0  0  0  0  0
  -16.6021  -18.6618    0.0000 C   0  0  0  0  0  0  0  0  0  0  0  0
  -16.6021  -16.7331    0.0000 C   0  0  1  0  0  0  0  0  0  0  0  0
  -18.0273  -16.2421    0.0000 O   0  0  0  0  0  0  0  0  0  0  0  0
  -16.3413  -15.2561    0.0000 C   0  0  1  0  0  0  0  0  0  0  0  0
  -16.6287  -13.7762    0.0000 O   0  0  0  0  0  0  0  0  0  0  0  0
  -14.9318  -14.7434    0.0000 C   0  0  2  0  0  0  0  0  0  0  0  0
  -13.7832  -13.7789    0.0000 O   0  0  0  0  0  0  0  0  0  0  0  0
  -10.4743  -16.5553    0.0000 C   0  0  1  0  0  0  0  0  0  0  0  0
  -10.2757  -18.0720    0.0000 N   0  0  0  0  0  0  0  0  0  0  0  0
  -11.3630  -18.9966    0.0000 C   0  0  0  0  0  0  0  0  0  0  0  0
  -11.1025  -20.4738   -0.0000 C   0  0  0  0  0  0  0  0  0  0  0  0
  -12.7718  -18.4843    0.0000 O   0  0  0  0  0  0  0  0  0  0  0  0
   -8.9742  -16.5547    0.0000 C   0  0  2  0  0  0  0  0  0  0  0  0
   -7.5648  -17.0683    0.0000 C   0  0  3  0  0  0  0  0  0  0  0  0
   -8.0756  -18.4784    0.0000 O   0  0  0  0  0  0  0  0  0  0  0  0
   -6.1553  -17.5813    0.0000 C   0  0  3  0  0  0  0  0  0  0  0  0
   -5.6433  -16.1718    0.0000 O   0  0  0  0  0  0  0  0  0  0  0  0
   -4.7458  -18.0943    0.0000 C   0  0  0  0  0  0  0  0  0  0  0  0
   -3.3927  -18.8997    0.0000 O   0  0  0  0  0  0  0  0  0  0  0  0
   -8.2247  -15.2563    0.0000 O   0  0  0  0  0  0  0  0  0  0  0  0
   -2.5796  -12.0652    0.0000 C   0  0  2  0  0  0  0  0  0  0  0  0
   -2.6173  -12.9322    0.0000 C   0  0  3  0  0  0  0  0  0  0  0  0
   -4.9155  -13.2993   -0.0000 O   0  0  0  0  0  0  0  0  0  0  0  0
   -3.1072  -14.3539    0.0000 C   0  0  3  0  0  0  0  0  0  0  0  0
   -4.5799  -14.6278    0.0000 O   0  0  0  0  0  0  0  0  0  0  0  0
   -2.8467  -15.8311    0.0000 C   0  0  0  0  0  0  0  0  0  0  0  0
   -2.5862  -17.3083    0.0000 O   0  0  0  0  0  0  0  0  0  0  0  0
   -2.2274  -12.0047   -0.0000 C   0  0  0  0  0  0  0  0  0  0  0  0
   -1.5273   -8.1935    0.0000 C   0  0  1  0  0  0  0  0  0  0  0  0
   -2.7879  -10.6125   -0.0000 N   0  0  0  0  0  0  0  0  0  0  0  0
   -2.7877  -10.6135    0.0000 C   0  0  0  0  0  0  0  0  0  0  0  0
   -3.9367  -11.5776    0.0000 C   0  0  0  0  0  0  0  0  0  0  0  0
   -1.5400  -10.9561    0.0000 O   0  0  0  0  0  0  0  0  0  0  0  0
   -2.5886   -6.5554   -0.0000 C   0  0  2  0  0  0  0  0  0  0  0  0
   -4.4212   -6.5510   -0.0000 C   0  0  3  0  0  0  0  0  0  0  0  0
   -4.4173   -7.8608   -0.0000 O   0  0  0  0  0  0  0  0  0  0  0  0
   -5.8732   -6.1679   -0.0000 C   0  0  3  0  0  0  0  0  0  0  0  0
   -6.5051   -7.3213   -0.0000 O   0  0  0  0  0  0  0  0  0  0  0  0
   -7.2769   -5.6686    0.0000 C   0  0  0  0  0  0  0  0  0  0  0  0
   -8.6862   -5.1558    0.0000 O   0  0  0  0  0  0  0  0  0  0  0  0
   -2.7874   -5.7304    0.0000 O   0  0  0  0  0  0  0  0  0  0  0  0
   -1.5000   -0.0002    0.0000 C   0  0  1  0  0  0  0  0  0  0  0  0
   -2.6493   -0.9639    0.0000 O   0  0  0  0  0  0  0  0  0  0  0  0
   -0.7502    1.2989   -0.0000 C   0  0  2  0  0  0  0  0  0  0  0  0
   -2.1594    1.8122    0.0000 O   0  0  0  0  0  0  0  0  0  0  0  0
    0.7498    1.2992   -0.0000 C   0  0  1  0  0  0  0  0  0  0  0  0
    0.4896    2.7762   -0.0000 O   0  0  0  0  0  0  0  0  0  0  0  0
    6.8778   -0.5742   -0.0006 C   0  0  1  0  0  0  0  0  0  0  0  0
    7.3907    0.8346   -0.0000 O   0  0  0  0  0  0  0  0  0  0  0  0
    8.2868   -1.0881   -0.0010 C   0  0  2  0  0  0  0  0  0  0  0  0
    8.1426   -2.1532   -0.0000 O   0  0  0  0  0  0  0  0  0  0  0  0
    9.6968   -1.6010   -0.0000 C   0  0  0  0  0  0  0  0  0  0  0  0
   11.1063   -2.1140    0.0000 C   0  0  0  0  0  0  0  0  0  0  0  0
   12.5158   -2.6270   -0.0000 C   0  0  0  0  0  0  0  0  0  0  0  0
   13.9386   -3.1629    0.0128 C   0  0  0  0  0  0  0  0  0  0  0  0
   15.3919   -3.6384   -0.0330 C   0  0  0  0  0  0  0  0  0  0  0  0
   16.7513   -4.1625    0.0035 C   0  0  0  0  0  0  0  0  0  0  0  0
   18.1535   -4.6813    0.0001 C   0  0  0  0  0  0  0  0  0  0  0  0
   19.5641   -5.1920   -0.0012 C   0  0  0  0  0  0  0  0  0  0  0  0
   20.9739   -5.7040   -0.0027 C   0  0  0  0  0  0  0  0  0  0  0  0
   22.3826   -6.2182    0.0000 C   0  0  3  0  0  0  0  0  0  0  0  0
   23.7922   -6.7313    0.0000 C   0  0  0  0  0  0  0  0  0  0  0  0
   21.8696   -7.6278    0.0000 C   0  0  0  0  0  0  0  0  0  0  0  0
   21.3566   -9.0373    0.0000 C   0  0  0  0  0  0  0  0  0  0  0  0
   -5.9081  -32.4066    0.0000 H   0  0  0  0  0  0  0  0  0  0  0  0
   -4.1665  -33.0405    0.0000 H   0  0  0  0  0  0  0  0  0  0  0  0
   -5.2203  -33.2263    0.0000 H   0  0  0  0  0  0  0  0  0  0  0  0
   -3.3358  -31.1773   -0.0000 H   0  0  0  0  0  0  0  0  0  0  0  0
   -3.3715  -30.3591   -0.0000 H   0  0  0  0  0  0  0  0  0  0  0  0
   -4.8338  -29.0357    0.0000 H   0  0  0  0  0  0  0  0  0  0  0  0
   -4.2805  -28.4319    0.0000 H   0  0  0  0  0  0  0  0  0  0  0  0
   -2.3097  -28.3582   -0.0000 H   0  0  0  0  0  0  0  0  0  0  0  0
   -2.3454  -27.5400   -0.0000 H   0  0  0  0  0  0  0  0  0  0  0  0
   -3.8077  -26.2167    0.0000 H   0  0  0  0  0  0  0  0  0  0  0  0
   -3.2545  -25.6129    0.0000 H   0  0  0  0  0  0  0  0  0  0  0  0
   -1.2836  -25.5388   -0.0000 H   0  0  0  0  0  0  0  0  0  0  0  0
   -1.3195  -24.7208   -0.0000 H   0  0  0  0  0  0  0  0  0  0  0  0
   -2.7817  -23.3976    0.0000 H   0  0  0  0  0  0  0  0  0  0  0  0
   -2.2285  -22.7939    0.0000 H   0  0  0  0  0  0  0  0  0  0  0  0
   -0.2577  -22.7202   -0.0000 H   0  0  0  0  0  0  0  0  0  0  0  0
   -0.3701  -21.9892   -0.0000 H   0  0  0  0  0  0  0  0  0  0  0  0
    0.3494  -21.1719    0.0000 H   0  0  0  0  0  0  0  0  0  0  0  0
    0.2080  -20.4678    0.0000 H   0  0  0  0  0  0  0  0  0  0  0  0
   -1.2426  -19.1691   -0.0000 H   0  0  0  0  0  0  0  0  0  0  0  0
   -0.6893  -18.5653   -0.0000 H   0  0  0  0  0  0  0  0  0  0  0  0
    1.2814  -18.4916    0.0000 H   0  0  0  0  0  0  0  0  0  0  0  0
    1.1502  -17.7764    0.0000 H   0  0  0  0  0  0  0  0  0  0  0  0
    1.8901  -16.9787    0.0000 H   0  0  0  0  0  0  0  0  0  0  0  0
    1.7589  -16.2635   -0.0000 H   0  0  0  0  0  0  0  0  0  0  0  0
    0.2965  -14.9403    0.0000 H   0  0  0  0  0  0  0  0  0  0  0  0
    0.8498  -14.3366    0.0000 H   0  0  0  0  0  0  0  0  0  0  0  0
    2.8205  -14.2630    0.0000 H   0  0  0  0  0  0  0  0  0  0  0  0
    2.6893  -13.5478   -0.0000 H   0  0  0  0  0  0  0  0  0  0  0  0
    3.4292  -12.7501    0.0000 H   0  0  0  0  0  0  0  0  0  0  0  0
    3.2980  -12.0349    0.0000 H   0  0  0  0  0  0  0  0  0  0  0  0
    2.0155  -10.7929   -0.0000 H   0  0  0  0  0  0  0  0  0  0  0  0
    2.3993  -10.2481   -0.0000 H   0  0  0  0  0  0  0  0  0  0  0  0
    2.3417   -9.1616    0.0000 H   0  0  0  0  0  0  0  0  0  0  0  0
    2.9019   -8.6982    0.0000 H   0  0  0  0  0  0  0  0  0  0  0  0
    4.8727   -8.6246   -0.0000 H   0  0  0  0  0  0  0  0  0  0  0  0
    4.8281   -7.8204   -0.0000 H   0  0  0  0  0  0  0  0  0  0  0  0
    5.4591   -6.8354    0.0000 H   0  0  0  0  0  0  0  0  0  0  0  0
    5.2561   -6.2368    0.0000 H   0  0  0  0  0  0  0  0  0  0  0  0
    3.8877   -5.0736   -0.0000 H   0  0  0  0  0  0  0  0  0  0  0  0
    4.4405   -4.4697   -0.0000 H   0  0  0  0  0  0  0  0  0  0  0  0
    5.8537   -4.9958    0.0000 H   0  0  0  0  0  0  0  0  0  0  0  0
    6.9902   -5.5010   -0.0000 H   0  0  0  0  0  0  0  0  0  0  0  0
    3.9831   -1.6479   -0.0000 H   0  0  0  0  0  0  0  0  0  0  0  0
    4.5008   -0.5086    0.0000 H   0  0  0  0  0  0  0  0  0  0  0  0
    4.4246    1.4567   -0.0000 H   0  0  0  0  0  0  0  0  0  0  0  0
    3.6065    1.4210   -0.0000 H   0  0  0  0  0  0  0  0  0  0  0  0
    2.3196   -0.6878    0.0000 H   0  0  0  0  0  0  0  0  0  0  0  0
    0.3046   -1.6528    0.0000 H   0  0  0  0  0  0  0  0  0  0  0  0
    0.6242   -2.7142   -0.0000 H   0  0  0  0  0  0  0  0  0  0  0  0
    0.3878   -3.3910   -0.0000 H   0  0  0  0  0  0  0  0  0  0  0  0
   -0.5486   -2.3217   -0.0000 H   0  0  0  0  0  0  0  0  0  0  0  0
    0.7764   -5.8159   -0.0000 H   0  0  0  0  0  0  0  0  0  0  0  0
    0.5926   -6.7205   -0.0000 H   0  0  0  0  0  0  0  0  0  0  0  0
    0.5787   -7.8081    0.0000 H   0  0  0  0  0  0  0  0  0  0  0  0
   -1.2580  -13.1062   -0.0000 H   0  0  0  0  0  0  0  0  0  0  0  0
   -1.2624   -7.0515    0.0000 H   0  0  0  0  0  0  0  0  0  0  0  0
   -2.6573   -7.8971    0.0000 H   0  0  0  0  0  0  0  0  0  0  0  0
   -3.4667   -7.3167    0.0000 H   0  0  0  0  0  0  0  0  0  0  0  0
   -5.4098   -7.4576    0.0000 H   0  0  0  0  0  0  0  0  0  0  0  0
   -5.5009   -9.6165    0.0000 H   0  0  0  0  0  0  0  0  0  0  0  0
   -5.7782  -11.8591   -0.0000 H   0  0  0  0  0  0  0  0  0  0  0  0
   -7.6080  -12.5706    0.0000 H   0  0  0  0  0  0  0  0  0  0  0  0
   -8.2042  -12.5424    0.0000 H   0  0  0  0  0  0  0  0  0  0  0  0
   -6.7723  -11.7773   -0.0000 H   0  0  0  0  0  0  0  0  0  0  0  0
  -11.0095  -13.0305    0.0000 H   0  0  0  0  0  0  0  0  0  0  0  0
  -11.4513  -13.8385    0.0000 H   0  0  0  0  0  0  0  0  0  0  0  0
  -12.0727  -14.7318    0.0000 H   0  0  0  0  0  0  0  0  0  0  0  0
  -13.2481  -16.6339    0.0000 H   0  0  0  0  0  0  0  0  0  0  0  0
  -14.9180  -18.6243    0.0000 H   0  0  0  0  0  0  0  0  0  0  0  0
  -17.6886  -18.4088    0.0000 H   0  0  0  0  0  0  0  0  0  0  0  0
  -16.4163  -19.7156    0.0000 H   0  0  0  0  0  0  0  0  0  0  0  0
  -17.4218  -19.3496    0.0000 H   0  0  0  0  0  0  0  0  0  0  0  0
  -17.0821  -17.4843    0.0000 H   0  0  0  0  0  0  0  0  0  0  0  0
  -18.3353  -15.2678    0.0000 H   0  0  0  0  0  0  0  0  0  0  0  0
  -17.2407  -15.2331    0.0000 H   0  0  0  0  0  0  0  0  0  0  0  0
  -15.9389  -13.0224    0.0000 H   0  0  0  0  0  0  0  0  0  0  0  0
  -15.3616  -13.9530    0.0000 H   0  0  0  0  0  0  0  0  0  0  0  0
  -12.9388  -14.0653    0.0000 H   0  0  0  0  0  0  0  0  0  0  0  0
  -11.4447  -16.9487    0.0000 H   0  0  0  0  0  0  0  0  0  0  0  0
   -9.6615  -18.3501    0.0000 H   0  0  0  0  0  0  0  0  0  0  0  0
  -11.9222  -21.1616    0.0000 H   0  0  0  0  0  0  0  0  0  0  0  0
  -10.0970  -20.8397    0.0000 H   0  0  0  0  0  0  0  0  0  0  0  0
  -10.9167  -21.5275    0.0000 H   0  0  0  0  0  0  0  0  0  0  0  0
   -9.3002  -17.3195    0.0000 H   0  0  0  0  0  0  0  0  0  0  0  0
   -8.2576  -17.5202    0.0000 H   0  0  0  0  0  0  0  0  0  0  0  0
   -8.7424  -18.9137    0.0000 H   0  0  0  0  0  0  0  0  0  0  0  0
   -6.6075  -16.6116    0.0000 H   0  0  0  0  0  0  0  0  0  0  0  0
   -4.6931  -15.9922    0.0000 H   0  0  0  0  0  0  0  0  0  0  0  0
   -4.3747  -17.1068    0.0000 H   0  0  0  0  0  0  0  0  0  0  0  0
   -4.0552  -17.5161   -0.0000 H   0  0  0  0  0  0  0  0  0  0  0  0
   -3.1678  -19.5629   -0.0000 H   0  0  0  0  0  0  0  0  0  0  0  0
   -4.9956  -11.3248    0.0000 H   0  0  0  0  0  0  0  0  0  0  0  0
   -3.2457  -12.4913   -0.0000 H   0  0  0  0  0  0  0  0  0  0  0  0
   -5.6397  -12.8808    0.0000 H   0  0  0  0  0  0  0  0  0  0  0  0
   -4.0533  -14.7380    0.0000 H   0  0  0  0  0  0  0  0  0  0  0  0
   -5.3572  -14.2704    0.0000 H   0  0  0  0  0  0  0  0  0  0  0  0
   -1.7767  -15.8310   -0.0000 H   0  0  0  0  0  0  0  0  0  0  0  0
   -2.0269  -16.5187   -0.0000 H   0  0  0  0  0  0  0  0  0  0  0  0
   -2.9951  -17.7720    0.0000 H   0  0  0  0  0  0  0  0  0  0  0  0
   -1.6785  -12.1132   -0.0000 H   0  0  0  0  0  0  0  0  0  0  0  0
   -0.8845  -11.8361   -0.0000 H   0  0  0  0  0  0  0  0  0  0  0  0
   -1.1489   -8.6116    0.0000 H   0  0  0  0  0  0  0  0  0  0  0  0
   -4.6028   -9.0037   -0.0000 H   0  0  0  0  0  0  0  0  0  0  0  0
   -4.9038  -10.3931   -0.0000 H   0  0  0  0  0  0  0  0  0  0  0  0
   -3.8181  -13.2766    0.0000 H   0  0  0  0  0  0  0  0  0  0  0  0
   -4.7564  -12.2654    0.0000 H   0  0  0  0  0  0  0  0  0  0  0  0
   -3.4952   -8.3969   -0.0000 H   0  0  0  0  0  0  0  0  0  0  0  0
   -4.4154   -7.6686    0.0000 H   0  0  0  0  0  0  0  0  0  0  0  0
   -6.5265   -8.4796   -0.0000 H   0  0  0  0  0  0  0  0  0  0  0  0
   -5.9960   -6.6340   -0.0000 H   0  0  0  0  0  0  0  0  0  0  0  0
   -7.3469   -7.7599    0.0000 H   0  0  0  0  0  0  0  0  0  0  0  0
   -7.6525   -6.6529    0.0000 H   0  0  0  0  0  0  0  0  0  0  0  0
   -8.2466   -6.1211    0.0000 H   0  0  0  0  0  0  0  0  0  0  0  0
   -8.8547   -4.2005    0.0000 H   0  0  0  0  0  0  0  0  0  0  0  0
   -1.6861   -1.0517    0.0000 H   0  0  0  0  0  0  0  0  0  0  0  0
   -3.5606   -0.6324    0.0000 H   0  0  0  0  0  0  0  0  0  0  0  0
   -1.7555    0.9331    0.0000 H   0  0  0  0  0  0  0  0  0  0  0  0
   -2.3279    2.7674    0.0000 H   0  0  0  0  0  0  0  0  0  0  0  0
   -0.0697    1.9868   -0.0000 H   0  0  0  0  0  0  0  0  0  0  0  0
    1.2326    3.3997   -0.0000 H   0  0  0  0  0  0  0  0  0  0  0  0
    6.4255    0.3949    0.0000 H   0  0  0  0  0  0  0  0  0  0  0  0
    8.3460    1.0031    0.0000 H   0  0  0  0  0  0  0  0  0  0  0  0
    7.3334   -1.5162    0.0000 H   0  0  0  0  0  0  0  0  0  0  0  0
    6.7107   -2.4083    0.0000 H   0  0  0  0  0  0  0  0  0  0  0  0
    9.3451   -2.6113    0.0000 H   0  0  0  0  0  0  0  0  0  0  0  0
   10.0680   -2.5011    0.0000 H   0  0  0  0  0  0  0  0  0  0  0  0
   10.8932   -3.2125   -0.0000 H   0  0  0  0  0  0  0  0  0  0  0  0
   11.5927   -3.0673   -0.0000 H   0  0  0  0  0  0  0  0  0  0  0  0
   12.8818   -1.6215    0.0000 H   0  0  0  0  0  0  0  0  0  0  0  0
   13.4856   -2.1747    0.0000 H   0  0  0  0  0  0  0  0  0  0  0  0
   13.5592   -4.1455   -0.0000 H   0  0  0  0  0  0  0  0  0  0  0  0
   14.2744   -4.0143   -0.0000 H   0  0  0  0  0  0  0  0  0  0  0  0
   15.0721   -4.7542   -0.0000 H   0  0  0  0  0  0  0  0  0  0  0  0
   15.7873   -4.6230    0.0000 H   0  0  0  0  0  0  0  0  0  0  0  0
   17.1105   -3.1606   -0.0000 H   0  0  0  0  0  0  0  0  0  0  0  0
   17.7143   -3.7139   -0.0000 H   0  0  0  0  0  0  0  0  0  0  0  0
   17.7878   -5.6846    0.0000 H   0  0  0  0  0  0  0  0  0  0  0  0
   18.5030   -5.5534    0.0000 H   0  0  0  0  0  0  0  0  0  0  0  0
   19.3007   -6.2933   -0.0000 H   0  0  0  0  0  0  0  0  0  0  0  0
   20.0159   -6.1621   -0.0000 H   0  0  0  0  0  0  0  0  0  0  0  0
   21.3390   -4.6997    0.0000 H   0  0  0  0  0  0  0  0  0  0  0  0
   21.9428   -5.2529    0.0000 H   0  0  0  0  0  0  0  0  0  0  0  0
   22.0055   -7.2125    0.0000 H   0  0  0  0  0  0  0  0  0  0  0  0
   23.9971   -7.7814   -0.0000 H   0  0  0  0  0  0  0  0  0  0  0  0
   24.6119   -6.0435   -0.0000 H   0  0  0  0  0  0  0  0  0  0  0  0
   24.7977   -7.0973    0.0000 H   0  0  0  0  0  0  0  0  0  0  0  0
   22.8654   -8.0094    0.0000 H   0  0  0  0  0  0  0  0  0  0  0  0
   22.3229   -8.5951    0.0000 H   0  0  0  0  0  0  0  0  0  0  0  0
   20.3028   -9.2231   -0.0000 H   0  0  0  0  0  0  0  0  0  0  0  0
   22.0436   -9.8606   -0.0000 H   0  0  0  0  0  0  0  0  0  0  0  0
   20.9906  -10.0428    0.0000 H   0  0  0  0  0  0  0  0  0  0  0  0
  1  2  1  0  0  0  0
  1128  1  0  0  0  0
  1129  1  0  0  0  0
  1130  1  0  0  0  0
  2  3  1  0  0  0  0
  2131  1  0  0  0  0
  2132  1  0  0  0  0
  3  4  1  0  0  0  0
  3133  1  0  0  0  0
  3134  1  0  0  0  0
  4  5  1  0  0  0  0
  4135  1  0  0  0  0
  4136  1  0  0  0  0
  5  6  1  0  0  0  0
  5137  1  0  0  0  0
  5138  1  0  0  0  0
  6  7  1  0  0  0  0
  6139  1  0  0  0  0
  6140  1  0  0  0  0
  7  8  1  0  0  0  0
  7141  1  0  0  0  0
  7142  1  0  0  0  0
  8  9  1  0  0  0  0
  8143  1  0  0  0  0
  8144  1  0  0  0  0
  9 10  1  0  0  0  0
  9145  1  0  0  0  0
  9146  1  0  0  0  0
 10 11  1  0  0  0  0
 10147  1  0  0  0  0
 10148  1  0  0  0  0
 11 12  1  0  0  0  0
 11149  1  0  0  0  0
 11150  1  0  0  0  0
 12 13  1  0  0  0  0
 12151  1  0  0  0  0
 12152  1  0  0  0  0
 13 14  1  0  0  0  0
 13153  1  0  0  0  0
 13154  1  0  0  0  0
 14 15  1  0  0  0  0
 14155  1  0  0  0  0
 14156  1  0  0  0  0
 15 16  1  0  0  0  0
 15157  1  0  0  0  0
 15158  1  0  0  0  0
 16 17  1  0  0  0  0
 16159  1  0  0  0  0
 16160  1  0  0  0  0
 17 18  1  0  0  0  0
 17161  1  0  0  0  0
 17162  1  0  0  0  0
 18 19  1  0  0  0  0
 18163  1  0  0  0  0
 18164  1  0  0  0  0
 19 20  1  0  0  0  0
 19165  1  0  0  0  0
 19166  1  0  0  0  0
 20 21  1  0  0  0  0
 20167  1  0  0  0  0
 20168  1  0  0  0  0
 21 22  1  0  0  0  0
 21 23  1  0  0  0  0
 21169  1  6  0  0  0
 22170  1  0  0  0  0
 23 24  2  0  0  0  0
 23 25  1  0  0  0  0
 25 26  1  0  0  0  0
 25171  1  0  0  0  0
 26 27  1  0  0  0  0
 26111  1  0  0  0  0
 26172  1  6  0  0  0
 27 28  1  0  0  0  0
 27173  1  0  0  0  0
 27174  1  0  0  0  0
 29 28  1  0  0  0  0
 29 30  1  0  0  0  0
 29175  1  1  0  0  0
 30 31  1  0  0  0  0
 31 32  1  0  0  0  0
 31105  1  0  0  0  0
 31176  1  1  0  0  0
 32 33  1  0  0  0  0
 32177  1  0  0  0  0
 32178  1  0  0  0  0
 34 33  1  6  0  0  0
 34 35  1  0  0  0  0
 34 38  1  0  0  0  0
 35 36  2  0  0  0  0
 35 37  1  0  0  0  0
 37179  1  0  0  0  0
 38 39  1  0  0  0  0
 38180  1  0  0  0  0
 38181  1  0  0  0  0
 39 40  1  0  0  0  0
 39 92  1  0  0  0  0
 39182  1  1  0  0  0
 41 40  1  1  0  0  0
 41 42  1  0  0  0  0
 41 45  1  0  0  0  0
 42 43  2  0  0  0  0
 42 44  1  0  0  0  0
 44183  1  0  0  0  0
 45 46  1  0  0  0  0
 45184  1  0  0  0  0
 45185  1  0  0  0  0
 46 47  1  0  0  0  0
 46 48  1  0  0  0  0
 46186  1  6  0  0  0
 47187  1  0  0  0  0
 48 49  1  0  0  0  0
 48 84  1  0  0  0  0
 48188  1  1  0  0  0
 49 50  1  0  0  0  0
 49189  1  0  0  0  0
 50 51  2  0  0  0  0
 50 52  1  0  0  0  0
 52 53  1  0  0  0  0
 52190  1  0  0  0  0
 52191  1  0  0  0  0
 54 53  1  1  0  0  0
 54 55  1  0  0  0  0
 54 58  1  0  0  0  0
 55 56  2  0  0  0  0
 55 57  1  0  0  0  0
 57192  1  0  0  0  0
 58 59  1  0  0  0  0
 58193  1  0  0  0  0
 58194  1  0  0  0  0
 59 60  1  0  0  0  0
 59 71  1  0  0  0  0
 59195  1  6  0  0  0
 61 60  1  0  0  0  0
 61 62  1  0  0  0  0
 61196  1  6  0  0  0
 62 63  1  0  0  0  0
 63 64  1  0  0  0  0
 63 65  1  0  0  0  0
 63197  1  6  0  0  0
 64198  1  0  0  0  0
 64199  1  0  0  0  0
 64200  1  0  0  0  0
 65 66  1  0  0  0  0
 65 67  1  0  0  0  0
 65201  1  6  0  0  0
 66202  1  0  0  0  0
 67 68  1  0  0  0  0
 67 69  1  0  0  0  0
 67203  1  6  0  0  0
 68204  1  0  0  0  0
 69 70  1  0  0  0  0
 69 61  1  0  0  0  0
 69205  1  1  0  0  0
 70206  1  0  0  0  0
 71 72  1  0  0  0  0
 71 76  1  0  0  0  0
 71207  1  1  0  0  0
 72 73  1  0  0  0  0
 72208  1  0  0  0  0
 73 74  1  0  0  0  0
 73 75  2  0  0  0  0
 74209  1  0  0  0  0
 74210  1  0  0  0  0
 74211  1  0  0  0  0
 76 77  1  0  0  0  0
 76 83  1  0  0  0  0
 76212  1  6  0  0  0
 77 78  1  0  0  0  0
 77 79  1  0  0  0  0
 77213  1  0  0  0  0
 78214  1  0  0  0  0
 79 80  1  0  0  0  0
 79 81  1  0  0  0  0
 79215  1  0  0  0  0
 80216  1  0  0  0  0
 81 82  1  0  0  0  0
 81217  1  0  0  0  0
 81218  1  0  0  0  0
 82219  1  0  0  0  0
 83 54  1  0  0  0  0
 84 85  1  0  0  0  0
 84 91  1  0  0  0  0
 84220  1  6  0  0  0
 85 86  1  0  0  0  0
 85 87  1  0  0  0  0
 85221  1  0  0  0  0
 86222  1  0  0  0  0
 87 88  1  0  0  0  0
 87 89  1  0  0  0  0
 87223  1  0  0  0  0
 88224  1  0  0  0  0
 89 90  1  0  0  0  0
 89225  1  0  0  0  0
 89226  1  0  0  0  0
 90227  1  0  0  0  0
 91 41  1  0  0  0  0
 91228  1  0  0  0  0
 91229  1  0  0  0  0
 92 93  1  0  0  0  0
 92 97  1  0  0  0  0
 92230  1  6  0  0  0
 93 94  1  0  0  0  0
 93231  1  0  0  0  0
 94 95  1  0  0  0  0
 94 96  2  0  0  0  0
 95232  1  0  0  0  0
 95233  1  0  0  0  0
 95234  1  0  0  0  0
 97 98  1  0  0  0  0
 97104  1  0  0  0  0
 97235  1  1  0  0  0
 98 99  1  0  0  0  0
 98100  1  0  0  0  0
 98236  1  0  0  0  0
 99237  1  0  0  0  0
100101  1  0  0  0  0
100102  1  0  0  0  0
100238  1  0  0  0  0
101239  1  0  0  0  0
102103  1  0  0  0  0
102240  1  0  0  0  0
102241  1  0  0  0  0
103242  1  0  0  0  0
104 34  1  0  0  0  0
105106  1  0  0  0  0
105107  1  0  0  0  0
105243  1  6  0  0  0
106244  1  0  0  0  0
107108  1  0  0  0  0
107109  1  0  0  0  0
107245  1  1  0  0  0
108246  1  0  0  0  0
109110  1  0  0  0  0
109 29  1  0  0  0  0
109247  1  6  0  0  0
110248  1  0  0  0  0
111112  1  0  0  0  0
111113  1  0  0  0  0
111249  1  6  0  0  0
112250  1  0  0  0  0
113114  1  0  0  0  0
113115  1  0  0  0  0
113251  1  6  0  0  0
114252  1  0  0  0  0
115116  1  0  0  0  0
115253  1  0  0  0  0
115254  1  0  0  0  0
116117  1  0  0  0  0
116255  1  0  0  0  0
116256  1  0  0  0  0
117118  1  0  0  0  0
117257  1  0  0  0  0
117258  1  0  0  0  0
118119  1  0  0  0  0
118259  1  0  0  0  0
118260  1  0  0  0  0
119120  1  0  0  0  0
119261  1  0  0  0  0
119262  1  0  0  0  0
120121  1  0  0  0  0
120263  1  0  0  0  0
120264  1  0  0  0  0
121122  1  0  0  0  0
121265  1  0  0  0  0
121266  1  0  0  0  0
122123  1  0  0  0  0
122267  1  0  0  0  0
122268  1  0  0  0  0
123124  1  0  0  0  0
123269  1  0  0  0  0
123270  1  0  0  0  0
124125  1  0  0  0  0
124126  1  0  0  0  0
124271  1  0  0  0  0
125272  1  0  0  0  0
125273  1  0  0  0  0
125274  1  0  0  0  0
126127  1  0  0  0  0
126275  1  0  0  0  0
126276  1  0  0  0  0
127277  1  0  0  0  0
127278  1  0  0  0  0
127279  1  0  0  0  0
M  END
>  <IDENTIFIER>
CNP0432537.1

>  <Energy>
7.09273e+06

$$$$
