
 OpenBabel09062509182D

209212  0  0  0  0  0  0  0  0999 V2000
  -32.9417  -40.7410    0.7538 C   0  0  0  0  0  0  0  0  0  0  0  0
  -32.0005  -41.6814    0.6380 C   0  0  0  0  0  0  0  0  0  0  0  0
  -30.5442  -41.3181    0.7143 C   0  0  0  0  0  0  0  0  0  0  0  0
  -29.6423  -42.5436    0.5379 C   0  0  0  0  0  0  0  0  0  0  0  0
  -28.1755  -42.1122    0.6158 C   0  0  3  0  0  0  0  0  0  0  0  0
  -27.2982  -43.1105    0.1328 O   0  0  0  0  0  0  0  0  0  0  0  0
  -27.4566  -41.9618   -0.6707 C   0  0  3  0  0  0  0  0  0  0  0  0
  -26.2283  -41.0383   -0.6492 C   0  0  0  0  0  0  0  0  0  0  0  0
  -26.5188  -39.5916   -1.0362 C   0  0  0  0  0  0  0  0  0  0  0  0
  -27.7568  -39.1782   -1.3905 C   0  0  0  0  0  0  0  0  0  0  0  0
  -25.3310  -38.6386   -0.9825 C   0  0  0  0  0  0  0  0  0  0  0  0
  -25.6475  -37.1557   -1.2503 C   0  0  0  0  0  0  0  0  0  0  0  0
  -24.3947  -36.3031   -1.0517 C   0  0  3  0  0  0  0  0  0  0  0  0
  -23.7831  -35.8834   -2.2536 O   0  0  0  0  0  0  0  0  0  0  0  0
  -24.4717  -34.8917   -1.5141 C   0  0  3  0  0  0  0  0  0  0  0  0
  -23.5933  -34.0028   -0.6350 C   0  0  0  0  0  0  0  0  0  0  0  0
  -23.4467  -32.5334   -1.0846 C   0  0  0  0  0  0  0  0  0  0  0  0
  -22.6030  -31.8600    0.0000 C   0  0  0  0  0  0  0  0  0  0  0  0
  -22.3425  -30.3828   -0.0000 C   0  0  0  0  0  2  0  0  0  0  0  0
  -22.0820  -28.9056   -0.0000 C   0  0  0  0  0  0  0  0  0  0  0  0
  -20.7751  -28.3638   -0.1175 C   0  0  0  0  0  0  0  0  0  0  0  0
  -19.9929  -26.9208   -0.1064 C   0  0  0  0  0  0  0  0  0  0  0  0
  -20.5715  -25.4325    0.0969 C   0  0  0  0  0  0  0  0  0  0  0  0
  -19.7893  -23.9895    0.1082 C   0  0  0  0  0  0  0  0  0  0  0  0
  -18.4816  -23.4479   -0.0000 C   0  0  0  0  0  0  0  0  0  0  0  0
  -18.2211  -21.9707    0.0000 C   0  0  0  0  0  2  0  0  0  0  0  0
  -17.9606  -20.4935    0.0000 C   0  0  3  0  0  0  0  0  0  0  0  0
  -16.4834  -20.7540   -0.0000 C   0  0  0  0  0  0  0  0  0  0  0  0
  -17.7001  -19.0163    0.0000 C   0  0  0  0  0  0  0  0  0  0  0  0
  -16.4535  -18.2431    0.1998 C   0  0  0  0  0  0  0  0  0  0  0  0
  -15.8100  -17.0079   -0.6661 C   0  0  0  0  0  0  0  0  0  0  0  0
  -15.7697  -15.5488    0.0000 C   0  0  3  0  0  0  0  0  0  0  0  0
  -17.2469  -15.2884    0.0000 C   0  0  0  0  0  0  0  0  0  0  0  0
  -15.5092  -14.0716   -0.0000 C   0  0  0  0  0  2  0  0  0  0  0  0
  -15.2487  -12.5944   -0.0000 C   0  0  0  0  0  0  0  0  0  0  0  0
  -14.9882  -11.1172   -0.0000 C   0  0  0  0  0  0  0  0  0  0  0  0
  -14.7278   -9.6400    0.0000 C   0  0  0  0  0  0  0  0  0  0  0  0
  -14.4673   -8.1628   -0.0000 C   0  0  0  0  0  0  0  0  0  0  0  0
  -14.2068   -6.6856    0.0000 C   0  0  0  0  0  0  0  0  0  0  0  0
  -13.9463   -5.2084   -0.0000 C   0  0  0  0  0  0  0  0  0  0  0  0
  -14.8570   -4.4714    0.3549 O   0  0  0  0  0  0  0  0  0  0  0  0
  -12.6971   -4.5336   -0.6286 C   0  0  0  0  0  0  0  0  0  0  0  0
  -11.3906   -4.7259    0.1749 C   0  0  0  0  0  0  0  0  0  0  0  0
  -10.1679   -3.9441   -0.4222 C   0  0  0  0  0  0  0  0  0  0  0  0
   -9.0160   -3.7859    0.6310 C   0  0  3  0  0  0  0  0  0  0  0  0
   -8.2795   -5.1584    0.9546 C   0  0  0  0  0  0  0  0  0  0  0  0
   -7.2821   -5.9753    0.0000 C   0  0  3  0  0  0  0  0  0  0  0  0
   -7.2084   -7.2906    0.4951 O   0  0  0  0  0  0  0  0  0  0  0  0
   -5.8726   -5.4623    0.0000 C   0  0  0  0  0  0  0  0  0  0  0  0
   -4.4631   -4.9493    0.0000 C   0  0  0  0  0  0  0  0  0  0  0  0
   -3.6179   -5.7329   -0.4017 O   0  0  0  0  0  0  0  0  0  0  0  0
   -3.9836   -3.5768    0.4711 C   0  0  0  0  0  0  0  0  0  0  0  0
   -3.2952   -2.7057   -0.6374 C   0  0  3  0  0  0  0  0  0  0  0  0
   -4.2151   -2.5025   -1.6800 O   0  0  0  0  0  0  0  0  0  0  0  0
   -1.9860   -3.2654   -1.2788 C   0  0  0  0  0  0  0  0  0  0  0  0
   -0.7362   -3.4863   -0.3805 C   0  0  0  0  0  0  0  0  0  0  0  0
    0.3631   -2.3689   -0.2716 C   0  0  1  0  0  0  0  0  0  0  0  0
    1.4205   -2.9046    0.4854 O   0  0  0  0  0  0  0  0  0  0  0  0
   -0.0829   -1.0550    0.3973 C   0  0  3  0  0  0  0  0  0  0  0  0
    1.0562   -0.0728    0.7552 C   0  0  0  0  0  0  0  0  0  0  0  0
    0.4196    1.0647    1.5888 C   0  0  3  0  0  0  0  0  0  0  0  0
    1.3596    2.0278    1.9882 O   0  0  0  0  0  0  0  0  0  0  0  0
   -0.8223    1.7121    0.9172 C   0  0  2  0  0  0  0  0  0  0  0  0
   -0.4895    2.7762    0.0000 O   0  0  0  0  0  0  0  0  0  0  0  0
   -1.6386    3.7404    0.0000 S   0  0  0  0  0  0  0  0  0  0  0  0
   -0.7920    4.7549    0.7846 O   0  0  0  0  0  0  0  0  0  0  0  0
   -1.1681    4.3031   -1.3497 O   0  0  0  0  0  0  0  0  0  0  0  0
   -2.7877    4.7046    0.0000 O   0  5  0  0  0  0  0  0  0  0  0  0
   -1.6887    0.5858    0.2376 C   0  0  1  0  0  0  0  0  0  0  0  0
   -2.6511    1.1969   -0.7651 C   0  0  0  0  0  0  0  0  0  0  0  0
   -3.7981    1.9284    0.0000 C   0  0  3  0  0  0  0  0  0  0  0  0
   -4.7623    0.7793    0.0000 C   0  0  0  0  0  0  0  0  0  0  0  0
   -4.3517    2.9310   -0.8213 O   0  0  0  0  0  0  0  0  0  0  0  0
   -0.9234   -0.3525   -0.4847 O   0  0  0  0  0  0  0  0  0  0  0  0
   -8.1407   -2.6549    0.3983 O   0  0  0  0  0  0  0  0  0  0  0  0
   -8.7349   -1.3105    0.4832 C   0  0  3  0  0  0  0  0  0  0  0  0
   -7.7175   -0.3647    0.8783 O   0  0  0  0  0  0  0  0  0  0  0  0
   -8.0970    1.0378    1.0312 C   0  0  2  0  0  0  0  0  0  0  0  0
   -8.0027    1.9051   -0.2871 C   0  0  0  0  0  0  0  0  0  0  0  0
   -7.4690    3.2551   -0.1237 O   0  0  0  0  0  0  0  0  0  0  0  0
   -8.3968    4.2328    0.3547 C   0  0  2  0  0  0  0  0  0  0  0  0
   -9.5833    4.0520   -0.3409 O   0  0  0  0  0  0  0  0  0  0  0  0
  -10.5929    4.9610    0.0000 C   0  0  2  0  0  0  0  0  0  0  0  0
  -11.5571    3.8119   -0.0000 C   0  0  0  0  0  2  0  0  0  0  0  0
  -12.5213    2.6628   -0.0000 O   0  0  0  0  0  0  0  0  0  0  0  0
  -10.3583    6.1711   -0.9178 C   0  0  3  0  0  0  0  0  0  0  0  0
  -10.9874    6.0015   -2.1578 O   0  0  0  0  0  0  0  0  0  0  0  0
   -8.7812    6.3564   -1.0976 C   0  0  2  0  0  0  0  0  0  0  0  0
   -8.3590    5.6839   -2.2588 O   0  0  0  0  0  0  0  0  0  0  0  0
   -7.9892    5.7388    0.1207 C   0  0  1  0  0  0  0  0  0  0  0  0
   -6.5993    5.9177    0.0456 O   0  0  0  0  0  0  0  0  0  0  0  0
   -9.3989    1.2304    1.8586 C   0  0  3  0  0  0  0  0  0  0  0  0
   -9.1825    1.0356    3.2419 O   0  0  0  0  0  0  0  0  0  0  0  0
  -10.4927    0.2748    1.3726 C   0  0  2  0  0  0  0  0  0  0  0  0
  -10.8565    0.5905    0.0547 O   0  0  0  0  0  0  0  0  0  0  0  0
   -9.9736   -1.1692    1.4312 C   0  0  1  0  0  0  0  0  0  0  0  0
   -9.6227   -1.5282    2.7438 O   0  0  0  0  0  0  0  0  0  0  0  0
    4.7296   -0.1075    0.0785 Na  0  3  0  0  0  0  0  0  0  0  0  0
  -32.6731  -39.6993    0.9065 H   0  0  0  0  0  0  0  0  0  0  0  0
  -33.9911  -41.0094    0.6934 H   0  0  0  0  0  0  0  0  0  0  0  0
  -32.3020  -42.7136    0.4824 H   0  0  0  0  0  0  0  0  0  0  0  0
  -30.3259  -40.5831   -0.0879 H   0  0  0  0  0  0  0  0  0  0  0  0
  -30.3376  -40.8455    1.7000 H   0  0  0  0  0  0  0  0  0  0  0  0
  -29.8441  -43.2760    1.3493 H   0  0  0  0  0  0  0  0  0  0  0  0
  -29.8644  -43.0320   -0.4374 H   0  0  0  0  0  0  0  0  0  0  0  0
  -27.7633  -41.6681    1.5473 H   0  0  0  0  0  0  0  0  0  0  0  0
  -27.9750  -42.2106   -1.6208 H   0  0  0  0  0  0  0  0  0  0  0  0
  -25.7817  -41.0362    0.3702 H   0  0  0  0  0  0  0  0  0  0  0  0
  -25.4687  -41.4536   -1.3445 H   0  0  0  0  0  0  0  0  0  0  0  0
  -27.9766  -38.1540   -1.6612 H   0  0  0  0  0  0  0  0  0  0  0  0
  -28.6006  -39.8516   -1.4313 H   0  0  0  0  0  0  0  0  0  0  0  0
  -24.5598  -38.9881   -1.7024 H   0  0  0  0  0  0  0  0  0  0  0  0
  -24.9052  -38.7071    0.0435 H   0  0  0  0  0  0  0  0  0  0  0  0
  -26.0660  -37.0105   -2.2702 H   0  0  0  0  0  0  0  0  0  0  0  0
  -26.3922  -36.8230   -0.4946 H   0  0  0  0  0  0  0  0  0  0  0  0
  -23.6725  -36.5275   -0.2350 H   0  0  0  0  0  0  0  0  0  0  0  0
  -25.4733  -34.5939   -1.8917 H   0  0  0  0  0  0  0  0  0  0  0  0
  -22.5794  -34.4556   -0.5352 H   0  0  0  0  0  0  0  0  0  0  0  0
  -24.0700  -34.0080    0.3718 H   0  0  0  0  0  0  0  0  0  0  0  0
  -24.4488  -32.0551   -1.1359 H   0  0  0  0  0  0  0  0  0  0  0  0
  -22.9475  -32.4641   -2.0742 H   0  0  0  0  0  0  0  0  0  0  0  0
  -23.1154  -32.0257    0.9729 H   0  0  0  0  0  0  0  0  0  0  0  0
  -21.6122  -32.3585    0.0729 H   0  0  0  0  0  0  0  0  0  0  0  0
  -22.9163  -28.2303    0.1535 H   0  0  0  0  0  0  0  0  0  0  0  0
  -20.0337  -29.1480   -0.2472 H   0  0  0  0  0  0  0  0  0  0  0  0
  -19.4477  -26.8830   -1.0730 H   0  0  0  0  0  0  0  0  0  0  0  0
  -19.2254  -27.0243    0.6895 H   0  0  0  0  0  0  0  0  0  0  0  0
  -21.3370  -25.3295   -0.7009 H   0  0  0  0  0  0  0  0  0  0  0  0
  -21.1191  -25.4695    1.0622 H   0  0  0  0  0  0  0  0  0  0  0  0
  -20.5316  -23.2050    0.2298 H   0  0  0  0  0  0  0  0  0  0  0  0
  -17.6449  -24.1231   -0.1404 H   0  0  0  0  0  0  0  0  0  0  0  0
  -18.3629  -20.3892    1.0313 H   0  0  0  0  0  0  0  0  0  0  0  0
  -16.2821  -21.2978    0.9710 H   0  0  0  0  0  0  0  0  0  0  0  0
  -16.3179  -21.1244   -1.0504 H   0  0  0  0  0  0  0  0  0  0  0  0
  -15.4297  -20.9398    0.0000 H   0  0  0  0  0  0  0  0  0  0  0  0
  -18.3591  -18.5329   -0.7146 H   0  0  0  0  0  0  0  0  0  0  0  0
  -15.6461  -18.6959    0.7689 H   0  0  0  0  0  0  0  0  0  0  0  0
  -16.3182  -16.9638   -1.6563 H   0  0  0  0  0  0  0  0  0  0  0  0
  -14.7609  -17.2933   -0.8933 H   0  0  0  0  0  0  0  0  0  0  0  0
  -15.4172  -15.7976    1.0262 H   0  0  0  0  0  0  0  0  0  0  0  0
  -17.4068  -14.7184    0.9662 H   0  0  0  0  0  0  0  0  0  0  0  0
  -17.6941  -16.2227    0.3849 H   0  0  0  0  0  0  0  0  0  0  0  0
  -18.3007  -15.1026    0.0000 H   0  0  0  0  0  0  0  0  0  0  0  0
  -14.2325  -12.9390   -0.3548 H   0  0  0  0  0  0  0  0  0  0  0  0
  -16.0172  -12.5087   -0.8053 H   0  0  0  0  0  0  0  0  0  0  0  0
  -14.5086  -11.1161   -1.0318 H   0  0  0  0  0  0  0  0  0  0  0  0
  -14.1922  -11.2591    0.7852 H   0  0  0  0  0  0  0  0  0  0  0  0
  -15.2237   -9.5447    1.0135 H   0  0  0  0  0  0  0  0  0  0  0  0
  -15.6363   -9.4985   -0.6652 H   0  0  0  0  0  0  0  0  0  0  0  0
  -14.1843   -8.2241   -1.0955 H   0  0  0  0  0  0  0  0  0  0  0  0
  -13.5724   -8.4435    0.6527 H   0  0  0  0  0  0  0  0  0  0  0  0
  -14.3905   -6.6368    1.1039 H   0  0  0  0  0  0  0  0  0  0  0  0
  -13.1184   -6.7969   -0.2589 H   0  0  0  0  0  0  0  0  0  0  0  0
  -12.5662   -4.9009   -1.6692 H   0  0  0  0  0  0  0  0  0  0  0  0
  -12.8883   -3.4386   -0.6820 H   0  0  0  0  0  0  0  0  0  0  0  0
  -11.6112   -4.3211    1.1866 H   0  0  0  0  0  0  0  0  0  0  0  0
  -11.1416   -5.8012    0.2766 H   0  0  0  0  0  0  0  0  0  0  0  0
   -9.8040   -4.3884   -1.3732 H   0  0  0  0  0  0  0  0  0  0  0  0
  -10.5413   -2.9383   -0.6867 H   0  0  0  0  0  0  0  0  0  0  0  0
   -9.5164   -3.6004    1.5975 H   0  0  0  0  0  0  0  0  0  0  0  0
   -9.1060   -5.8637    1.1748 H   0  0  0  0  0  0  0  0  0  0  0  0
   -7.7746   -5.0316    1.9372 H   0  0  0  0  0  0  0  0  0  0  0  0
   -7.6808   -6.0284   -1.0434 H   0  0  0  0  0  0  0  0  0  0  0  0
   -8.0170   -7.7711    0.1757 H   0  0  0  0  0  0  0  0  0  0  0  0
   -5.8222   -5.4159    1.1095 H   0  0  0  0  0  0  0  0  0  0  0  0
   -6.2038   -4.5194   -0.4917 H   0  0  0  0  0  0  0  0  0  0  0  0
   -4.8595   -3.0112    0.8574 H   0  0  0  0  0  0  0  0  0  0  0  0
   -3.2816   -3.7149    1.3196 H   0  0  0  0  0  0  0  0  0  0  0  0
   -3.0401   -1.7308   -0.1892 H   0  0  0  0  0  0  0  0  0  0  0  0
   -4.9017   -1.8689   -1.3487 H   0  0  0  0  0  0  0  0  0  0  0  0
   -1.6749   -2.6423   -2.1452 H   0  0  0  0  0  0  0  0  0  0  0  0
   -2.2639   -4.2473   -1.7111 H   0  0  0  0  0  0  0  0  0  0  0  0
   -0.1858   -4.3205   -0.8710 H   0  0  0  0  0  0  0  0  0  0  0  0
   -1.0422   -3.8686    0.6154 H   0  0  0  0  0  0  0  0  0  0  0  0
    0.7402   -2.1057   -1.2891 H   0  0  0  0  0  0  0  0  0  0  0  0
    2.0046   -3.4082   -0.1403 H   0  0  0  0  0  0  0  0  0  0  0  0
   -0.5923   -1.3795    1.3380 H   0  0  0  0  0  0  0  0  0  0  0  0
    1.8344   -0.5678    1.3751 H   0  0  0  0  0  0  0  0  0  0  0  0
    1.5286    0.3171   -0.1733 H   0  0  0  0  0  0  0  0  0  0  0  0
    0.0520    0.5583    2.5112 H   0  0  0  0  0  0  0  0  0  0  0  0
    1.7821    2.3839    1.1638 H   0  0  0  0  0  0  0  0  0  0  0  0
   -1.3826    2.1276    1.7981 H   0  0  0  0  0  0  0  0  0  0  0  0
   -2.2678    0.0327    1.0152 H   0  0  0  0  0  0  0  0  0  0  0  0
   -3.0003    0.4151   -1.4878 H   0  0  0  0  0  0  0  0  0  0  0  0
   -2.1098    1.8184   -1.5027 H   0  0  0  0  0  0  0  0  0  0  0  0
   -3.5517    2.3059    1.0203 H   0  0  0  0  0  0  0  0  0  0  0  0
   -5.4951    1.2905    0.6295 H   0  0  0  0  0  0  0  0  0  0  0  0
   -5.0765    0.7816   -1.0732 H   0  0  0  0  0  0  0  0  0  0  0  0
   -5.4501   -0.0404    0.0000 H   0  0  0  0  0  0  0  0  0  0  0  0
   -4.9823    3.4425   -0.2526 H   0  0  0  0  0  0  0  0  0  0  0  0
   -9.0476   -1.0468   -0.5488 H   0  0  0  0  0  0  0  0  0  0  0  0
   -7.3096    1.4897    1.6647 H   0  0  0  0  0  0  0  0  0  0  0  0
   -7.2618    1.4023   -0.9318 H   0  0  0  0  0  0  0  0  0  0  0  0
   -8.9133    1.8485   -0.9167 H   0  0  0  0  0  0  0  0  0  0  0  0
   -8.5002    4.0642    1.4488 H   0  0  0  0  0  0  0  0  0  0  0  0
  -10.5076    5.2866    1.0649 H   0  0  0  0  0  0  0  0  0  0  0  0
  -12.7418    2.5259    0.9557 H   0  0  0  0  0  0  0  0  0  0  0  0
  -10.8197    7.0299   -0.3746 H   0  0  0  0  0  0  0  0  0  0  0  0
  -11.0483    6.9063   -2.5629 H   0  0  0  0  0  0  0  0  0  0  0  0
   -8.5443    7.4426   -1.1963 H   0  0  0  0  0  0  0  0  0  0  0  0
   -8.4288    6.3302   -3.0099 H   0  0  0  0  0  0  0  0  0  0  0  0
   -8.3530    6.3194    0.9971 H   0  0  0  0  0  0  0  0  0  0  0  0
   -6.2957    5.5055   -0.8030 H   0  0  0  0  0  0  0  0  0  0  0  0
   -9.7545    2.2723    1.7629 H   0  0  0  0  0  0  0  0  0  0  0  0
   -8.3740    0.4783    3.3862 H   0  0  0  0  0  0  0  0  0  0  0  0
  -11.3824    0.4006    2.0334 H   0  0  0  0  0  0  0  0  0  0  0  0
  -11.6859    0.0828   -0.1467 H   0  0  0  0  0  0  0  0  0  0  0  0
  -10.8090   -1.8140    1.0943 H   0  0  0  0  0  0  0  0  0  0  0  0
  -10.4712   -1.6764    3.2382 H   0  0  0  0  0  0  0  0  0  0  0  0
  1  2  2  0  0  0  0
  1 99  1  0  0  0  0
  1100  1  0  0  0  0
  2  3  1  0  0  0  0
  2101  1  0  0  0  0
  3  4  1  0  0  0  0
  3102  1  0  0  0  0
  3103  1  0  0  0  0
  4  5  1  0  0  0  0
  4104  1  0  0  0  0
  4105  1  0  0  0  0
  5  6  1  0  0  0  0
  5106  1  0  0  0  0
  6  7  1  0  0  0  0
  7  8  1  0  0  0  0
  7  5  1  0  0  0  0
  7107  1  0  0  0  0
  8  9  1  0  0  0  0
  8108  1  0  0  0  0
  8109  1  0  0  0  0
  9 10  2  0  0  0  0
  9 11  1  0  0  0  0
 10110  1  0  0  0  0
 10111  1  0  0  0  0
 11 12  1  0  0  0  0
 11112  1  0  0  0  0
 11113  1  0  0  0  0
 12 13  1  0  0  0  0
 12114  1  0  0  0  0
 12115  1  0  0  0  0
 13 14  1  0  0  0  0
 13116  1  0  0  0  0
 14 15  1  0  0  0  0
 15 16  1  0  0  0  0
 15 13  1  0  0  0  0
 15117  1  0  0  0  0
 16 17  1  0  0  0  0
 16118  1  0  0  0  0
 16119  1  0  0  0  0
 17 18  1  0  0  0  0
 17120  1  0  0  0  0
 17121  1  0  0  0  0
 18 19  1  0  0  0  0
 18122  1  0  0  0  0
 18123  1  0  0  0  0
 19 20  1  0  0  0  0
 20 21  2  0  0  0  0
 20124  1  0  0  0  0
 21 22  1  0  0  0  0
 21125  1  0  0  0  0
 22 23  1  0  0  0  0
 22126  1  0  0  0  0
 22127  1  0  0  0  0
 23 24  1  0  0  0  0
 23128  1  0  0  0  0
 23129  1  0  0  0  0
 24 25  2  0  0  0  0
 24130  1  0  0  0  0
 25 26  1  0  0  0  0
 25131  1  0  0  0  0
 26 27  1  0  0  0  0
 27 28  1  0  0  0  0
 27 29  1  0  0  0  0
 27132  1  0  0  0  0
 28133  1  0  0  0  0
 28134  1  0  0  0  0
 28135  1  0  0  0  0
 29 30  2  0  0  0  0
 29136  1  0  0  0  0
 30 31  1  0  0  0  0
 30137  1  0  0  0  0
 31 32  1  0  0  0  0
 31138  1  0  0  0  0
 31139  1  0  0  0  0
 32 33  1  0  0  0  0
 32 34  1  0  0  0  0
 32140  1  0  0  0  0
 33141  1  0  0  0  0
 33142  1  0  0  0  0
 33143  1  0  0  0  0
 34 35  1  0  0  0  0
 35 36  1  0  0  0  0
 35144  1  0  0  0  0
 35145  1  0  0  0  0
 36 37  1  0  0  0  0
 36146  1  0  0  0  0
 36147  1  0  0  0  0
 37 38  1  0  0  0  0
 37148  1  0  0  0  0
 37149  1  0  0  0  0
 38 39  1  0  0  0  0
 38150  1  0  0  0  0
 38151  1  0  0  0  0
 39 40  1  0  0  0  0
 39152  1  0  0  0  0
 39153  1  0  0  0  0
 40 41  2  0  0  0  0
 40 42  1  0  0  0  0
 42 43  1  0  0  0  0
 42154  1  0  0  0  0
 42155  1  0  0  0  0
 43 44  1  0  0  0  0
 43156  1  0  0  0  0
 43157  1  0  0  0  0
 44 45  1  0  0  0  0
 44158  1  0  0  0  0
 44159  1  0  0  0  0
 45 46  1  0  0  0  0
 45 75  1  0  0  0  0
 45160  1  0  0  0  0
 46 47  1  0  0  0  0
 46161  1  0  0  0  0
 46162  1  0  0  0  0
 47 48  1  0  0  0  0
 47 49  1  0  0  0  0
 47163  1  0  0  0  0
 48164  1  0  0  0  0
 49 50  1  0  0  0  0
 49165  1  0  0  0  0
 49166  1  0  0  0  0
 50 51  2  0  0  0  0
 50 52  1  0  0  0  0
 52 53  1  0  0  0  0
 52167  1  0  0  0  0
 52168  1  0  0  0  0
 53 54  1  0  0  0  0
 53 55  1  0  0  0  0
 53169  1  0  0  0  0
 54170  1  0  0  0  0
 55 56  1  0  0  0  0
 55171  1  0  0  0  0
 55172  1  0  0  0  0
 56 57  1  0  0  0  0
 56173  1  0  0  0  0
 56174  1  0  0  0  0
 57 58  1  0  0  0  0
 57 59  1  0  0  0  0
 57175  1  1  0  0  0
 58176  1  0  0  0  0
 59 60  1  0  0  0  0
 59177  1  0  0  0  0
 60 61  1  0  0  0  0
 60178  1  0  0  0  0
 60179  1  0  0  0  0
 61 62  1  0  0  0  0
 61 63  1  0  0  0  0
 61180  1  0  0  0  0
 62181  1  0  0  0  0
 63 64  1  0  0  0  0
 63 69  1  0  0  0  0
 63182  1  6  0  0  0
 64 65  1  0  0  0  0
 65 66  2  0  0  0  0
 65 67  2  0  0  0  0
 65 68  1  0  0  0  0
 69 70  1  0  0  0  0
 69 74  1  0  0  0  0
 69183  1  1  0  0  0
 70 71  1  0  0  0  0
 70184  1  0  0  0  0
 70185  1  0  0  0  0
 71 72  1  0  0  0  0
 71 73  1  0  0  0  0
 71186  1  0  0  0  0
 72187  1  0  0  0  0
 72188  1  0  0  0  0
 72189  1  0  0  0  0
 73190  1  0  0  0  0
 74 59  1  0  0  0  0
 75 76  1  0  0  0  0
 76 77  1  0  0  0  0
 76191  1  0  0  0  0
 77 78  1  0  0  0  0
 78 79  1  0  0  0  0
 78 92  1  0  0  0  0
 78192  1  6  0  0  0
 79 80  1  0  0  0  0
 79193  1  0  0  0  0
 79194  1  0  0  0  0
 81 80  1  0  0  0  0
 81 82  1  0  0  0  0
 81195  1  1  0  0  0
 82 83  1  0  0  0  0
 83 84  1  0  0  0  0
 83 86  1  0  0  0  0
 83196  1  1  0  0  0
 84 85  1  0  0  0  0
 85197  1  0  0  0  0
 86 87  1  0  0  0  0
 86 88  1  0  0  0  0
 86198  1  0  0  0  0
 87199  1  0  0  0  0
 88 89  1  0  0  0  0
 88 90  1  0  0  0  0
 88200  1  6  0  0  0
 89201  1  0  0  0  0
 90 91  1  0  0  0  0
 90 81  1  0  0  0  0
 90202  1  6  0  0  0
 91203  1  0  0  0  0
 92 93  1  0  0  0  0
 92 94  1  0  0  0  0
 92204  1  0  0  0  0
 93205  1  0  0  0  0
 94 95  1  0  0  0  0
 94 96  1  0  0  0  0
 94206  1  6  0  0  0
 95207  1  0  0  0  0
 96 97  1  0  0  0  0
 96 76  1  0  0  0  0
 96208  1  1  0  0  0
 97209  1  0  0  0  0
M  CHG  2  68  -1  98   1
M  END
>  <IDENTIFIER>
CNP0455789.2

>  <Energy>
11844.4

$$$$
