
 OpenBabel09062507583D

 59 61  0  0  0  0  0  0  0  0999 V2000
   -5.8085    1.9741    0.1932 C   0  0  0  0  0  0  0  0  0  0  0  0
   -4.8731    0.9289   -0.3210 C   0  0  0  0  0  0  0  0  0  0  0  0
   -5.0899    0.3977   -1.4005 O   0  0  0  0  0  0  0  0  0  0  0  0
   -3.7821    0.5978    0.4177 O   0  0  0  0  0  0  0  0  0  0  0  0
   -2.8071   -0.3108    0.0307 C   0  0  2  0  0  0  0  0  0  0  0  0
   -3.3017   -1.7755    0.0361 C   0  0  0  0  0  0  0  0  0  0  0  0
   -3.2281   -2.0944    1.5149 C   0  0  0  0  0  0  0  0  0  0  0  0
   -1.8315   -1.5862    1.9036 C   0  0  1  0  0  0  0  0  0  0  0  0
   -0.7542   -2.6753    1.7640 C   0  0  0  0  0  0  0  0  0  0  0  0
   -1.6013   -0.3408    0.9975 C   0  0  1  0  0  0  0  0  0  0  0  0
   -0.6854   -0.3960   -0.2845 C   0  0  2  0  0  0  0  0  0  0  0  0
    0.4870    0.5894   -0.5324 C   0  0  2  0  0  0  0  0  0  0  0  0
    1.3234    0.9316    0.7060 C   0  0  0  0  0  0  0  0  0  0  0  0
    0.8029    1.9076    1.7364 C   0  0  0  0  0  0  0  0  0  0  0  0
    2.5637    0.4249    0.9378 C   0  0  0  0  0  0  0  0  0  0  0  0
    3.3178   -0.5848    0.1010 C   0  0  0  0  0  0  0  0  0  0  0  0
    4.5404    0.0745   -0.4884 C   0  0  0  0  0  0  0  0  0  0  0  0
    5.8363   -0.2787   -0.2986 C   0  0  0  0  0  0  0  0  0  0  0  0
    6.3037   -1.4265    0.5665 C   0  0  0  0  0  0  0  0  0  0  0  0
    6.9192    0.5077   -0.9947 C   0  0  0  0  0  0  0  0  0  0  0  0
   -0.0982    1.7921   -1.3094 C   0  0  0  0  0  0  0  0  0  0  0  0
   -1.5986    1.6884   -1.0710 C   0  0  1  0  0  0  0  0  0  0  0  0
   -2.3908    2.4300   -1.9657 O   0  0  0  0  0  0  0  0  0  0  0  0
   -1.8668    0.1511   -1.0940 C   0  0  2  0  0  0  0  0  0  0  0  0
   -2.0349   -0.4480   -2.5065 C   0  0  0  0  0  0  0  0  0  0  0  0
   -6.6437    2.1410   -0.5203 H   0  0  0  0  0  0  0  0  0  0  0  0
   -5.2555    2.9273    0.3280 H   0  0  0  0  0  0  0  0  0  0  0  0
   -6.2254    1.6515    1.1696 H   0  0  0  0  0  0  0  0  0  0  0  0
   -2.5915   -2.4557   -0.4796 H   0  0  0  0  0  0  0  0  0  0  0  0
   -4.3041   -1.9170   -0.4182 H   0  0  0  0  0  0  0  0  0  0  0  0
   -3.4260   -3.1527    1.7893 H   0  0  0  0  0  0  0  0  0  0  0  0
   -3.9928   -1.4631    2.0239 H   0  0  0  0  0  0  0  0  0  0  0  0
   -1.8407   -1.2925    2.9764 H   0  0  0  0  0  0  0  0  0  0  0  0
   -0.7230   -3.1255    0.7527 H   0  0  0  0  0  0  0  0  0  0  0  0
   -0.9714   -3.5004    2.4753 H   0  0  0  0  0  0  0  0  0  0  0  0
    0.2434   -2.2548    2.0123 H   0  0  0  0  0  0  0  0  0  0  0  0
   -1.5678    0.6175    1.5490 H   0  0  0  0  0  0  0  0  0  0  0  0
   -0.4502   -1.4425   -0.5619 H   0  0  0  0  0  0  0  0  0  0  0  0
    1.1264    0.1097   -1.2912 H   0  0  0  0  0  0  0  0  0  0  0  0
   -0.1769    2.3350    1.4661 H   0  0  0  0  0  0  0  0  0  0  0  0
    1.5078    2.7610    1.8303 H   0  0  0  0  0  0  0  0  0  0  0  0
    0.7121    1.4042    2.7225 H   0  0  0  0  0  0  0  0  0  0  0  0
    3.0934    0.7581    1.8281 H   0  0  0  0  0  0  0  0  0  0  0  0
    2.7397   -1.0004   -0.7384 H   0  0  0  0  0  0  0  0  0  0  0  0
    3.5323   -1.4466    0.7526 H   0  0  0  0  0  0  0  0  0  0  0  0
    4.3275    0.9170   -1.1423 H   0  0  0  0  0  0  0  0  0  0  0  0
    5.5053   -1.9933    1.0708 H   0  0  0  0  0  0  0  0  0  0  0  0
    6.9788   -1.0348    1.3564 H   0  0  0  0  0  0  0  0  0  0  0  0
    6.8723   -2.1446   -0.0607 H   0  0  0  0  0  0  0  0  0  0  0  0
    6.5137    1.3356   -1.6151 H   0  0  0  0  0  0  0  0  0  0  0  0
    7.4987   -0.1676   -1.6586 H   0  0  0  0  0  0  0  0  0  0  0  0
    7.6045    0.9462   -0.2393 H   0  0  0  0  0  0  0  0  0  0  0  0
    0.0629    1.6020   -2.3948 H   0  0  0  0  0  0  0  0  0  0  0  0
    0.3607    2.7793   -1.0873 H   0  0  0  0  0  0  0  0  0  0  0  0
   -1.7697    2.1062   -0.0599 H   0  0  0  0  0  0  0  0  0  0  0  0
   -2.0683    2.2505   -2.8861 H   0  0  0  0  0  0  0  0  0  0  0  0
   -1.1749   -0.1827   -3.1539 H   0  0  0  0  0  0  0  0  0  0  0  0
   -2.9650   -0.0663   -2.9742 H   0  0  0  0  0  0  0  0  0  0  0  0
   -2.0909   -1.5538   -2.4765 H   0  0  0  0  0  0  0  0  0  0  0  0
  1  2  1  0  0  0  0
  1 26  1  0  0  0  0
  1 27  1  0  0  0  0
  1 28  1  0  0  0  0
  2  3  2  0  0  0  0
  2  4  1  0  0  0  0
  5  4  1  1  0  0  0
  5  6  1  0  0  0  0
  6  7  1  0  0  0  0
  6 29  1  0  0  0  0
  6 30  1  0  0  0  0
  7  8  1  0  0  0  0
  7 31  1  0  0  0  0
  7 32  1  0  0  0  0
  8  9  1  0  0  0  0
  8 33  1  1  0  0  0
  9 34  1  0  0  0  0
  9 35  1  0  0  0  0
  9 36  1  0  0  0  0
 10  8  1  0  0  0  0
 10 11  1  0  0  0  0
 10  5  1  0  0  0  0
 10 37  1  1  0  0  0
 11 12  1  0  0  0  0
 11 38  1  6  0  0  0
 12 13  1  0  0  0  0
 12 21  1  0  0  0  0
 12 39  1  6  0  0  0
 13 14  1  0  0  0  0
 13 15  2  0  0  0  0
 14 40  1  0  0  0  0
 14 41  1  0  0  0  0
 14 42  1  0  0  0  0
 15 16  1  0  0  0  0
 15 43  1  0  0  0  0
 16 17  1  0  0  0  0
 16 44  1  0  0  0  0
 16 45  1  0  0  0  0
 17 18  2  0  0  0  0
 17 46  1  0  0  0  0
 18 19  1  0  0  0  0
 18 20  1  0  0  0  0
 19 47  1  0  0  0  0
 19 48  1  0  0  0  0
 19 49  1  0  0  0  0
 20 50  1  0  0  0  0
 20 51  1  0  0  0  0
 20 52  1  0  0  0  0
 21 22  1  0  0  0  0
 21 53  1  0  0  0  0
 21 54  1  0  0  0  0
 22 23  1  0  0  0  0
 22 24  1  0  0  0  0
 22 55  1  1  0  0  0
 23 56  1  0  0  0  0
 24 25  1  6  0  0  0
 24 11  1  0  0  0  0
 24  5  1  0  0  0  0
 25 57  1  0  0  0  0
 25 58  1  0  0  0  0
 25 59  1  0  0  0  0
M  END
>  <IDENTIFIER>
CNP0184295.1

>  <Energy>
1152.69

$$$$
