
 OpenBabel09112500143D

 59 62  0  0  0  0  0  0  0  0999 V2000
    6.9271    0.2741   -1.4160 C   0  0  0  0  0  0  0  0  0  0  0  0
    6.1533   -0.8280   -1.1165 O   0  0  0  0  0  0  0  0  0  0  0  0
    4.8114   -0.8282   -0.8906 C   0  0  0  0  0  0  0  0  0  0  0  0
    4.0362    0.3280   -1.0111 C   0  0  0  0  0  0  0  0  0  0  0  0
    2.6657    0.3011   -0.7645 C   0  0  0  0  0  0  0  0  0  0  0  0
    2.0213   -0.8899   -0.3578 C   0  0  0  0  0  0  0  0  0  0  0  0
    2.8095   -2.0876   -0.2573 C   0  0  0  0  0  0  0  0  0  0  0  0
    2.2973   -3.2819    0.1178 O   0  0  0  0  0  0  0  0  0  0  0  0
    4.2010   -2.0378   -0.5433 C   0  0  0  0  0  0  0  0  0  0  0  0
    5.0089   -3.1310   -0.4927 O   0  0  0  0  0  0  0  0  0  0  0  0
    4.7459   -4.3618   -1.0613 C   0  0  0  0  0  0  0  0  0  0  0  0
    0.6303   -0.7869   -0.0662 C   0  0  0  0  0  0  0  0  0  0  0  0
    0.0057   -1.7493    0.3317 O   0  0  0  0  0  0  0  0  0  0  0  0
   -0.0437    0.4463   -0.2339 C   0  0  0  0  0  0  0  0  0  0  0  0
   -1.3512    0.6335    0.0916 O   0  0  0  0  0  0  0  0  0  0  0  0
   -2.1498   -0.0344    1.0008 C   0  0  2  0  0  0  0  0  0  0  0  0
   -2.5906   -1.2816    0.4802 O   0  0  0  0  0  0  0  0  0  0  0  0
   -3.3322   -2.0002    1.4656 C   0  0  2  0  0  0  0  0  0  0  0  0
   -3.6593   -3.3882    0.8973 C   0  0  0  0  0  0  0  0  0  0  0  0
   -4.3282   -4.1676    1.8563 O   0  0  0  0  0  0  0  0  0  0  0  0
   -4.6347   -1.2214    1.8405 C   0  0  1  0  0  0  0  0  0  0  0  0
   -5.4150   -1.8898    2.8005 O   0  0  0  0  0  0  0  0  0  0  0  0
   -4.2999    0.2107    2.3154 C   0  0  1  0  0  0  0  0  0  0  0  0
   -3.7285    0.2304    3.6055 O   0  0  0  0  0  0  0  0  0  0  0  0
   -3.3687    0.8801    1.2920 C   0  0  2  0  0  0  0  0  0  0  0  0
   -4.0740    1.1946    0.1108 O   0  0  0  0  0  0  0  0  0  0  0  0
    0.6874    1.5589   -0.7131 C   0  0  0  0  0  0  0  0  0  0  0  0
    0.1004    2.9196   -0.9720 C   0  0  0  0  0  0  0  0  0  0  0  0
    0.9766    4.0232   -1.0646 C   0  0  0  0  0  0  0  0  0  0  0  0
    0.4913    5.3128   -1.3010 C   0  0  0  0  0  0  0  0  0  0  0  0
   -0.8805    5.5304   -1.4646 C   0  0  0  0  0  0  0  0  0  0  0  0
   -1.3632    6.7688   -1.6948 O   0  0  0  0  0  0  0  0  0  0  0  0
   -1.7607    4.4524   -1.3974 C   0  0  0  0  0  0  0  0  0  0  0  0
   -1.2824    3.1631   -1.1553 C   0  0  0  0  0  0  0  0  0  0  0  0
    1.9912    1.4286   -0.9197 O   0  0  0  0  0  0  0  0  0  0  0  0
    7.9832   -0.0459   -1.5291 H   0  0  0  0  0  0  0  0  0  0  0  0
    6.8701    1.0162   -0.5909 H   0  0  0  0  0  0  0  0  0  0  0  0
    6.5912    0.7334   -2.3693 H   0  0  0  0  0  0  0  0  0  0  0  0
    4.4885    1.2678   -1.3022 H   0  0  0  0  0  0  0  0  0  0  0  0
    1.3847   -3.4924    0.3324 H   0  0  0  0  0  0  0  0  0  0  0  0
    5.6076   -5.0337   -0.8721 H   0  0  0  0  0  0  0  0  0  0  0  0
    4.6364   -4.2421   -2.1612 H   0  0  0  0  0  0  0  0  0  0  0  0
    3.8453   -4.8455   -0.6441 H   0  0  0  0  0  0  0  0  0  0  0  0
   -1.5503   -0.1782    1.9280 H   0  0  0  0  0  0  0  0  0  0  0  0
   -2.6941   -2.1753    2.3612 H   0  0  0  0  0  0  0  0  0  0  0  0
   -2.6992   -3.8724    0.5991 H   0  0  0  0  0  0  0  0  0  0  0  0
   -4.2949   -3.2966   -0.0098 H   0  0  0  0  0  0  0  0  0  0  0  0
   -3.9057   -5.0653    1.8606 H   0  0  0  0  0  0  0  0  0  0  0  0
   -5.2439   -1.1406    0.9145 H   0  0  0  0  0  0  0  0  0  0  0  0
   -4.8390   -2.0602    3.5905 H   0  0  0  0  0  0  0  0  0  0  0  0
   -5.2400    0.7995    2.3912 H   0  0  0  0  0  0  0  0  0  0  0  0
   -2.9463   -0.3730    3.6346 H   0  0  0  0  0  0  0  0  0  0  0  0
   -3.0092    1.8446    1.7130 H   0  0  0  0  0  0  0  0  0  0  0  0
   -4.1849    0.3738   -0.4337 H   0  0  0  0  0  0  0  0  0  0  0  0
    2.0440    3.8952   -0.9394 H   0  0  0  0  0  0  0  0  0  0  0  0
    1.1860    6.1415   -1.3557 H   0  0  0  0  0  0  0  0  0  0  0  0
   -0.7860    7.5439   -1.7482 H   0  0  0  0  0  0  0  0  0  0  0  0
   -2.8230    4.6110   -1.5366 H   0  0  0  0  0  0  0  0  0  0  0  0
   -2.0199    2.3819   -1.1456 H   0  0  0  0  0  0  0  0  0  0  0  0
  1  2  1  0  0  0  0
  1 36  1  0  0  0  0
  1 37  1  0  0  0  0
  1 38  1  0  0  0  0
  2  3  1  0  0  0  0
  3  4  2  0  0  0  0
  4  5  1  0  0  0  0
  4 39  1  0  0  0  0
  5  6  2  0  0  0  0
  6  7  1  0  0  0  0
  6 12  1  0  0  0  0
  7  8  1  0  0  0  0
  7  9  2  0  0  0  0
  8 40  1  0  0  0  0
  9 10  1  0  0  0  0
  9  3  1  0  0  0  0
 10 11  1  0  0  0  0
 11 41  1  0  0  0  0
 11 42  1  0  0  0  0
 11 43  1  0  0  0  0
 12 13  2  0  0  0  0
 12 14  1  0  0  0  0
 14 15  1  0  0  0  0
 14 27  2  0  0  0  0
 16 15  1  0  0  0  0
 16 17  1  0  0  0  0
 16 44  1  1  0  0  0
 17 18  1  0  0  0  0
 18 19  1  0  0  0  0
 18 21  1  0  0  0  0
 18 45  1  1  0  0  0
 19 20  1  0  0  0  0
 19 46  1  0  0  0  0
 19 47  1  0  0  0  0
 20 48  1  0  0  0  0
 21 22  1  0  0  0  0
 21 23  1  0  0  0  0
 21 49  1  6  0  0  0
 22 50  1  0  0  0  0
 23 24  1  0  0  0  0
 23 25  1  0  0  0  0
 23 51  1  1  0  0  0
 24 52  1  0  0  0  0
 25 26  1  0  0  0  0
 25 16  1  0  0  0  0
 25 53  1  1  0  0  0
 26 54  1  0  0  0  0
 27 28  1  0  0  0  0
 27 35  1  0  0  0  0
 28 29  2  0  0  0  0
 29 30  1  0  0  0  0
 29 55  1  0  0  0  0
 30 31  2  0  0  0  0
 30 56  1  0  0  0  0
 31 32  1  0  0  0  0
 31 33  1  0  0  0  0
 32 57  1  0  0  0  0
 33 34  2  0  0  0  0
 33 58  1  0  0  0  0
 34 28  1  0  0  0  0
 34 59  1  0  0  0  0
 35  5  1  0  0  0  0
M  END
>  <IDENTIFIER>
CNP0265984.5

>  <Energy>
580.047

$$$$
