
 OpenBabel09132508082D

173172  0  0  0  0  0  0  0  0999 V2000
   20.7846   12.0000    0.0000 C   0  0  0  0  0  0  0  0  0  0  0  0
   19.4856   11.2500    0.0000 C   0  0  0  0  0  0  0  0  0  0  0  0
   18.1865   10.5000    0.0000 C   0  0  0  0  0  0  0  0  0  0  0  0
   16.8875    9.7500    0.0000 C   0  0  0  0  0  2  0  0  0  0  0  0
   15.5885    9.0000    0.0000 C   0  0  0  0  0  0  0  0  0  0  0  0
   13.9436    8.6541   -0.0122 C   0  0  0  0  0  0  0  0  0  0  0  0
   13.3415    7.0631    0.0262 C   0  0  0  0  0  0  0  0  0  0  0  0
   11.6913    6.7500    0.0000 C   0  0  0  0  0  0  0  0  0  0  0  0
   10.3923    6.0000    0.0000 C   0  0  0  0  0  0  0  0  0  0  0  0
    9.0933    5.2500    0.0000 C   0  0  0  0  0  0  0  0  0  0  0  0
    7.7942    4.5000    0.0000 C   0  0  0  0  0  0  0  0  0  0  0  0
    6.4952    3.7500    0.0000 C   0  0  0  0  0  0  0  0  0  0  0  0
    5.1962    3.0000    0.0000 C   0  0  0  0  0  0  0  0  0  0  0  0
    3.5788    2.7525   -0.1598 C   0  0  0  0  0  0  0  0  0  0  0  0
    3.0055    1.2260    0.1963 C   0  0  0  0  0  0  0  0  0  0  0  0
    1.4317    0.8029   -0.0428 C   0  0  0  0  0  0  0  0  0  0  0  0
    0.7250   -0.5483    0.5412 C   0  0  0  0  0  0  0  0  0  0  0  0
    0.7505   -0.6980    1.7534 O   0  0  0  0  0  0  0  0  0  0  0  0
   -0.0544   -1.4671   -0.2296 O   0  0  0  0  0  0  0  0  0  0  0  0
   -1.2990   -2.2500    0.0000 C   0  0  1  0  0  0  0  0  0  0  0  0
   -2.0490   -0.9510   -0.0000 C   0  0  0  0  0  0  0  0  0  0  0  0
   -2.6595    0.1450    0.7757 O   0  0  0  0  0  0  0  0  0  0  0  0
   -3.7913    0.9212    0.2643 C   0  0  0  0  0  0  0  0  0  0  0  0
   -4.2908    0.5337   -0.7820 O   0  0  0  0  0  0  0  0  0  0  0  0
   -4.5097    2.2835    0.8567 C   0  0  0  0  0  0  0  0  0  0  0  0
   -5.7990    2.9462    0.0000 C   0  0  0  0  0  0  0  0  0  0  0  0
   -6.5490    4.2452    0.0000 C   0  0  0  0  0  0  0  0  0  0  0  0
   -7.2990    5.5442    0.0000 C   0  0  0  0  0  0  0  0  0  0  0  0
   -8.0490    6.8433    0.0000 C   0  0  0  0  0  0  0  0  0  0  0  0
   -8.7990    8.1423    0.0000 C   0  0  0  0  0  0  0  0  0  0  0  0
   -9.5490    9.4413    0.0000 C   0  0  0  0  0  0  0  0  0  0  0  0
   -9.8902   11.0816    0.1323 C   0  0  0  0  0  0  0  0  0  0  0  0
  -11.4368   11.7105   -0.2075 C   0  0  0  0  0  0  0  0  0  0  0  0
  -11.7990   13.3385    0.0000 C   0  0  0  0  0  0  0  0  0  0  0  0
  -12.5490   14.6375    0.0000 C   0  0  0  0  0  0  0  0  0  0  0  0
  -13.2990   15.9365    0.0000 C   0  0  0  0  0  0  0  0  0  0  0  0
  -14.0490   17.2356    0.0000 C   0  0  0  0  0  0  0  0  0  0  0  0
  -14.7990   18.5346    0.0000 C   0  0  0  0  0  2  0  0  0  0  0  0
  -15.5490   19.8336    0.0000 C   0  0  0  0  0  0  0  0  0  0  0  0
  -16.1356   21.3461    0.4423 C   0  0  0  0  0  0  0  0  0  0  0  0
  -17.2703   22.2127   -0.4885 C   0  0  0  0  0  0  0  0  0  0  0  0
  -17.7990   23.7308    0.0000 C   0  0  0  0  0  0  0  0  0  0  0  0
  -18.5490   25.0298    0.0000 C   0  0  0  0  0  0  0  0  0  0  0  0
  -19.2990   26.3288    0.0000 C   0  0  0  0  0  0  0  0  0  0  0  0
  -20.0490   27.6279    0.0000 C   0  0  0  0  0  0  0  0  0  0  0  0
  -20.7990   28.9269    0.0000 C   0  0  0  0  0  0  0  0  0  0  0  0
  -21.3481   26.8779    0.0000 C   0  0  0  0  0  0  0  0  0  0  0  0
   -0.5490   -3.5490    0.0000 C   0  0  0  0  0  0  0  0  0  0  0  0
    0.5641   -4.1849   -0.7323 O   0  0  0  0  0  0  0  0  0  0  0  0
    1.4093   -5.2332   -0.1783 C   0  0  0  0  0  0  0  0  0  0  0  0
    1.4321   -5.3240    1.0399 O   0  0  0  0  0  0  0  0  0  0  0  0
    2.3350   -6.3699   -0.9511 C   0  0  0  0  0  0  0  0  0  0  0  0
    3.2010   -7.4462    0.0000 C   0  0  0  0  0  0  0  0  0  0  0  0
    3.9510   -8.7452    0.0000 C   0  0  0  0  0  0  0  0  0  0  0  0
    4.7010  -10.0442    0.0000 C   0  0  0  0  0  0  0  0  0  0  0  0
    5.4510  -11.3433    0.0000 C   0  0  0  0  0  0  0  0  0  0  0  0
    6.2010  -12.6423    0.0000 C   0  0  0  0  0  0  0  0  0  0  0  0
    6.9510  -13.9413    0.0000 C   0  0  0  0  0  0  0  0  0  0  0  0
    7.2963  -15.5733   -0.1988 C   0  0  0  0  0  0  0  0  0  0  0  0
    8.8262  -16.2107    0.1862 C   0  0  0  0  0  0  0  0  0  0  0  0
    9.2010  -17.8385    0.0000 C   0  0  0  0  0  0  0  0  0  0  0  0
    9.9510  -19.1375    0.0000 C   0  0  0  0  0  2  0  0  0  0  0  0
   10.7010  -20.4365    0.0000 C   0  0  0  0  0  0  0  0  0  0  0  0
   11.4510  -21.7356    0.0000 C   0  0  0  0  0  0  0  0  0  0  0  0
    9.4019  -21.1865    0.0000 C   0  0  0  0  0  0  0  0  0  0  0  0
   21.5360   11.1652    0.0951 H   0  0  0  0  0  0  0  0  0  0  0  0
   20.6162   12.5560    0.9527 H   0  0  0  0  0  0  0  0  0  0  0  0
   21.7112   12.5350    0.0000 H   0  0  0  0  0  0  0  0  0  0  0  0
   19.8037   10.7132   -0.9345 H   0  0  0  0  0  0  0  0  0  0  0  0
   19.7761   10.6383    0.9060 H   0  0  0  0  0  0  0  0  0  0  0  0
   17.7990   11.0613    0.8889 H   0  0  0  0  0  0  0  0  0  0  0  0
   17.8018   11.0601   -0.8891 H   0  0  0  0  0  0  0  0  0  0  0  0
   15.8450    8.3602   -0.8701 H   0  0  0  0  0  0  0  0  0  0  0  0
   15.8253    8.3949    0.8999 H   0  0  0  0  0  0  0  0  0  0  0  0
   13.5035    9.1781    0.8623 H   0  0  0  0  0  0  0  0  0  0  0  0
   13.5260    9.1312   -0.9235 H   0  0  0  0  0  0  0  0  0  0  0  0
   13.7451    6.5911    0.9464 H   0  0  0  0  0  0  0  0  0  0  0  0
   13.7844    6.5276   -0.8399 H   0  0  0  0  0  0  0  0  0  0  0  0
   11.5000    7.3505   -0.9227 H   0  0  0  0  0  0  0  0  0  0  0  0
   11.4555    7.4802    0.8191 H   0  0  0  0  0  0  0  0  0  0  0  0
   10.7514    5.3983   -0.8767 H   0  0  0  0  0  0  0  0  0  0  0  0
   10.7999    5.5770    0.9775 H   0  0  0  0  0  0  0  0  0  0  0  0
    9.5522    4.2643    0.3554 H   0  0  0  0  0  0  0  0  0  0  0  0
    8.7826    5.8233    0.9246 H   0  0  0  0  0  0  0  0  0  0  0  0
    7.3450    5.4748   -0.3902 H   0  0  0  0  0  0  0  0  0  0  0  0
    8.1163    3.9037   -0.9107 H   0  0  0  0  0  0  0  0  0  0  0  0
    6.1332    4.0926   -1.0250 H   0  0  0  0  0  0  0  0  0  0  0  0
    6.0887    4.4227    0.8032 H   0  0  0  0  0  0  0  0  0  0  0  0
    5.4967    2.1702   -0.6907 H   0  0  0  0  0  0  0  0  0  0  0  0
    5.2915    2.5226    1.0066 H   0  0  0  0  0  0  0  0  0  0  0  0
    3.3093    2.9880   -1.2108 H   0  0  0  0  0  0  0  0  0  0  0  0
    3.0445    3.4718    0.4964 H   0  0  0  0  0  0  0  0  0  0  0  0
    3.6136    0.4907   -0.3712 H   0  0  0  0  0  0  0  0  0  0  0  0
    3.2198    1.0688    1.2742 H   0  0  0  0  0  0  0  0  0  0  0  0
    1.2326    0.8543   -1.1335 H   0  0  0  0  0  0  0  0  0  0  0  0
    0.8542    1.6282    0.4260 H   0  0  0  0  0  0  0  0  0  0  0  0
   -1.6310   -2.5636   -1.0322 H   0  0  0  0  0  0  0  0  0  0  0  0
   -3.0280   -1.4641   -0.1869 H   0  0  0  0  0  0  0  0  0  0  0  0
   -1.8547   -0.4534   -0.9928 H   0  0  0  0  0  0  0  0  0  0  0  0
   -3.7164    3.0576    0.9080 H   0  0  0  0  0  0  0  0  0  0  0  0
   -4.8576    2.0808    1.8909 H   0  0  0  0  0  0  0  0  0  0  0  0
   -6.5533    2.1216   -0.0619 H   0  0  0  0  0  0  0  0  0  0  0  0
   -5.3641    2.9612   -1.0269 H   0  0  0  0  0  0  0  0  0  0  0  0
   -6.9126    3.8586    1.0048 H   0  0  0  0  0  0  0  0  0  0  0  0
   -5.5769    4.7961    0.0719 H   0  0  0  0  0  0  0  0  0  0  0  0
   -8.2642    4.9664   -0.0700 H   0  0  0  0  0  0  0  0  0  0  0  0
   -7.1132    5.7547    1.1121 H   0  0  0  0  0  0  0  0  0  0  0  0
   -7.0112    7.3337    0.0018 H   0  0  0  0  0  0  0  0  0  0  0  0
   -8.3396    6.6948   -1.0789 H   0  0  0  0  0  0  0  0  0  0  0  0
   -8.1255    8.7014   -0.7298 H   0  0  0  0  0  0  0  0  0  0  0  0
   -8.4871    8.3252    1.0625 H   0  0  0  0  0  0  0  0  0  0  0  0
  -10.0352    9.3350   -1.0052 H   0  0  0  0  0  0  0  0  0  0  0  0
  -10.3657    9.1297    0.6970 H   0  0  0  0  0  0  0  0  0  0  0  0
   -9.6429   11.3713    1.1755 H   0  0  0  0  0  0  0  0  0  0  0  0
   -9.1803   11.6162   -0.5329 H   0  0  0  0  0  0  0  0  0  0  0  0
  -12.1657   11.1422    0.4077 H   0  0  0  0  0  0  0  0  0  0  0  0
  -11.6447   11.4668   -1.2705 H   0  0  0  0  0  0  0  0  0  0  0  0
  -10.8699   13.6896   -0.5176 H   0  0  0  0  0  0  0  0  0  0  0  0
  -11.4964   13.3654    1.0760 H   0  0  0  0  0  0  0  0  0  0  0  0
  -12.5568   14.6294   -1.1252 H   0  0  0  0  0  0  0  0  0  0  0  0
  -13.3898   13.9950    0.4142 H   0  0  0  0  0  0  0  0  0  0  0  0
  -14.2459   15.5207   -0.4767 H   0  0  0  0  0  0  0  0  0  0  0  0
  -13.3990   15.8757    1.1218 H   0  0  0  0  0  0  0  0  0  0  0  0
  -13.8247   17.4186   -1.0824 H   0  0  0  0  0  0  0  0  0  0  0  0
  -13.2360   17.7832    0.5434 H   0  0  0  0  0  0  0  0  0  0  0  0
  -15.2234   20.1330   -1.0181 H   0  0  0  0  0  0  0  0  0  0  0  0
  -16.5468   19.3640   -0.1265 H   0  0  0  0  0  0  0  0  0  0  0  0
  -16.5810   21.2297    1.4526 H   0  0  0  0  0  0  0  0  0  0  0  0
  -15.2481   22.0044    0.5513 H   0  0  0  0  0  0  0  0  0  0  0  0
  -18.1682   21.5686   -0.5990 H   0  0  0  0  0  0  0  0  0  0  0  0
  -16.8270   22.3336   -1.4998 H   0  0  0  0  0  0  0  0  0  0  0  0
  -16.7171   24.0425    0.1346 H   0  0  0  0  0  0  0  0  0  0  0  0
  -18.1660   23.3649    0.9897 H   0  0  0  0  0  0  0  0  0  0  0  0
  -17.8991   25.4283    0.8601 H   0  0  0  0  0  0  0  0  0  0  0  0
  -17.9182   25.2947   -0.9078 H   0  0  0  0  0  0  0  0  0  0  0  0
  -19.7441   25.8323    0.9651 H   0  0  0  0  0  0  0  0  0  0  0  0
  -19.6502   26.0431   -1.0603 H   0  0  0  0  0  0  0  0  0  0  0  0
  -19.5266   27.8307    0.9786 H   0  0  0  0  0  0  0  0  0  0  0  0
  -19.9109   29.5703   -0.1989 H   0  0  0  0  0  0  0  0  0  0  0  0
  -21.1079   29.0545    1.0778 H   0  0  0  0  0  0  0  0  0  0  0  0
  -21.3340   29.8535    0.0000 H   0  0  0  0  0  0  0  0  0  0  0  0
  -21.7565   27.0872   -1.0299 H   0  0  0  0  0  0  0  0  0  0  0  0
  -21.8101   27.0862    1.0053 H   0  0  0  0  0  0  0  0  0  0  0  0
  -22.2748   26.3429    0.0000 H   0  0  0  0  0  0  0  0  0  0  0  0
   -1.3300   -4.3431    0.0806 H   0  0  0  0  0  0  0  0  0  0  0  0
   -0.1950   -3.5279    1.0549 H   0  0  0  0  0  0  0  0  0  0  0  0
    1.6322   -6.9667   -1.5692 H   0  0  0  0  0  0  0  0  0  0  0  0
    3.0467   -5.8635   -1.6357 H   0  0  0  0  0  0  0  0  0  0  0  0
    3.8867   -6.7563    0.5439 H   0  0  0  0  0  0  0  0  0  0  0  0
    2.3464   -7.6414    0.7071 H   0  0  0  0  0  0  0  0  0  0  0  0
    3.0611   -9.2437   -0.4693 H   0  0  0  0  0  0  0  0  0  0  0  0
    3.8770   -8.8446    1.1231 H   0  0  0  0  0  0  0  0  0  0  0  0
    4.8698   -9.9422   -1.1132 H   0  0  0  0  0  0  0  0  0  0  0  0
    5.6234   -9.5052    0.3749 H   0  0  0  0  0  0  0  0  0  0  0  0
    5.4384  -11.3534    1.1282 H   0  0  0  0  0  0  0  0  0  0  0  0
    4.4692  -11.7810   -0.3794 H   0  0  0  0  0  0  0  0  0  0  0  0
    5.3876  -13.2684    0.4886 H   0  0  0  0  0  0  0  0  0  0  0  0
    6.1265  -12.6895   -1.1209 H   0  0  0  0  0  0  0  0  0  0  0  0
    7.2866  -13.9028    1.0665 H   0  0  0  0  0  0  0  0  0  0  0  0
    7.8619  -13.5968   -0.5519 H   0  0  0  0  0  0  0  0  0  0  0  0
    7.1084  -15.8143   -1.2661 H   0  0  0  0  0  0  0  0  0  0  0  0
    6.5512  -16.1360    0.4019 H   0  0  0  0  0  0  0  0  0  0  0  0
    9.5659  -15.6445   -0.4181 H   0  0  0  0  0  0  0  0  0  0  0  0
    9.0150  -15.9617    1.2515 H   0  0  0  0  0  0  0  0  0  0  0  0
    8.3442  -18.2202    0.5936 H   0  0  0  0  0  0  0  0  0  0  0  0
    8.8863  -17.9074   -1.0622 H   0  0  0  0  0  0  0  0  0  0  0  0
   11.0022  -20.2276   -1.0566 H   0  0  0  0  0  0  0  0  0  0  0  0
   11.3396  -21.9742    1.0908 H   0  0  0  0  0  0  0  0  0  0  0  0
   12.4745  -21.2943   -0.0804 H   0  0  0  0  0  0  0  0  0  0  0  0
   11.9860  -22.6623    0.0000 H   0  0  0  0  0  0  0  0  0  0  0  0
    8.8914  -20.8997   -0.9677 H   0  0  0  0  0  0  0  0  0  0  0  0
    9.0356  -21.0096    1.0501 H   0  0  0  0  0  0  0  0  0  0  0  0
    8.4752  -21.7215    0.0000 H   0  0  0  0  0  0  0  0  0  0  0  0
  1  2  1  0  0  0  0
  1 66  1  0  0  0  0
  1 67  1  0  0  0  0
  1 68  1  0  0  0  0
  2  3  1  0  0  0  0
  2 69  1  0  0  0  0
  2 70  1  0  0  0  0
  3  4  1  0  0  0  0
  3 71  1  0  0  0  0
  3 72  1  0  0  0  0
  4  5  1  0  0  0  0
  5  6  1  0  0  0  0
  5 73  1  0  0  0  0
  5 74  1  0  0  0  0
  6  7  1  0  0  0  0
  6 75  1  0  0  0  0
  6 76  1  0  0  0  0
  7  8  1  0  0  0  0
  7 77  1  0  0  0  0
  7 78  1  0  0  0  0
  8  9  1  0  0  0  0
  8 79  1  0  0  0  0
  8 80  1  0  0  0  0
  9 10  1  0  0  0  0
  9 81  1  0  0  0  0
  9 82  1  0  0  0  0
 10 11  1  0  0  0  0
 10 83  1  0  0  0  0
 10 84  1  0  0  0  0
 11 12  1  0  0  0  0
 11 85  1  0  0  0  0
 11 86  1  0  0  0  0
 12 13  1  0  0  0  0
 12 87  1  0  0  0  0
 12 88  1  0  0  0  0
 13 14  1  0  0  0  0
 13 89  1  0  0  0  0
 13 90  1  0  0  0  0
 14 15  1  0  0  0  0
 14 91  1  0  0  0  0
 14 92  1  0  0  0  0
 15 16  1  0  0  0  0
 15 93  1  0  0  0  0
 15 94  1  0  0  0  0
 16 17  1  0  0  0  0
 16 95  1  0  0  0  0
 16 96  1  0  0  0  0
 17 18  2  0  0  0  0
 17 19  1  0  0  0  0
 19 20  1  0  0  0  0
 20 21  1  0  0  0  0
 20 48  1  0  0  0  0
 20 97  1  1  0  0  0
 21 22  1  0  0  0  0
 21 98  1  0  0  0  0
 21 99  1  0  0  0  0
 22 23  1  0  0  0  0
 23 24  2  0  0  0  0
 23 25  1  0  0  0  0
 25 26  1  0  0  0  0
 25100  1  0  0  0  0
 25101  1  0  0  0  0
 26 27  1  0  0  0  0
 26102  1  0  0  0  0
 26103  1  0  0  0  0
 27 28  1  0  0  0  0
 27104  1  0  0  0  0
 27105  1  0  0  0  0
 28 29  1  0  0  0  0
 28106  1  0  0  0  0
 28107  1  0  0  0  0
 29 30  1  0  0  0  0
 29108  1  0  0  0  0
 29109  1  0  0  0  0
 30 31  1  0  0  0  0
 30110  1  0  0  0  0
 30111  1  0  0  0  0
 31 32  1  0  0  0  0
 31112  1  0  0  0  0
 31113  1  0  0  0  0
 32 33  1  0  0  0  0
 32114  1  0  0  0  0
 32115  1  0  0  0  0
 33 34  1  0  0  0  0
 33116  1  0  0  0  0
 33117  1  0  0  0  0
 34 35  1  0  0  0  0
 34118  1  0  0  0  0
 34119  1  0  0  0  0
 35 36  1  0  0  0  0
 35120  1  0  0  0  0
 35121  1  0  0  0  0
 36 37  1  0  0  0  0
 36122  1  0  0  0  0
 36123  1  0  0  0  0
 37 38  1  0  0  0  0
 37124  1  0  0  0  0
 37125  1  0  0  0  0
 38 39  1  0  0  0  0
 39 40  1  0  0  0  0
 39126  1  0  0  0  0
 39127  1  0  0  0  0
 40 41  1  0  0  0  0
 40128  1  0  0  0  0
 40129  1  0  0  0  0
 41 42  1  0  0  0  0
 41130  1  0  0  0  0
 41131  1  0  0  0  0
 42 43  1  0  0  0  0
 42132  1  0  0  0  0
 42133  1  0  0  0  0
 43 44  1  0  0  0  0
 43134  1  0  0  0  0
 43135  1  0  0  0  0
 44 45  1  0  0  0  0
 44136  1  0  0  0  0
 44137  1  0  0  0  0
 45 46  1  0  0  0  0
 45 47  1  0  0  0  0
 45138  1  0  0  0  0
 46139  1  0  0  0  0
 46140  1  0  0  0  0
 46141  1  0  0  0  0
 47142  1  0  0  0  0
 47143  1  0  0  0  0
 47144  1  0  0  0  0
 48 49  1  0  0  0  0
 48145  1  0  0  0  0
 48146  1  0  0  0  0
 49 50  1  0  0  0  0
 50 51  2  0  0  0  0
 50 52  1  0  0  0  0
 52 53  1  0  0  0  0
 52147  1  0  0  0  0
 52148  1  0  0  0  0
 53 54  1  0  0  0  0
 53149  1  0  0  0  0
 53150  1  0  0  0  0
 54 55  1  0  0  0  0
 54151  1  0  0  0  0
 54152  1  0  0  0  0
 55 56  1  0  0  0  0
 55153  1  0  0  0  0
 55154  1  0  0  0  0
 56 57  1  0  0  0  0
 56155  1  0  0  0  0
 56156  1  0  0  0  0
 57 58  1  0  0  0  0
 57157  1  0  0  0  0
 57158  1  0  0  0  0
 58 59  1  0  0  0  0
 58159  1  0  0  0  0
 58160  1  0  0  0  0
 59 60  1  0  0  0  0
 59161  1  0  0  0  0
 59162  1  0  0  0  0
 60 61  1  0  0  0  0
 60163  1  0  0  0  0
 60164  1  0  0  0  0
 61 62  1  0  0  0  0
 61165  1  0  0  0  0
 61166  1  0  0  0  0
 62 63  1  0  0  0  0
 63 64  1  0  0  0  0
 63 65  1  0  0  0  0
 63167  1  0  0  0  0
 64168  1  0  0  0  0
 64169  1  0  0  0  0
 64170  1  0  0  0  0
 65171  1  0  0  0  0
 65172  1  0  0  0  0
 65173  1  0  0  0  0
M  END
>  <IDENTIFIER>
CNP0551452.1

>  <Energy>
16228.3

$$$$
