
 OpenBabel09062521313D

 52 56  0  0  0  0  0  0  0  0999 V2000
    1.7702    1.6257   -1.8291 O   0  0  0  0  0  0  0  0  0  0  0  0
    2.4861    1.2814   -0.8996 C   0  0  0  0  0  0  0  0  0  0  0  0
    1.9323    0.8408    0.2656 N   0  0  0  0  0  0  0  0  0  0  0  0
    0.5005    0.6812    0.4599 C   0  0  0  0  0  0  0  0  0  0  0  0
   -0.0267   -0.4865   -0.3979 C   0  0  0  0  0  0  0  0  0  0  0  0
   -1.4856   -0.7233   -0.2674 N   0  0  0  0  0  0  0  0  0  0  0  0
   -1.8671   -1.7879   -1.2273 C   0  0  0  0  0  0  0  0  0  0  0  0
   -3.3645   -2.1764   -1.1512 C   0  0  1  0  0  0  0  0  0  0  0  0
   -3.7012   -2.6060    0.2672 C   0  0  0  0  0  0  0  0  0  0  0  0
   -3.3712   -1.4245    1.1856 C   0  0  1  0  0  0  0  0  0  0  0  0
   -1.8653   -1.1183    1.1112 C   0  0  0  0  0  0  0  0  0  0  0  0
   -4.1426   -0.1895    0.7654 C   0  0  0  0  0  0  0  0  0  0  0  0
   -4.4069    0.7987    1.7266 C   0  0  0  0  0  0  0  0  0  0  0  0
   -5.1345    1.9304    1.3769 C   0  0  0  0  0  0  0  0  0  0  0  0
   -5.6001    2.0792    0.0761 C   0  0  0  0  0  0  0  0  0  0  0  0
   -5.3219    1.0944   -0.8751 C   0  0  0  0  0  0  0  0  0  0  0  0
   -5.7377    1.2415   -2.0131 O   0  0  0  0  0  0  0  0  0  0  0  0
   -4.5837   -0.0283   -0.5317 N   0  0  0  0  0  0  0  0  0  0  0  0
   -4.3242   -1.0436   -1.5782 C   0  0  0  0  0  0  0  0  0  0  0  0
    3.9542    1.3595   -1.0780 C   0  0  0  0  0  0  0  0  0  0  0  0
    4.5470    1.8380   -2.2060 N   0  0  0  0  0  0  0  0  0  0  0  0
    5.8643    1.6953   -2.0826 N   0  0  0  0  0  0  0  0  0  0  0  0
    6.1002    1.1507   -0.8832 C   0  0  0  0  0  0  0  0  0  0  0  0
    4.9598    0.9289   -0.2294 C   0  0  0  0  0  0  0  0  0  0  0  0
    5.1900    0.2158    1.0515 C   0  0  0  0  0  0  0  0  0  0  0  0
    6.7125    0.4500    1.2185 C   0  0  0  0  0  0  0  0  0  0  0  0
    7.3030    0.6399   -0.1976 C   0  0  0  0  0  0  0  0  0  0  0  0
    2.5409    0.6085    1.0604 H   0  0  0  0  0  0  0  0  0  0  0  0
   -0.0277    1.6312    0.2261 H   0  0  0  0  0  0  0  0  0  0  0  0
    0.3364    0.4451    1.5302 H   0  0  0  0  0  0  0  0  0  0  0  0
    0.5389   -1.4072   -0.1258 H   0  0  0  0  0  0  0  0  0  0  0  0
    0.1975   -0.2561   -1.4611 H   0  0  0  0  0  0  0  0  0  0  0  0
   -1.2669   -2.7062   -1.0257 H   0  0  0  0  0  0  0  0  0  0  0  0
   -1.6399   -1.4639   -2.2673 H   0  0  0  0  0  0  0  0  0  0  0  0
   -3.5112   -3.0193   -1.8625 H   0  0  0  0  0  0  0  0  0  0  0  0
   -3.0996   -3.4946    0.5617 H   0  0  0  0  0  0  0  0  0  0  0  0
   -4.7768   -2.8801    0.3439 H   0  0  0  0  0  0  0  0  0  0  0  0
   -3.6486   -1.7178    2.2224 H   0  0  0  0  0  0  0  0  0  0  0  0
   -1.2832   -2.0089    1.4413 H   0  0  0  0  0  0  0  0  0  0  0  0
   -1.6679   -0.2900    1.8217 H   0  0  0  0  0  0  0  0  0  0  0  0
   -4.0572    0.6849    2.7454 H   0  0  0  0  0  0  0  0  0  0  0  0
   -5.3459    2.6905    2.1181 H   0  0  0  0  0  0  0  0  0  0  0  0
   -6.1740    2.9580   -0.1929 H   0  0  0  0  0  0  0  0  0  0  0  0
   -3.9165   -0.5739   -2.5007 H   0  0  0  0  0  0  0  0  0  0  0  0
   -5.3081   -1.4943   -1.8376 H   0  0  0  0  0  0  0  0  0  0  0  0
    6.5664    1.9419   -2.8143 H   0  0  0  0  0  0  0  0  0  0  0  0
    4.9387   -0.8540    0.8879 H   0  0  0  0  0  0  0  0  0  0  0  0
    4.6502    0.6272    1.9301 H   0  0  0  0  0  0  0  0  0  0  0  0
    7.2507   -0.2523    1.8891 H   0  0  0  0  0  0  0  0  0  0  0  0
    6.7890    1.4588    1.6894 H   0  0  0  0  0  0  0  0  0  0  0  0
    7.5790   -0.3225   -0.6789 H   0  0  0  0  0  0  0  0  0  0  0  0
    8.1634    1.3422   -0.1722 H   0  0  0  0  0  0  0  0  0  0  0  0
  1  2  2  0  0  0  0
  2  3  1  0  0  0  0
  2 20  1  0  0  0  0
  3  4  1  0  0  0  0
  3 28  1  0  0  0  0
  4  5  1  0  0  0  0
  4 29  1  0  0  0  0
  4 30  1  0  0  0  0
  5  6  1  0  0  0  0
  5 31  1  0  0  0  0
  5 32  1  0  0  0  0
  6  7  1  0  0  0  0
  7 33  1  0  0  0  0
  7 34  1  0  0  0  0
  8  7  1  0  0  0  0
  8  9  1  0  0  0  0
  8 35  1  6  0  0  0
  9 10  1  0  0  0  0
  9 36  1  0  0  0  0
  9 37  1  0  0  0  0
 10 11  1  0  0  0  0
 10 12  1  0  0  0  0
 10 38  1  1  0  0  0
 11  6  1  0  0  0  0
 11 39  1  0  0  0  0
 11 40  1  0  0  0  0
 12 13  2  0  0  0  0
 13 14  1  0  0  0  0
 13 41  1  0  0  0  0
 14 15  2  0  0  0  0
 14 42  1  0  0  0  0
 15 16  1  0  0  0  0
 15 43  1  0  0  0  0
 16 17  2  0  0  0  0
 16 18  1  0  0  0  0
 18 19  1  0  0  0  0
 18 12  1  0  0  0  0
 19  8  1  0  0  0  0
 19 44  1  0  0  0  0
 19 45  1  0  0  0  0
 20 21  2  0  0  0  0
 21 22  1  0  0  0  0
 22 23  1  0  0  0  0
 22 46  1  0  0  0  0
 23 24  2  0  0  0  0
 24 25  1  0  0  0  0
 24 20  1  0  0  0  0
 25 26  1  0  0  0  0
 25 47  1  0  0  0  0
 25 48  1  0  0  0  0
 26 27  1  0  0  0  0
 26 49  1  0  0  0  0
 26 50  1  0  0  0  0
 27 23  1  0  0  0  0
 27 51  1  0  0  0  0
 27 52  1  0  0  0  0
M  END
>  <IDENTIFIER>
CNP0407277.1

>  <Energy>
648.989

$$$$
