
 OpenBabel09122505093D

 41 41  0  0  0  0  0  0  0  0999 V2000
   -3.8909    1.9641    1.9025 C   0  0  0  0  0  0  0  0  0  0  0  0
   -3.0280    0.8548    1.2973 C   0  0  0  0  0  0  0  0  0  0  0  0
   -3.6108    0.2419   -0.0036 C   0  0  1  0  0  0  0  0  0  0  0  0
   -3.7404    1.3005   -1.1208 C   0  0  0  0  0  0  0  0  0  0  0  0
   -2.7514   -0.9916   -0.4269 C   0  0  1  0  0  0  0  0  0  0  0  0
   -3.3262   -1.7301   -1.6505 C   0  0  0  0  0  0  0  0  0  0  0  0
   -2.6132   -2.9156   -1.8844 O   0  0  0  0  0  0  0  0  0  0  0  0
   -1.3695   -0.6045   -0.6909 N   0  0  0  0  0  0  0  0  0  0  0  0
   -0.3068   -1.1031    0.0013 C   0  0  0  0  0  0  0  0  0  0  0  0
   -0.4757   -1.9322    0.8861 O   0  0  0  0  0  0  0  0  0  0  0  0
    1.0873   -0.6231   -0.3318 C   0  0  0  0  0  0  0  0  0  0  0  0
    2.1747   -1.3278    0.4936 C   0  0  0  0  0  0  0  0  0  0  0  0
    3.5356   -0.7975    0.1649 C   0  0  0  0  0  0  0  0  0  0  0  0
    3.9858    0.4900    0.3637 C   0  0  0  0  0  0  0  0  0  0  0  0
    5.2832    0.4536   -0.0821 C   0  0  0  0  0  0  0  0  0  0  0  0
    6.1376    1.5008   -0.0752 O   0  0  0  0  0  0  0  0  0  0  0  0
    7.4297    1.4250   -0.5466 C   0  0  0  0  0  0  0  0  0  0  0  0
    5.5825   -0.7863   -0.5207 N   0  0  0  0  0  0  0  0  0  0  0  0
    4.5114   -1.5105   -0.3549 O   0  0  0  0  0  0  0  0  0  0  0  0
   -3.4316    2.3073    2.8535 H   0  0  0  0  0  0  0  0  0  0  0  0
   -4.9116    1.5836    2.1186 H   0  0  0  0  0  0  0  0  0  0  0  0
   -3.9565    2.8426    1.2301 H   0  0  0  0  0  0  0  0  0  0  0  0
   -2.9469    0.0513    2.0618 H   0  0  0  0  0  0  0  0  0  0  0  0
   -2.0087    1.2570    1.1091 H   0  0  0  0  0  0  0  0  0  0  0  0
   -4.6342   -0.1328    0.2233 H   0  0  0  0  0  0  0  0  0  0  0  0
   -2.7559    1.7416   -1.3779 H   0  0  0  0  0  0  0  0  0  0  0  0
   -4.4207    2.1190   -0.8135 H   0  0  0  0  0  0  0  0  0  0  0  0
   -4.1944    0.8656   -2.0327 H   0  0  0  0  0  0  0  0  0  0  0  0
   -2.8020   -1.7158    0.4172 H   0  0  0  0  0  0  0  0  0  0  0  0
   -3.3143   -1.0979   -2.5656 H   0  0  0  0  0  0  0  0  0  0  0  0
   -4.3852   -2.0028   -1.4543 H   0  0  0  0  0  0  0  0  0  0  0  0
   -1.8028   -2.6673   -2.4014 H   0  0  0  0  0  0  0  0  0  0  0  0
   -1.1862    0.0729   -1.4459 H   0  0  0  0  0  0  0  0  0  0  0  0
    1.1257    0.4725   -0.1486 H   0  0  0  0  0  0  0  0  0  0  0  0
    1.2815   -0.8117   -1.4103 H   0  0  0  0  0  0  0  0  0  0  0  0
    2.1470   -2.4169    0.2712 H   0  0  0  0  0  0  0  0  0  0  0  0
    1.9924   -1.1793    1.5800 H   0  0  0  0  0  0  0  0  0  0  0  0
    3.4467    1.3310    0.7795 H   0  0  0  0  0  0  0  0  0  0  0  0
    7.9238    2.4092   -0.4140 H   0  0  0  0  0  0  0  0  0  0  0  0
    7.4265    1.1683   -1.6276 H   0  0  0  0  0  0  0  0  0  0  0  0
    8.0011    0.6587    0.0198 H   0  0  0  0  0  0  0  0  0  0  0  0
  1  2  1  0  0  0  0
  1 20  1  0  0  0  0
  1 21  1  0  0  0  0
  1 22  1  0  0  0  0
  2  3  1  0  0  0  0
  2 23  1  0  0  0  0
  2 24  1  0  0  0  0
  3  4  1  0  0  0  0
  3  5  1  0  0  0  0
  3 25  1  1  0  0  0
  4 26  1  0  0  0  0
  4 27  1  0  0  0  0
  4 28  1  0  0  0  0
  5  6  1  0  0  0  0
  5  8  1  0  0  0  0
  5 29  1  1  0  0  0
  6  7  1  0  0  0  0
  6 30  1  0  0  0  0
  6 31  1  0  0  0  0
  7 32  1  0  0  0  0
  8  9  1  0  0  0  0
  8 33  1  0  0  0  0
  9 10  2  0  0  0  0
  9 11  1  0  0  0  0
 11 12  1  0  0  0  0
 11 34  1  0  0  0  0
 11 35  1  0  0  0  0
 12 13  1  0  0  0  0
 12 36  1  0  0  0  0
 12 37  1  0  0  0  0
 13 14  2  0  0  0  0
 14 15  1  0  0  0  0
 14 38  1  0  0  0  0
 15 16  1  0  0  0  0
 15 18  2  0  0  0  0
 16 17  1  0  0  0  0
 17 39  1  0  0  0  0
 17 40  1  0  0  0  0
 17 41  1  0  0  0  0
 18 19  1  0  0  0  0
 19 13  1  0  0  0  0
M  END
>  <IDENTIFIER>
CNP0405584.1

>  <Energy>
262.526

$$$$
