
 OpenBabel09122520563D

 41 40  0  0  0  0  0  0  0  0999 V2000
    5.9262    0.0672    1.7584 C   0  0  0  0  0  0  0  0  0  0  0  0
    5.1584   -0.9210    0.8786 C   0  0  0  0  0  0  0  0  0  0  0  0
    3.8784   -0.3307    0.2653 C   0  0  0  0  0  0  0  0  0  0  0  0
    2.8224    0.0554    1.3182 C   0  0  0  0  0  0  0  0  0  0  0  0
    1.5441    0.6580    0.7087 C   0  0  0  0  0  0  0  0  0  0  0  0
    0.7513   -0.3458   -0.1473 C   0  0  0  0  0  0  0  0  0  0  0  0
   -0.5314    0.2352   -0.7683 C   0  0  0  0  0  0  0  0  0  0  0  0
   -1.5649    0.6987    0.2707 C   0  0  0  0  0  0  0  0  0  0  0  0
   -2.8684    1.2901   -0.3152 C   0  0  0  0  0  0  0  0  0  0  0  0
   -3.8948    0.4372   -1.1284 C   0  0  1  0  0  0  0  0  0  0  0  0
   -3.4135   -0.0114   -2.5189 C   0  0  0  0  0  0  0  0  0  0  0  0
   -4.5998   -0.7088   -0.3546 C   0  0  0  0  0  0  0  0  0  0  0  0
   -3.7746   -1.9642   -0.0511 C   0  0  0  0  0  0  0  0  0  0  0  0
    6.8621   -0.4104    2.1156 H   0  0  0  0  0  0  0  0  0  0  0  0
    5.3344    0.3578    2.6494 H   0  0  0  0  0  0  0  0  0  0  0  0
    6.1899    0.9753    1.1762 H   0  0  0  0  0  0  0  0  0  0  0  0
    4.9103   -1.8289    1.4701 H   0  0  0  0  0  0  0  0  0  0  0  0
    5.8288   -1.2244    0.0447 H   0  0  0  0  0  0  0  0  0  0  0  0
    3.4620   -1.1070   -0.4079 H   0  0  0  0  0  0  0  0  0  0  0  0
    4.1408    0.5603   -0.3463 H   0  0  0  0  0  0  0  0  0  0  0  0
    3.2489    0.8286    1.9901 H   0  0  0  0  0  0  0  0  0  0  0  0
    2.5570   -0.8331    1.9320 H   0  0  0  0  0  0  0  0  0  0  0  0
    1.8063    1.5528    0.1030 H   0  0  0  0  0  0  0  0  0  0  0  0
    0.9118    0.9829    1.5605 H   0  0  0  0  0  0  0  0  0  0  0  0
    0.4873   -1.2309    0.4730 H   0  0  0  0  0  0  0  0  0  0  0  0
    1.3818   -0.6886   -0.9923 H   0  0  0  0  0  0  0  0  0  0  0  0
   -0.9520   -0.5835   -1.3676 H   0  0  0  0  0  0  0  0  0  0  0  0
   -0.2723    1.0813   -1.4420 H   0  0  0  0  0  0  0  0  0  0  0  0
   -1.1079    1.5241    0.8537 H   0  0  0  0  0  0  0  0  0  0  0  0
   -1.7812   -0.1000    0.9949 H   0  0  0  0  0  0  0  0  0  0  0  0
   -2.5825    2.1615   -0.9451 H   0  0  0  0  0  0  0  0  0  0  0  0
   -3.4315    1.6996    0.5529 H   0  0  0  0  0  0  0  0  0  0  0  0
   -4.7054    1.1710   -1.3435 H   0  0  0  0  0  0  0  0  0  0  0  0
   -2.6771   -0.8281   -2.4874 H   0  0  0  0  0  0  0  0  0  0  0  0
   -2.9854    0.8498   -3.0743 H   0  0  0  0  0  0  0  0  0  0  0  0
   -4.2775   -0.3975   -3.1010 H   0  0  0  0  0  0  0  0  0  0  0  0
   -5.4590   -1.0457   -0.9768 H   0  0  0  0  0  0  0  0  0  0  0  0
   -5.0192   -0.3090    0.5946 H   0  0  0  0  0  0  0  0  0  0  0  0
   -3.3691   -2.4148   -0.9785 H   0  0  0  0  0  0  0  0  0  0  0  0
   -4.4345   -2.7159    0.4311 H   0  0  0  0  0  0  0  0  0  0  0  0
   -2.9527   -1.7777    0.6537 H   0  0  0  0  0  0  0  0  0  0  0  0
  1  2  1  0  0  0  0
  1 14  1  0  0  0  0
  1 15  1  0  0  0  0
  1 16  1  0  0  0  0
  2  3  1  0  0  0  0
  2 17  1  0  0  0  0
  2 18  1  0  0  0  0
  3  4  1  0  0  0  0
  3 19  1  0  0  0  0
  3 20  1  0  0  0  0
  4  5  1  0  0  0  0
  4 21  1  0  0  0  0
  4 22  1  0  0  0  0
  5  6  1  0  0  0  0
  5 23  1  0  0  0  0
  5 24  1  0  0  0  0
  6  7  1  0  0  0  0
  6 25  1  0  0  0  0
  6 26  1  0  0  0  0
  7  8  1  0  0  0  0
  7 27  1  0  0  0  0
  7 28  1  0  0  0  0
  8  9  1  0  0  0  0
  8 29  1  0  0  0  0
  8 30  1  0  0  0  0
  9 10  1  0  0  0  0
  9 31  1  0  0  0  0
  9 32  1  0  0  0  0
 10 11  1  0  0  0  0
 10 12  1  0  0  0  0
 10 33  1  6  0  0  0
 11 34  1  0  0  0  0
 11 35  1  0  0  0  0
 11 36  1  0  0  0  0
 12 13  1  0  0  0  0
 12 37  1  0  0  0  0
 12 38  1  0  0  0  0
 13 39  1  0  0  0  0
 13 40  1  0  0  0  0
 13 41  1  0  0  0  0
M  END
>  <IDENTIFIER>
CNP0349662.0

>  <Energy>
144.704

$$$$
