
 OpenBabel09052518042D

174179  0  0  0  0  0  0  0  0999 V2000
    5.4596    4.4087    0.0000 C   0  0  0  0  0  0  0  0  0  0  0  0
    5.0294    2.9717    0.0000 C   0  0  0  0  0  2  0  0  0  0  0  0
    4.5992    1.5347    0.0000 C   0  0  0  0  0  0  0  0  0  0  0  0
    4.1690    0.0977    0.0000 C   0  0  0  0  0  0  0  0  0  0  0  0
    3.7388   -1.3393   -0.0000 C   0  0  0  0  0  0  0  0  0  0  0  0
    2.4053   -1.9880   -0.4979 C   0  0  1  0  0  0  0  0  0  0  0  0
    2.6139   -3.5121   -0.2569 C   0  0  0  0  0  0  0  0  0  0  0  0
    1.7311   -4.5121   -1.0128 C   0  0  0  0  0  0  0  0  0  0  0  0
    2.0662   -5.9220   -0.4697 C   0  0  0  0  0  0  0  0  0  0  0  0
    1.7243   -7.0870   -1.4167 C   0  0  0  0  0  0  0  0  0  0  0  0
    2.0361   -8.4397   -0.7399 C   0  0  0  0  0  0  0  0  0  0  0  0
    0.8980   -9.1277    0.0566 C   0  0  0  0  0  0  0  0  0  0  0  0
    0.1117   -8.3299    1.1227 C   0  0  0  0  0  0  0  0  0  0  0  0
   -0.9455   -7.4144    0.4819 C   0  0  0  0  0  0  0  0  0  0  0  0
   -1.9043   -6.7579    1.4845 C   0  0  0  0  0  0  0  0  0  0  0  0
   -2.9353   -5.9982    0.6961 C   0  0  0  0  0  0  0  0  0  0  0  0
   -3.6022   -6.6168   -0.1182 O   0  0  0  0  0  0  0  0  0  0  0  0
   -3.0459   -4.6430    0.8126 O   0  0  0  0  0  0  0  0  0  0  0  0
   -3.7059   -3.8211   -0.0974 C   0  0  1  0  0  0  0  0  0  0  0  0
   -3.3265   -2.3100    0.1367 C   0  0  2  0  0  0  0  0  0  0  0  0
   -1.9390   -2.2456    0.6667 O   0  0  0  0  0  0  0  0  0  0  0  0
   -1.0759   -1.0510    0.5525 C   0  0  1  0  0  0  0  0  0  0  0  0
    0.2284   -1.0269   -0.4370 C   0  0  2  0  0  0  0  0  0  0  0  0
    1.3078   -1.5779    0.2998 O   0  0  0  0  0  0  0  0  0  0  0  0
    0.6338    0.2942   -1.0113 O   0  0  0  0  0  0  0  0  0  0  0  0
    0.7500    1.2990    0.0000 C   0  0  2  0  0  0  0  0  0  0  0  0
    0.4895    2.7762    0.0000 C   0  0  0  0  0  0  0  0  0  0  0  0
   -0.9118    1.3577    0.4610 C   0  0  2  0  0  0  0  0  0  0  0  0
   -1.7816    2.3175   -0.1946 O   0  0  0  0  0  0  0  0  0  0  0  0
   -1.8116    0.1601    0.2471 C   0  0  2  0  0  0  0  0  0  0  0  0
   -2.9258    0.3140    1.0908 O   0  0  0  0  0  0  0  0  0  0  0  0
   -4.4231   -1.6859    0.9145 O   0  0  0  0  0  0  0  0  0  0  0  0
   -5.5586   -1.4772    0.0000 C   0  0  1  0  0  0  0  0  0  0  0  0
   -6.9681   -0.9642    0.0000 C   0  0  0  0  0  0  0  0  0  0  0  0
   -5.9830   -2.9049   -0.7717 C   0  0  2  0  0  0  0  0  0  0  0  0
   -7.3650   -3.2668   -1.3067 O   0  0  0  0  0  0  0  0  0  0  0  0
   -8.6474   -3.4777   -0.5695 C   0  0  2  0  0  0  0  0  0  0  0  0
   -9.3847   -4.8101   -0.9042 O   0  0  0  0  0  0  0  0  0  0  0  0
  -10.5372   -5.2176    0.0000 C   0  0  1  0  0  0  0  0  0  0  0  0
  -11.6863   -6.1818    0.0000 C   0  0  0  0  0  0  0  0  0  0  0  0
  -11.6569   -3.8161   -0.3221 C   0  0  2  0  0  0  0  0  0  0  0  0
  -12.9073   -4.0717   -1.1535 O   0  0  0  0  0  0  0  0  0  0  0  0
  -14.2716   -4.2925   -0.5627 C   0  0  2  0  0  0  0  0  0  0  0  0
  -15.3222   -3.2838   -0.8558 O   0  0  0  0  0  0  0  0  0  0  0  0
  -16.4949   -3.4056    0.0000 C   0  0  1  0  0  0  0  0  0  0  0  0
  -17.9044   -2.8925    0.0000 C   0  0  0  0  0  0  0  0  0  0  0  0
  -17.0101   -4.9968    0.2720 C   0  0  2  0  0  0  0  0  0  0  0  0
  -18.3622   -5.4088   -0.1422 O   0  0  0  0  0  0  0  0  0  0  0  0
  -19.4959   -5.8077    0.6442 C   0  0  0  0  0  0  0  0  0  0  0  0
  -19.4084   -5.7847    1.8623 O   0  0  0  0  0  0  0  0  0  0  0  0
  -20.9526   -6.1199    0.0000 C   0  0  1  0  0  0  0  0  0  0  0  0
  -22.1016   -7.0841    0.0000 C   0  0  0  0  0  0  0  0  0  0  0  0
  -21.9167   -4.9709    0.0000 C   0  0  0  0  0  0  0  0  0  0  0  0
  -22.8809   -3.8218    0.0000 C   0  0  0  0  0  0  0  0  0  0  0  0
  -15.9628   -6.0731   -0.1459 C   0  0  1  0  0  0  0  0  0  0  0  0
  -16.5940   -7.2304   -0.6355 O   0  0  0  0  0  0  0  0  0  0  0  0
  -14.9444   -5.5553   -1.1788 C   0  0  1  0  0  0  0  0  0  0  0  0
  -14.0357   -6.5582   -1.5215 O   0  0  0  0  0  0  0  0  0  0  0  0
  -10.9529   -2.5224   -1.1191 C   0  0  1  0  0  0  0  0  0  0  0  0
  -11.6293   -1.2720   -1.4676 O   0  0  0  0  0  0  0  0  0  0  0  0
  -12.4483   -0.5484   -0.5424 C   0  0  2  0  0  0  0  0  0  0  0  0
  -11.9871    0.8518   -0.2288 O   0  0  0  0  0  0  0  0  0  0  0  0
  -13.0958    1.8121    0.0000 C   0  0  1  0  0  0  0  0  0  0  0  0
  -13.3563    3.2893    0.0000 C   0  0  0  0  0  0  0  0  0  0  0  0
  -14.3089    1.1058    0.6898 C   0  0  2  0  0  0  0  0  0  0  0  0
  -13.9755    0.6180    1.9706 O   0  0  0  0  0  0  0  0  0  0  0  0
  -14.8617   -0.0322   -0.2382 C   0  0  1  0  0  0  0  0  0  0  0  0
  -15.9868    0.4086   -0.9541 O   0  0  0  0  0  0  0  0  0  0  0  0
  -13.7956   -0.4659   -1.2706 C   0  0  1  0  0  0  0  0  0  0  0  0
  -14.1406   -1.6290   -1.9523 O   0  0  0  0  0  0  0  0  0  0  0  0
   -9.5593   -2.0901   -0.7271 C   0  0  1  0  0  0  0  0  0  0  0  0
   -9.1313   -0.9639   -1.6473 O   0  0  0  0  0  0  0  0  0  0  0  0
   -8.6806    0.4560   -1.5224 C   0  0  0  0  0  0  0  0  0  0  0  0
   -8.6053    1.1192   -2.5460 O   0  0  0  0  0  0  0  0  0  0  0  0
   -7.9786    1.1424    0.0000 C   0  0  1  0  0  0  0  0  0  0  0  0
   -6.8295    2.1065    0.0000 C   0  0  0  0  0  0  0  0  0  0  0  0
   -8.9428    2.2914    0.0000 C   0  0  0  0  0  0  0  0  0  0  0  0
   -9.9070    3.4405    0.0000 C   0  0  0  0  0  0  0  0  0  0  0  0
   -5.2718   -4.0597   -0.0795 C   0  0  1  0  0  0  0  0  0  0  0  0
   -5.6342   -5.2755   -0.6809 O   0  0  0  0  0  0  0  0  0  0  0  0
    6.3292    4.2317   -0.6657 H   0  0  0  0  0  0  0  0  0  0  0  0
    4.5944    4.7508   -0.6044 H   0  0  0  0  0  0  0  0  0  0  0  0
    5.7665    5.4338    0.0000 H   0  0  0  0  0  0  0  0  0  0  0  0
    4.9580    1.4804    1.0559 H   0  0  0  0  0  0  0  0  0  0  0  0
    3.5796    1.9941   -0.1338 H   0  0  0  0  0  0  0  0  0  0  0  0
    3.3388    0.2453    0.7340 H   0  0  0  0  0  0  0  0  0  0  0  0
    3.8776    0.1784   -1.0784 H   0  0  0  0  0  0  0  0  0  0  0  0
    3.9463   -1.7286    1.0301 H   0  0  0  0  0  0  0  0  0  0  0  0
    4.5317   -1.8105   -0.6305 H   0  0  0  0  0  0  0  0  0  0  0  0
    2.3000   -1.7660   -1.5854 H   0  0  0  0  0  0  0  0  0  0  0  0
    3.6467   -3.7940   -0.5671 H   0  0  0  0  0  0  0  0  0  0  0  0
    2.5423   -3.6909    0.8413 H   0  0  0  0  0  0  0  0  0  0  0  0
    1.9945   -4.4311   -2.0902 H   0  0  0  0  0  0  0  0  0  0  0  0
    0.6454   -4.3122   -0.8872 H   0  0  0  0  0  0  0  0  0  0  0  0
    3.1666   -6.0062   -0.3089 H   0  0  0  0  0  0  0  0  0  0  0  0
    1.5976   -6.0220    0.5305 H   0  0  0  0  0  0  0  0  0  0  0  0
    2.4173   -6.9636   -2.2784 H   0  0  0  0  0  0  0  0  0  0  0  0
    0.6995   -7.0827   -1.8393 H   0  0  0  0  0  0  0  0  0  0  0  0
    2.9441   -8.3324   -0.1048 H   0  0  0  0  0  0  0  0  0  0  0  0
    2.3035   -9.1696   -1.5350 H   0  0  0  0  0  0  0  0  0  0  0  0
    0.1610   -9.5497   -0.6619 H   0  0  0  0  0  0  0  0  0  0  0  0
    1.3734   -9.9974    0.5614 H   0  0  0  0  0  0  0  0  0  0  0  0
   -0.4589   -9.0804    1.7141 H   0  0  0  0  0  0  0  0  0  0  0  0
    0.7886   -7.7958    1.8211 H   0  0  0  0  0  0  0  0  0  0  0  0
   -0.4878   -6.6020   -0.1002 H   0  0  0  0  0  0  0  0  0  0  0  0
   -1.5463   -8.0437   -0.2127 H   0  0  0  0  0  0  0  0  0  0  0  0
   -2.4169   -7.5362    2.0901 H   0  0  0  0  0  0  0  0  0  0  0  0
   -1.3455   -6.0767    2.1595 H   0  0  0  0  0  0  0  0  0  0  0  0
   -3.2913   -4.0548   -1.1057 H   0  0  0  0  0  0  0  0  0  0  0  0
   -3.2953   -1.8501   -0.8778 H   0  0  0  0  0  0  0  0  0  0  0  0
   -0.6961   -0.8764    1.5866 H   0  0  0  0  0  0  0  0  0  0  0  0
   -0.0523   -1.6737   -1.2982 H   0  0  0  0  0  0  0  0  0  0  0  0
    1.3713    0.9352    0.8410 H   0  0  0  0  0  0  0  0  0  0  0  0
    1.3558    3.0126   -0.6525 H   0  0  0  0  0  0  0  0  0  0  0  0
    0.8182    2.9927    1.0502 H   0  0  0  0  0  0  0  0  0  0  0  0
    0.3037    3.8299    0.0000 H   0  0  0  0  0  0  0  0  0  0  0  0
   -0.9040    1.5486    1.5715 H   0  0  0  0  0  0  0  0  0  0  0  0
   -2.1585    2.9158    0.5048 H   0  0  0  0  0  0  0  0  0  0  0  0
   -2.1229    0.0709   -0.8254 H   0  0  0  0  0  0  0  0  0  0  0  0
   -3.6219    0.7963    0.5716 H   0  0  0  0  0  0  0  0  0  0  0  0
   -5.1784   -0.7734   -0.7801 H   0  0  0  0  0  0  0  0  0  0  0  0
   -6.6101   -0.4302    0.9078 H   0  0  0  0  0  0  0  0  0  0  0  0
   -7.3926   -1.7058    0.6998 H   0  0  0  0  0  0  0  0  0  0  0  0
   -7.9736   -0.5982    0.0000 H   0  0  0  0  0  0  0  0  0  0  0  0
   -5.4149   -2.8276   -1.7267 H   0  0  0  0  0  0  0  0  0  0  0  0
   -8.3807   -3.5808    0.5032 H   0  0  0  0  0  0  0  0  0  0  0  0
  -10.0974   -5.1765    1.0252 H   0  0  0  0  0  0  0  0  0  0  0  0
  -12.1108   -5.9101    0.9956 H   0  0  0  0  0  0  0  0  0  0  0  0
  -11.0479   -7.0847    0.1017 H   0  0  0  0  0  0  0  0  0  0  0  0
  -12.5060   -6.8696    0.0000 H   0  0  0  0  0  0  0  0  0  0  0  0
  -11.9840   -3.4568    0.6770 H   0  0  0  0  0  0  0  0  0  0  0  0
  -14.1174   -4.4124    0.5338 H   0  0  0  0  0  0  0  0  0  0  0  0
  -16.0977   -3.0721    0.9879 H   0  0  0  0  0  0  0  0  0  0  0  0
  -17.6251   -1.8183    0.0306 H   0  0  0  0  0  0  0  0  0  0  0  0
  -18.1136   -3.1455   -1.0652 H   0  0  0  0  0  0  0  0  0  0  0  0
  -18.9099   -2.5265    0.0000 H   0  0  0  0  0  0  0  0  0  0  0  0
  -17.0585   -5.0770    1.3823 H   0  0  0  0  0  0  0  0  0  0  0  0
  -20.5862   -6.2663   -1.0546 H   0  0  0  0  0  0  0  0  0  0  0  0
  -22.5145   -6.9685   -1.0451 H   0  0  0  0  0  0  0  0  0  0  0  0
  -21.4655   -7.9969    0.0133 H   0  0  0  0  0  0  0  0  0  0  0  0
  -22.9212   -7.7719    0.0000 H   0  0  0  0  0  0  0  0  0  0  0  0
  -21.7603   -4.8971    1.1166 H   0  0  0  0  0  0  0  0  0  0  0  0
  -21.1968   -4.3437   -0.5880 H   0  0  0  0  0  0  0  0  0  0  0  0
  -22.2839   -3.0246    0.5287 H   0  0  0  0  0  0  0  0  0  0  0  0
  -23.6636   -4.2861    0.6483 H   0  0  0  0  0  0  0  0  0  0  0  0
  -23.5687   -3.0021    0.0000 H   0  0  0  0  0  0  0  0  0  0  0  0
  -15.3472   -6.3445    0.7462 H   0  0  0  0  0  0  0  0  0  0  0  0
  -16.9189   -7.7376    0.1534 H   0  0  0  0  0  0  0  0  0  0  0  0
  -15.4499   -5.2470   -2.1288 H   0  0  0  0  0  0  0  0  0  0  0  0
  -14.4635   -7.1290   -2.2126 H   0  0  0  0  0  0  0  0  0  0  0  0
  -10.7821   -2.9829   -2.1172 H   0  0  0  0  0  0  0  0  0  0  0  0
  -12.5437   -1.1511    0.3858 H   0  0  0  0  0  0  0  0  0  0  0  0
  -13.4858    1.9099   -1.0264 H   0  0  0  0  0  0  0  0  0  0  0  0
  -12.5349    3.6105   -0.6882 H   0  0  0  0  0  0  0  0  0  0  0  0
  -13.0154    3.4426    1.0465 H   0  0  0  0  0  0  0  0  0  0  0  0
  -13.5421    4.3430    0.0000 H   0  0  0  0  0  0  0  0  0  0  0  0
  -15.1534    1.8126    0.8622 H   0  0  0  0  0  0  0  0  0  0  0  0
  -13.0271    0.3370    1.9895 H   0  0  0  0  0  0  0  0  0  0  0  0
  -15.1456   -0.8947    0.4056 H   0  0  0  0  0  0  0  0  0  0  0  0
  -16.7439    0.4321   -0.3125 H   0  0  0  0  0  0  0  0  0  0  0  0
  -13.7001    0.2821   -2.0901 H   0  0  0  0  0  0  0  0  0  0  0  0
  -13.6699   -1.6475   -2.8285 H   0  0  0  0  0  0  0  0  0  0  0  0
   -9.7158   -1.6843    0.2975 H   0  0  0  0  0  0  0  0  0  0  0  0
   -8.1864    0.8312    1.1161 H   0  0  0  0  0  0  0  0  0  0  0  0
   -6.0104    1.4063    0.2075 H   0  0  0  0  0  0  0  0  0  0  0  0
   -6.7920    2.2983   -1.1005 H   0  0  0  0  0  0  0  0  0  0  0  0
   -6.0098    2.7942    0.0000 H   0  0  0  0  0  0  0  0  0  0  0  0
   -8.6727    2.6827    1.0578 H   0  0  0  0  0  0  0  0  0  0  0  0
   -9.8200    1.6197    0.1466 H   0  0  0  0  0  0  0  0  0  0  0  0
   -9.1659    4.2734   -0.1089 H   0  0  0  0  0  0  0  0  0  0  0  0
  -10.4723    3.3734    0.9850 H   0  0  0  0  0  0  0  0  0  0  0  0
  -10.5948    4.2602    0.0000 H   0  0  0  0  0  0  0  0  0  0  0  0
   -5.6416   -4.0706    0.9686 H   0  0  0  0  0  0  0  0  0  0  0  0
   -5.3464   -5.2380   -1.6311 H   0  0  0  0  0  0  0  0  0  0  0  0
  1  2  1  0  0  0  0
  1 81  1  0  0  0  0
  1 82  1  0  0  0  0
  1 83  1  0  0  0  0
  2  3  1  0  0  0  0
  3  4  1  0  0  0  0
  3 84  1  0  0  0  0
  3 85  1  0  0  0  0
  4  5  1  0  0  0  0
  4 86  1  0  0  0  0
  4 87  1  0  0  0  0
  5 88  1  0  0  0  0
  5 89  1  0  0  0  0
  6  5  1  0  0  0  0
  6  7  1  0  0  0  0
  6 90  1  6  0  0  0
  7  8  1  0  0  0  0
  7 91  1  0  0  0  0
  7 92  1  0  0  0  0
  8  9  1  0  0  0  0
  8 93  1  0  0  0  0
  8 94  1  0  0  0  0
  9 10  1  0  0  0  0
  9 95  1  0  0  0  0
  9 96  1  0  0  0  0
 10 11  1  0  0  0  0
 10 97  1  0  0  0  0
 10 98  1  0  0  0  0
 11 12  1  0  0  0  0
 11 99  1  0  0  0  0
 11100  1  0  0  0  0
 12 13  1  0  0  0  0
 12101  1  0  0  0  0
 12102  1  0  0  0  0
 13 14  1  0  0  0  0
 13103  1  0  0  0  0
 13104  1  0  0  0  0
 14 15  1  0  0  0  0
 14105  1  0  0  0  0
 14106  1  0  0  0  0
 15 16  1  0  0  0  0
 15107  1  0  0  0  0
 15108  1  0  0  0  0
 16 17  2  0  0  0  0
 16 18  1  0  0  0  0
 19 18  1  0  0  0  0
 19 20  1  0  0  0  0
 19109  1  1  0  0  0
 20 21  1  0  0  0  0
 20 32  1  0  0  0  0
 20110  1  6  0  0  0
 22 21  1  0  0  0  0
 22 23  1  0  0  0  0
 22111  1  1  0  0  0
 23 24  1  0  0  0  0
 23 25  1  0  0  0  0
 23112  1  6  0  0  0
 24  6  1  0  0  0  0
 25 26  1  0  0  0  0
 26 27  1  0  0  0  0
 26 28  1  0  0  0  0
 26113  1  6  0  0  0
 27114  1  0  0  0  0
 27115  1  0  0  0  0
 27116  1  0  0  0  0
 28 29  1  0  0  0  0
 28 30  1  0  0  0  0
 28117  1  6  0  0  0
 29118  1  0  0  0  0
 30 31  1  0  0  0  0
 30 22  1  0  0  0  0
 30119  1  6  0  0  0
 31120  1  0  0  0  0
 32 33  1  0  0  0  0
 33 34  1  0  0  0  0
 33 35  1  0  0  0  0
 33121  1  1  0  0  0
 34122  1  0  0  0  0
 34123  1  0  0  0  0
 34124  1  0  0  0  0
 35 36  1  0  0  0  0
 35 79  1  0  0  0  0
 35125  1  6  0  0  0
 37 36  1  0  0  0  0
 37 38  1  0  0  0  0
 37126  1  1  0  0  0
 38 39  1  0  0  0  0
 39 40  1  0  0  0  0
 39 41  1  0  0  0  0
 39127  1  6  0  0  0
 40128  1  0  0  0  0
 40129  1  0  0  0  0
 40130  1  0  0  0  0
 41 42  1  0  0  0  0
 41 59  1  0  0  0  0
 41131  1  1  0  0  0
 43 42  1  0  0  0  0
 43 44  1  0  0  0  0
 43132  1  6  0  0  0
 44 45  1  0  0  0  0
 45 46  1  0  0  0  0
 45 47  1  0  0  0  0
 45133  1  1  0  0  0
 46134  1  0  0  0  0
 46135  1  0  0  0  0
 46136  1  0  0  0  0
 47 48  1  0  0  0  0
 47 55  1  0  0  0  0
 47137  1  6  0  0  0
 48 49  1  0  0  0  0
 49 50  2  0  0  0  0
 49 51  1  0  0  0  0
 51 52  1  0  0  0  0
 51 53  1  0  0  0  0
 51138  1  6  0  0  0
 52139  1  0  0  0  0
 52140  1  0  0  0  0
 52141  1  0  0  0  0
 53 54  1  0  0  0  0
 53142  1  0  0  0  0
 53143  1  0  0  0  0
 54144  1  0  0  0  0
 54145  1  0  0  0  0
 54146  1  0  0  0  0
 55 56  1  0  0  0  0
 55 57  1  0  0  0  0
 55147  1  1  0  0  0
 56148  1  0  0  0  0
 57 58  1  0  0  0  0
 57 43  1  0  0  0  0
 57149  1  1  0  0  0
 58150  1  0  0  0  0
 59 60  1  0  0  0  0
 59 71  1  0  0  0  0
 59151  1  6  0  0  0
 61 60  1  0  0  0  0
 61 62  1  0  0  0  0
 61152  1  6  0  0  0
 62 63  1  0  0  0  0
 63 64  1  0  0  0  0
 63 65  1  0  0  0  0
 63153  1  1  0  0  0
 64154  1  0  0  0  0
 64155  1  0  0  0  0
 64156  1  0  0  0  0
 65 66  1  0  0  0  0
 65 67  1  0  0  0  0
 65157  1  1  0  0  0
 66158  1  0  0  0  0
 67 68  1  0  0  0  0
 67 69  1  0  0  0  0
 67159  1  1  0  0  0
 68160  1  0  0  0  0
 69 70  1  0  0  0  0
 69 61  1  0  0  0  0
 69161  1  1  0  0  0
 70162  1  0  0  0  0
 71 72  1  0  0  0  0
 71 37  1  0  0  0  0
 71163  1  6  0  0  0
 72 73  1  0  0  0  0
 73 74  2  0  0  0  0
 73 75  1  0  0  0  0
 75 76  1  0  0  0  0
 75 77  1  0  0  0  0
 75164  1  1  0  0  0
 76165  1  0  0  0  0
 76166  1  0  0  0  0
 76167  1  0  0  0  0
 77 78  1  0  0  0  0
 77168  1  0  0  0  0
 77169  1  0  0  0  0
 78170  1  0  0  0  0
 78171  1  0  0  0  0
 78172  1  0  0  0  0
 79 80  1  0  0  0  0
 79 19  1  0  0  0  0
 79173  1  1  0  0  0
 80174  1  0  0  0  0
M  END
>  <IDENTIFIER>
CNP0263501.1

>  <Energy>
11260.9

$$$$
