
 OpenBabel09042523023D

 46 48  0  0  0  0  0  0  0  0999 V2000
   -2.9178   -0.5325   -2.2173 C   0  0  0  0  0  0  0  0  0  0  0  0
   -2.5399   -0.3376   -0.9306 C   0  0  0  0  0  0  0  0  0  0  0  0
   -1.4121   -1.1491   -0.2295 C   0  0  1  0  0  0  0  0  0  0  0  0
   -0.5094   -1.8310   -1.3427 C   0  0  0  0  0  0  0  0  0  0  0  0
    0.9300   -1.9785   -0.9641 C   0  0  0  0  0  0  0  0  0  0  0  0
    1.4940   -0.9143   -0.3776 C   0  0  0  0  0  0  0  0  0  0  0  0
    2.8494   -0.8558    0.1990 C   0  0  1  0  0  0  0  0  0  0  0  0
    3.7957   -0.6735   -0.8379 O   0  0  0  0  0  0  0  0  0  0  0  0
    4.9490   -1.4408   -0.5864 C   0  0  0  0  0  0  0  0  0  0  0  0
    2.8521    0.2491    1.0811 O   0  0  0  0  0  0  0  0  0  0  0  0
    1.8037    1.1144    0.6781 C   0  0  1  0  0  0  0  0  0  0  0  0
    2.3461    2.0297   -0.2632 O   0  0  0  0  0  0  0  0  0  0  0  0
    2.3339    3.3430    0.2490 C   0  0  0  0  0  0  0  0  0  0  0  0
    0.7044    0.2863   -0.0178 C   0  0  2  0  0  0  0  0  0  0  0  0
   -0.5302   -0.2625    0.7933 C   0  0  2  0  0  0  0  0  0  0  0  0
   -0.0427   -1.1590    1.9832 C   0  0  0  0  0  0  0  0  0  0  0  0
   -1.3672    0.8696    1.4743 C   0  0  0  0  0  0  0  0  0  0  0  0
   -2.2435    1.6583    0.5059 C   0  0  0  0  0  0  0  0  0  0  0  0
   -3.2738    0.7342   -0.1581 C   0  0  2  0  0  0  0  0  0  0  0  0
   -4.2744    0.1036    0.8249 C   0  0  0  0  0  0  0  0  0  0  0  0
   -2.4847   -1.2863   -2.8618 H   0  0  0  0  0  0  0  0  0  0  0  0
   -3.7140    0.0556   -2.6634 H   0  0  0  0  0  0  0  0  0  0  0  0
   -1.9208   -1.9128    0.3973 H   0  0  0  0  0  0  0  0  0  0  0  0
   -0.4060   -1.1036   -2.1788 H   0  0  0  0  0  0  0  0  0  0  0  0
   -0.9593   -2.7551   -1.7629 H   0  0  0  0  0  0  0  0  0  0  0  0
    1.4745   -2.9050   -1.1170 H   0  0  0  0  0  0  0  0  0  0  0  0
    2.9897   -1.7837    0.8056 H   0  0  0  0  0  0  0  0  0  0  0  0
    5.7166   -1.1751   -1.3423 H   0  0  0  0  0  0  0  0  0  0  0  0
    4.7290   -2.5250   -0.7008 H   0  0  0  0  0  0  0  0  0  0  0  0
    5.3828   -1.2129    0.4130 H   0  0  0  0  0  0  0  0  0  0  0  0
    1.3795    1.6161    1.5748 H   0  0  0  0  0  0  0  0  0  0  0  0
    2.8271    4.0118   -0.4853 H   0  0  0  0  0  0  0  0  0  0  0  0
    2.9146    3.4117    1.1964 H   0  0  0  0  0  0  0  0  0  0  0  0
    1.2898    3.7036    0.3826 H   0  0  0  0  0  0  0  0  0  0  0  0
    0.3157    0.8507   -0.8949 H   0  0  0  0  0  0  0  0  0  0  0  0
    0.5950   -0.5755    2.6812 H   0  0  0  0  0  0  0  0  0  0  0  0
    0.5245   -2.0553    1.6637 H   0  0  0  0  0  0  0  0  0  0  0  0
   -0.9100   -1.5468    2.5599 H   0  0  0  0  0  0  0  0  0  0  0  0
   -0.7152    1.5647    2.0367 H   0  0  0  0  0  0  0  0  0  0  0  0
   -2.0400    0.4402    2.2433 H   0  0  0  0  0  0  0  0  0  0  0  0
   -1.6090    2.1474   -0.2649 H   0  0  0  0  0  0  0  0  0  0  0  0
   -2.7777    2.4583    1.0631 H   0  0  0  0  0  0  0  0  0  0  0  0
   -3.8890    1.3658   -0.8391 H   0  0  0  0  0  0  0  0  0  0  0  0
   -3.7977   -0.6003    1.5353 H   0  0  0  0  0  0  0  0  0  0  0  0
   -5.0358   -0.4712    0.2553 H   0  0  0  0  0  0  0  0  0  0  0  0
   -4.7992    0.9003    1.3939 H   0  0  0  0  0  0  0  0  0  0  0  0
  1  2  2  0  0  0  0
  1 21  1  0  0  0  0
  1 22  1  0  0  0  0
  2  3  1  0  0  0  0
  3  4  1  0  0  0  0
  3 23  1  1  0  0  0
  4  5  1  0  0  0  0
  4 24  1  0  0  0  0
  4 25  1  0  0  0  0
  5  6  2  0  0  0  0
  5 26  1  0  0  0  0
  6  7  1  0  0  0  0
  7  8  1  0  0  0  0
  7 10  1  0  0  0  0
  7 27  1  1  0  0  0
  8  9  1  0  0  0  0
  9 28  1  0  0  0  0
  9 29  1  0  0  0  0
  9 30  1  0  0  0  0
 10 11  1  0  0  0  0
 11 12  1  0  0  0  0
 11 14  1  0  0  0  0
 11 31  1  1  0  0  0
 12 13  1  0  0  0  0
 13 32  1  0  0  0  0
 13 33  1  0  0  0  0
 13 34  1  0  0  0  0
 14 15  1  0  0  0  0
 14  6  1  0  0  0  0
 14 35  1  6  0  0  0
 15 16  1  1  0  0  0
 15 17  1  0  0  0  0
 15  3  1  0  0  0  0
 16 36  1  0  0  0  0
 16 37  1  0  0  0  0
 16 38  1  0  0  0  0
 17 18  1  0  0  0  0
 17 39  1  0  0  0  0
 17 40  1  0  0  0  0
 18 19  1  0  0  0  0
 18 41  1  0  0  0  0
 18 42  1  0  0  0  0
 19 20  1  0  0  0  0
 19  2  1  0  0  0  0
 19 43  1  6  0  0  0
 20 44  1  0  0  0  0
 20 45  1  0  0  0  0
 20 46  1  0  0  0  0
M  END
>  <IDENTIFIER>
CNP0249711.2

>  <Energy>
584.511

$$$$
