
 OpenBabel09122513153D

 77 77  0  0  0  0  0  0  0  0999 V2000
   10.7497    0.4326   -0.1740 C   0  0  0  0  0  0  0  0  0  0  0  0
    9.8479   -0.6675   -0.6700 C   0  0  0  0  0  0  0  0  0  0  0  0
    8.5259   -0.7915   -0.3669 C   0  0  0  0  0  0  0  0  0  0  0  0
    7.8096   -1.9760   -0.9630 C   0  0  0  0  0  0  0  0  0  0  0  0
    7.8696    0.2109    0.5517 C   0  0  0  0  0  0  0  0  0  0  0  0
    6.5861    0.3966    0.9913 C   0  0  0  0  0  0  0  0  0  0  0  0
    6.3734    1.5242    1.9946 C   0  0  0  0  0  0  0  0  0  0  0  0
    5.2968   -0.3604    0.6280 C   0  0  2  0  0  0  0  0  0  0  0  0
    5.4230   -1.7305    0.9021 O   0  0  0  0  0  0  0  0  0  0  0  0
    4.7274   -0.1096   -0.8115 C   0  0  2  0  0  0  0  0  0  0  0  0
    5.1082    1.2420   -1.4487 C   0  0  0  0  0  0  0  0  0  0  0  0
    3.2171   -0.3448   -0.8967 C   0  0  0  0  0  0  0  0  0  0  0  0
    2.2103    0.3466   -0.2764 C   0  0  0  0  0  0  0  0  0  0  0  0
    2.4829    1.5058    0.6514 C   0  0  0  0  0  0  0  0  0  0  0  0
    0.7943   -0.0779   -0.5985 C   0  0  0  0  0  0  0  0  0  0  0  0
   -0.4150    0.3615   -0.1290 C   0  0  0  0  0  0  0  0  0  0  0  0
   -0.6788    1.4210    0.9259 C   0  0  0  0  0  0  0  0  0  0  0  0
   -1.6818   -0.2207   -0.7312 C   0  0  0  0  0  0  0  0  0  0  0  0
   -2.4845   -1.0059    0.2928 C   0  0  0  0  0  0  0  0  0  0  0  0
   -1.8881   -2.2929    0.8045 C   0  0  0  0  0  0  0  0  0  0  0  0
   -3.6900   -0.6322    0.7885 C   0  0  0  0  0  0  0  0  0  0  0  0
   -4.4547    0.6399    0.4951 C   0  0  0  0  0  0  0  0  0  0  0  0
   -5.8790    0.3592    0.0479 C   0  0  0  0  0  0  0  0  0  0  0  0
   -6.1981   -0.1394   -1.2378 C   0  0  0  0  0  0  0  0  0  0  0  0
   -5.1522   -0.4440   -2.2834 C   0  0  0  0  0  0  0  0  0  0  0  0
   -7.5514   -0.3410   -1.5712 C   0  0  0  0  0  0  0  0  0  0  0  0
   -7.8276   -0.7588   -2.6839 O   0  0  0  0  0  0  0  0  0  0  0  0
   -8.5774   -0.0623   -0.6353 C   0  0  0  0  0  0  0  0  0  0  0  0
   -9.9005   -0.2300   -0.9180 O   0  0  0  0  0  0  0  0  0  0  0  0
  -10.4833   -0.6056   -2.1106 C   0  0  0  0  0  0  0  0  0  0  0  0
   -8.2057    0.4207    0.6422 C   0  0  0  0  0  0  0  0  0  0  0  0
   -9.0996    0.7071    1.6323 O   0  0  0  0  0  0  0  0  0  0  0  0
  -10.4705    0.5554    1.6221 C   0  0  0  0  0  0  0  0  0  0  0  0
   -6.8893    0.6190    0.9277 N   0  0  0  0  0  0  0  0  0  0  0  0
   11.7717    0.2953   -0.5848 H   0  0  0  0  0  0  0  0  0  0  0  0
   10.8160    0.4087    0.9342 H   0  0  0  0  0  0  0  0  0  0  0  0
   10.3685    1.4206   -0.5093 H   0  0  0  0  0  0  0  0  0  0  0  0
   10.3219   -1.3951   -1.3227 H   0  0  0  0  0  0  0  0  0  0  0  0
    8.4874   -2.6256   -1.5571 H   0  0  0  0  0  0  0  0  0  0  0  0
    7.0470   -1.6411   -1.6723 H   0  0  0  0  0  0  0  0  0  0  0  0
    7.3904   -2.6136   -0.1632 H   0  0  0  0  0  0  0  0  0  0  0  0
    8.5726    0.9209    0.9658 H   0  0  0  0  0  0  0  0  0  0  0  0
    7.3003    2.0726    2.2655 H   0  0  0  0  0  0  0  0  0  0  0  0
    5.9484    1.1117    2.9341 H   0  0  0  0  0  0  0  0  0  0  0  0
    5.6668    2.2690    1.5756 H   0  0  0  0  0  0  0  0  0  0  0  0
    4.5481    0.0330    1.3414 H   0  0  0  0  0  0  0  0  0  0  0  0
    4.5072   -2.0934    1.0292 H   0  0  0  0  0  0  0  0  0  0  0  0
    5.1769   -0.8511   -1.4846 H   0  0  0  0  0  0  0  0  0  0  0  0
    4.7421    2.1279   -0.9056 H   0  0  0  0  0  0  0  0  0  0  0  0
    4.7057    1.2862   -2.4840 H   0  0  0  0  0  0  0  0  0  0  0  0
    6.2122    1.3258   -1.5272 H   0  0  0  0  0  0  0  0  0  0  0  0
    2.9386   -1.1644   -1.5562 H   0  0  0  0  0  0  0  0  0  0  0  0
    3.5331    1.7836    0.7678 H   0  0  0  0  0  0  0  0  0  0  0  0
    2.1462    1.2447    1.6740 H   0  0  0  0  0  0  0  0  0  0  0  0
    1.9842    2.4155    0.2569 H   0  0  0  0  0  0  0  0  0  0  0  0
    0.7343   -0.8576   -1.3543 H   0  0  0  0  0  0  0  0  0  0  0  0
    0.1754    1.9008    1.3974 H   0  0  0  0  0  0  0  0  0  0  0  0
   -1.2670    0.9747    1.7542 H   0  0  0  0  0  0  0  0  0  0  0  0
   -1.2805    2.2369    0.4730 H   0  0  0  0  0  0  0  0  0  0  0  0
   -1.4769   -0.9065   -1.5821 H   0  0  0  0  0  0  0  0  0  0  0  0
   -2.2310    0.6325   -1.1628 H   0  0  0  0  0  0  0  0  0  0  0  0
   -0.9037   -2.4987    0.3338 H   0  0  0  0  0  0  0  0  0  0  0  0
   -2.5681   -3.1411    0.5763 H   0  0  0  0  0  0  0  0  0  0  0  0
   -1.7418   -2.2287    1.9042 H   0  0  0  0  0  0  0  0  0  0  0  0
   -4.1570   -1.2835    1.5253 H   0  0  0  0  0  0  0  0  0  0  0  0
   -3.9733    1.3367   -0.2129 H   0  0  0  0  0  0  0  0  0  0  0  0
   -4.4809    1.1790    1.4659 H   0  0  0  0  0  0  0  0  0  0  0  0
   -4.1267   -0.2485   -1.9464 H   0  0  0  0  0  0  0  0  0  0  0  0
   -5.3310    0.1850   -3.1811 H   0  0  0  0  0  0  0  0  0  0  0  0
   -5.2120   -1.5142   -2.5724 H   0  0  0  0  0  0  0  0  0  0  0  0
  -11.5848   -0.6216   -1.9815 H   0  0  0  0  0  0  0  0  0  0  0  0
  -10.1539   -1.6249   -2.4019 H   0  0  0  0  0  0  0  0  0  0  0  0
  -10.2382    0.1312   -2.9054 H   0  0  0  0  0  0  0  0  0  0  0  0
  -10.8734    0.8677    2.6072 H   0  0  0  0  0  0  0  0  0  0  0  0
  -10.7386   -0.5109    1.4624 H   0  0  0  0  0  0  0  0  0  0  0  0
  -10.9270    1.2009    0.8427 H   0  0  0  0  0  0  0  0  0  0  0  0
   -6.6570    0.9829    1.8800 H   0  0  0  0  0  0  0  0  0  0  0  0
  1  2  1  0  0  0  0
  1 35  1  0  0  0  0
  1 36  1  0  0  0  0
  1 37  1  0  0  0  0
  2  3  2  3  0  0  0
  2 38  1  0  0  0  0
  3  4  1  0  0  0  0
  3  5  1  0  0  0  0
  4 39  1  0  0  0  0
  4 40  1  0  0  0  0
  4 41  1  0  0  0  0
  5  6  2  3  0  0  0
  5 42  1  0  0  0  0
  6  7  1  0  0  0  0
  6  8  1  0  0  0  0
  7 43  1  0  0  0  0
  7 44  1  0  0  0  0
  7 45  1  0  0  0  0
  8  9  1  0  0  0  0
  8 10  1  0  0  0  0
  8 46  1  1  0  0  0
  9 47  1  0  0  0  0
 10 11  1  0  0  0  0
 10 12  1  0  0  0  0
 10 48  1  6  0  0  0
 11 49  1  0  0  0  0
 11 50  1  0  0  0  0
 11 51  1  0  0  0  0
 12 13  2  3  0  0  0
 12 52  1  0  0  0  0
 13 14  1  0  0  0  0
 13 15  1  0  0  0  0
 14 53  1  0  0  0  0
 14 54  1  0  0  0  0
 14 55  1  0  0  0  0
 15 16  2  3  0  0  0
 15 56  1  0  0  0  0
 16 17  1  0  0  0  0
 16 18  1  0  0  0  0
 17 57  1  0  0  0  0
 17 58  1  0  0  0  0
 17 59  1  0  0  0  0
 18 19  1  0  0  0  0
 18 60  1  0  0  0  0
 18 61  1  0  0  0  0
 19 20  1  0  0  0  0
 19 21  2  3  0  0  0
 20 62  1  0  0  0  0
 20 63  1  0  0  0  0
 20 64  1  0  0  0  0
 21 22  1  0  0  0  0
 21 65  1  0  0  0  0
 22 23  1  0  0  0  0
 22 66  1  0  0  0  0
 22 67  1  0  0  0  0
 23 24  2  0  0  0  0
 24 25  1  0  0  0  0
 24 26  1  0  0  0  0
 25 68  1  0  0  0  0
 25 69  1  0  0  0  0
 25 70  1  0  0  0  0
 26 27  2  0  0  0  0
 26 28  1  0  0  0  0
 28 29  1  0  0  0  0
 28 31  2  0  0  0  0
 29 30  1  0  0  0  0
 30 71  1  0  0  0  0
 30 72  1  0  0  0  0
 30 73  1  0  0  0  0
 31 32  1  0  0  0  0
 31 34  1  0  0  0  0
 32 33  1  0  0  0  0
 33 74  1  0  0  0  0
 33 75  1  0  0  0  0
 33 76  1  0  0  0  0
 34 23  1  0  0  0  0
 34 77  1  0  0  0  0
M  END
>  <IDENTIFIER>
CNP0584282.0

>  <Energy>
549.501

$$$$
