
 OpenBabel09102510453D

 89 88  0  0  0  0  0  0  0  0999 V2000
    7.8283   -3.1065    2.1103 C   0  0  0  0  0  0  0  0  0  0  0  0
    6.4200   -2.5793    2.3697 C   0  0  0  0  0  0  0  0  0  0  0  0
    5.5546   -2.6955    1.1077 C   0  0  0  0  0  0  0  0  0  0  0  0
    4.1064   -2.2188    1.3176 C   0  0  0  0  0  0  0  0  0  0  0  0
    3.9586   -0.7429    1.7378 C   0  0  0  0  0  0  0  0  0  0  0  0
    4.6192    0.2765    0.7934 C   0  0  0  0  0  0  0  0  0  0  0  0
    4.0765    0.2167   -0.6445 C   0  0  0  0  0  0  0  0  0  0  0  0
    4.7362    1.2529   -1.5594 C   0  0  0  0  0  0  0  0  0  0  0  0
    4.7019    2.7454   -1.1503 C   0  0  0  0  0  0  0  0  0  0  0  0
    3.3891    3.5517   -1.3000 C   0  0  0  0  0  0  0  0  0  0  0  0
    2.3844    3.6328   -0.1219 C   0  0  0  0  0  0  0  0  0  0  0  0
    1.4830    2.4236    0.1844 C   0  0  0  0  0  0  0  0  0  0  0  0
    0.7138    1.8505   -1.0275 C   0  0  0  0  0  0  0  0  0  0  0  0
   -0.1640    2.8782   -1.7023 C   0  0  0  0  0  0  0  0  0  0  0  0
   -1.4856    2.9872   -2.0174 C   0  0  0  0  0  0  0  0  0  0  0  0
   -2.8305    2.2767   -1.9417 C   0  0  0  0  0  0  0  0  0  0  0  0
   -3.7234    2.9387   -2.4579 O   0  0  0  0  0  0  0  0  0  0  0  0
   -3.1848    1.0392   -1.4215 N   0  0  0  0  0  0  0  0  0  0  0  0
   -2.2513    0.0961   -0.8334 C   0  0  0  0  0  0  0  0  0  0  0  0
   -1.3918   -0.6114   -1.9018 C   0  0  0  0  0  0  0  0  0  0  0  0
   -2.1639   -1.5517   -2.8532 C   0  0  0  0  0  0  0  0  0  0  0  0
   -2.5452   -2.9424   -2.2893 C   0  0  0  0  0  0  0  0  0  0  0  0
   -3.5457   -2.8799   -1.1956 N   0  0  0  0  0  0  0  0  0  0  0  0
   -4.7038   -3.7476   -1.4788 C   0  0  0  0  0  0  0  0  0  0  0  0
   -2.9573   -3.2802    0.0970 C   0  0  0  0  0  0  0  0  0  0  0  0
   -4.5878    0.6087   -1.5485 C   0  0  0  0  0  0  0  0  0  0  0  0
   -5.5985    1.4233   -0.7048 C   0  0  0  0  0  0  0  0  0  0  0  0
   -5.7183    0.9806    0.7637 C   0  0  0  0  0  0  0  0  0  0  0  0
   -4.5073    1.3011    1.6511 C   0  0  0  0  0  0  0  0  0  0  0  0
   -4.7363    0.8786    3.0514 N   0  0  0  0  0  0  0  0  0  0  0  0
   -4.7398   -0.5934    3.1899 C   0  0  0  0  0  0  0  0  0  0  0  0
   -3.6904    1.4383    3.9214 C   0  0  0  0  0  0  0  0  0  0  0  0
    8.4376   -3.0138    3.0337 H   0  0  0  0  0  0  0  0  0  0  0  0
    8.3156   -2.5198    1.3021 H   0  0  0  0  0  0  0  0  0  0  0  0
    7.7916   -4.1761    1.8127 H   0  0  0  0  0  0  0  0  0  0  0  0
    6.5013   -1.5179    2.6847 H   0  0  0  0  0  0  0  0  0  0  0  0
    5.9594   -3.1659    3.1938 H   0  0  0  0  0  0  0  0  0  0  0  0
    5.5159   -3.7627    0.7980 H   0  0  0  0  0  0  0  0  0  0  0  0
    6.0221   -2.1232    0.2784 H   0  0  0  0  0  0  0  0  0  0  0  0
    3.6241   -2.8506    2.0949 H   0  0  0  0  0  0  0  0  0  0  0  0
    3.5475   -2.3848    0.3726 H   0  0  0  0  0  0  0  0  0  0  0  0
    4.3926   -0.6038    2.7505 H   0  0  0  0  0  0  0  0  0  0  0  0
    2.8735   -0.5135    1.8154 H   0  0  0  0  0  0  0  0  0  0  0  0
    5.7193    0.1245    0.7808 H   0  0  0  0  0  0  0  0  0  0  0  0
    4.4257    1.2819    1.2213 H   0  0  0  0  0  0  0  0  0  0  0  0
    2.9867    0.3157   -0.6698 H   0  0  0  0  0  0  0  0  0  0  0  0
    4.2945   -0.7811   -1.0796 H   0  0  0  0  0  0  0  0  0  0  0  0
    4.3212    1.1470   -2.5857 H   0  0  0  0  0  0  0  0  0  0  0  0
    5.8118    0.9704   -1.6119 H   0  0  0  0  0  0  0  0  0  0  0  0
    5.3859    3.2085   -1.8983 H   0  0  0  0  0  0  0  0  0  0  0  0
    5.1736    2.9314   -0.1633 H   0  0  0  0  0  0  0  0  0  0  0  0
    2.8931    3.3246   -2.2665 H   0  0  0  0  0  0  0  0  0  0  0  0
    3.7393    4.6063   -1.3817 H   0  0  0  0  0  0  0  0  0  0  0  0
    1.7020    4.4774   -0.3569 H   0  0  0  0  0  0  0  0  0  0  0  0
    2.9260    3.9260    0.8039 H   0  0  0  0  0  0  0  0  0  0  0  0
    0.7498    2.7279    0.9630 H   0  0  0  0  0  0  0  0  0  0  0  0
    2.0912    1.6388    0.6573 H   0  0  0  0  0  0  0  0  0  0  0  0
    0.1998    0.9673   -0.6764 H   0  0  0  0  0  0  0  0  0  0  0  0
    1.4415    1.5026   -1.7880 H   0  0  0  0  0  0  0  0  0  0  0  0
    0.4226    3.7305   -2.0367 H   0  0  0  0  0  0  0  0  0  0  0  0
   -1.6394    3.9416   -2.5246 H   0  0  0  0  0  0  0  0  0  0  0  0
   -2.7923   -0.6773   -0.2705 H   0  0  0  0  0  0  0  0  0  0  0  0
   -1.6893    0.6216   -0.0439 H   0  0  0  0  0  0  0  0  0  0  0  0
   -0.5850   -1.2009   -1.4147 H   0  0  0  0  0  0  0  0  0  0  0  0
   -0.9158    0.1747   -2.5228 H   0  0  0  0  0  0  0  0  0  0  0  0
   -1.4718   -1.7672   -3.6972 H   0  0  0  0  0  0  0  0  0  0  0  0
   -3.0476   -1.0363   -3.2837 H   0  0  0  0  0  0  0  0  0  0  0  0
   -1.6227   -3.4832   -1.9769 H   0  0  0  0  0  0  0  0  0  0  0  0
   -2.9450   -3.5167   -3.1572 H   0  0  0  0  0  0  0  0  0  0  0  0
   -5.2003   -3.4328   -2.4215 H   0  0  0  0  0  0  0  0  0  0  0  0
   -5.4572   -3.6697   -0.6651 H   0  0  0  0  0  0  0  0  0  0  0  0
   -4.3909   -4.8128   -1.5761 H   0  0  0  0  0  0  0  0  0  0  0  0
   -2.0495   -2.6836    0.3239 H   0  0  0  0  0  0  0  0  0  0  0  0
   -2.6676   -4.3544    0.0933 H   0  0  0  0  0  0  0  0  0  0  0  0
   -3.6886   -3.1046    0.9162 H   0  0  0  0  0  0  0  0  0  0  0  0
   -4.7294   -0.4661   -1.3082 H   0  0  0  0  0  0  0  0  0  0  0  0
   -4.8649    0.7035   -2.6224 H   0  0  0  0  0  0  0  0  0  0  0  0
   -6.5970    1.2045   -1.1432 H   0  0  0  0  0  0  0  0  0  0  0  0
   -5.4478    2.5189   -0.7883 H   0  0  0  0  0  0  0  0  0  0  0  0
   -5.9334   -0.1060    0.7581 H   0  0  0  0  0  0  0  0  0  0  0  0
   -6.5966    1.5015    1.2046 H   0  0  0  0  0  0  0  0  0  0  0  0
   -4.3599    2.4040    1.6115 H   0  0  0  0  0  0  0  0  0  0  0  0
   -3.5923    0.8251    1.2665 H   0  0  0  0  0  0  0  0  0  0  0  0
   -5.6118   -1.0415    2.6756 H   0  0  0  0  0  0  0  0  0  0  0  0
   -4.8440   -0.8825    4.2577 H   0  0  0  0  0  0  0  0  0  0  0  0
   -3.8034   -1.0397    2.7865 H   0  0  0  0  0  0  0  0  0  0  0  0
   -3.7040    2.5482    3.8741 H   0  0  0  0  0  0  0  0  0  0  0  0
   -2.6818    1.0727    3.6244 H   0  0  0  0  0  0  0  0  0  0  0  0
   -3.8791    1.1570    4.9799 H   0  0  0  0  0  0  0  0  0  0  0  0
  1  2  1  0  0  0  0
  1 33  1  0  0  0  0
  1 34  1  0  0  0  0
  1 35  1  0  0  0  0
  2  3  1  0  0  0  0
  2 36  1  0  0  0  0
  2 37  1  0  0  0  0
  3  4  1  0  0  0  0
  3 38  1  0  0  0  0
  3 39  1  0  0  0  0
  4  5  1  0  0  0  0
  4 40  1  0  0  0  0
  4 41  1  0  0  0  0
  5  6  1  0  0  0  0
  5 42  1  0  0  0  0
  5 43  1  0  0  0  0
  6  7  1  0  0  0  0
  6 44  1  0  0  0  0
  6 45  1  0  0  0  0
  7  8  1  0  0  0  0
  7 46  1  0  0  0  0
  7 47  1  0  0  0  0
  8  9  1  0  0  0  0
  8 48  1  0  0  0  0
  8 49  1  0  0  0  0
  9 10  1  0  0  0  0
  9 50  1  0  0  0  0
  9 51  1  0  0  0  0
 10 11  1  0  0  0  0
 10 52  1  0  0  0  0
 10 53  1  0  0  0  0
 11 12  1  0  0  0  0
 11 54  1  0  0  0  0
 11 55  1  0  0  0  0
 12 13  1  0  0  0  0
 12 56  1  0  0  0  0
 12 57  1  0  0  0  0
 13 14  1  0  0  0  0
 13 58  1  0  0  0  0
 13 59  1  0  0  0  0
 14 15  2  3  0  0  0
 14 60  1  0  0  0  0
 15 16  1  0  0  0  0
 15 61  1  0  0  0  0
 16 17  2  0  0  0  0
 16 18  1  0  0  0  0
 18 19  1  0  0  0  0
 18 26  1  0  0  0  0
 19 20  1  0  0  0  0
 19 62  1  0  0  0  0
 19 63  1  0  0  0  0
 20 21  1  0  0  0  0
 20 64  1  0  0  0  0
 20 65  1  0  0  0  0
 21 22  1  0  0  0  0
 21 66  1  0  0  0  0
 21 67  1  0  0  0  0
 22 23  1  0  0  0  0
 22 68  1  0  0  0  0
 22 69  1  0  0  0  0
 23 24  1  0  0  0  0
 23 25  1  0  0  0  0
 24 70  1  0  0  0  0
 24 71  1  0  0  0  0
 24 72  1  0  0  0  0
 25 73  1  0  0  0  0
 25 74  1  0  0  0  0
 25 75  1  0  0  0  0
 26 27  1  0  0  0  0
 26 76  1  0  0  0  0
 26 77  1  0  0  0  0
 27 28  1  0  0  0  0
 27 78  1  0  0  0  0
 27 79  1  0  0  0  0
 28 29  1  0  0  0  0
 28 80  1  0  0  0  0
 28 81  1  0  0  0  0
 29 30  1  0  0  0  0
 29 82  1  0  0  0  0
 29 83  1  0  0  0  0
 30 31  1  0  0  0  0
 30 32  1  0  0  0  0
 31 84  1  0  0  0  0
 31 85  1  0  0  0  0
 31 86  1  0  0  0  0
 32 87  1  0  0  0  0
 32 88  1  0  0  0  0
 32 89  1  0  0  0  0
M  END
>  <IDENTIFIER>
CNP0167274.0

>  <Energy>
643.518

$$$$
