
 OpenBabel09042519583D

 48 47  0  0  0  0  0  0  0  0999 V2000
   -5.7686    0.8936    1.5761 C   0  0  0  0  0  0  0  0  0  0  0  0
   -5.1678   -0.4767    1.7468 C   0  0  0  0  0  0  0  0  0  0  0  0
   -5.3665   -1.0805    2.7907 O   0  0  0  0  0  0  0  0  0  0  0  0
   -4.3219   -1.1283    0.6675 C   0  0  1  0  0  0  0  0  0  0  0  0
   -5.1615   -1.3526   -0.5982 C   0  0  0  0  0  0  0  0  0  0  0  0
   -3.0627   -0.2687    0.3983 C   0  0  0  0  0  0  0  0  0  0  0  0
   -2.0531   -0.8381   -0.6273 C   0  0  2  0  0  0  0  0  0  0  0  0
   -1.4772   -2.1937   -0.1995 C   0  0  0  0  0  0  0  0  0  0  0  0
   -0.9240    0.1565   -0.7627 C   0  0  0  0  0  0  0  0  0  0  0  0
   -0.6434    0.7620   -1.9312 C   0  0  0  0  0  0  0  0  0  0  0  0
    0.4396    1.8023   -2.1459 C   0  0  0  0  0  0  0  0  0  0  0  0
    1.3447    2.1396   -0.9468 C   0  0  0  0  0  0  0  0  0  0  0  0
    2.2721    0.9866   -0.5996 C   0  0  0  0  0  0  0  0  0  0  0  0
    3.6324    0.9933   -0.6008 C   0  0  0  0  0  0  0  0  0  0  0  0
    4.4856    2.1918   -0.9739 C   0  0  0  0  0  0  0  0  0  0  0  0
    4.3644   -0.2893   -0.2296 C   0  0  0  0  0  0  0  0  0  0  0  0
    5.2340   -0.1242    1.0268 C   0  0  0  0  0  0  0  0  0  0  0  0
    5.9713   -1.3787    1.4458 C   0  0  0  0  0  0  0  0  0  0  0  0
    6.6771   -1.3308    2.4402 O   0  0  0  0  0  0  0  0  0  0  0  0
    5.8883   -2.5480    0.7687 O   0  0  0  0  0  0  0  0  0  0  0  0
   -6.3487    1.1792    2.4792 H   0  0  0  0  0  0  0  0  0  0  0  0
   -6.4530    0.9076    0.7038 H   0  0  0  0  0  0  0  0  0  0  0  0
   -4.9712    1.6502    1.4293 H   0  0  0  0  0  0  0  0  0  0  0  0
   -4.0059   -2.1235    1.0478 H   0  0  0  0  0  0  0  0  0  0  0  0
   -5.4817   -0.3866   -1.0423 H   0  0  0  0  0  0  0  0  0  0  0  0
   -6.0636   -1.9523   -0.3510 H   0  0  0  0  0  0  0  0  0  0  0  0
   -4.5872   -1.9195   -1.3584 H   0  0  0  0  0  0  0  0  0  0  0  0
   -2.5328   -0.1212    1.3667 H   0  0  0  0  0  0  0  0  0  0  0  0
   -3.3868    0.7286    0.0290 H   0  0  0  0  0  0  0  0  0  0  0  0
   -2.5550   -0.9670   -1.6102 H   0  0  0  0  0  0  0  0  0  0  0  0
   -0.9724   -2.1149    0.7873 H   0  0  0  0  0  0  0  0  0  0  0  0
   -0.7372   -2.5428   -0.9519 H   0  0  0  0  0  0  0  0  0  0  0  0
   -2.2738   -2.9626   -0.1391 H   0  0  0  0  0  0  0  0  0  0  0  0
   -0.3628    0.3827    0.1352 H   0  0  0  0  0  0  0  0  0  0  0  0
   -1.2492    0.5230   -2.8006 H   0  0  0  0  0  0  0  0  0  0  0  0
   -0.0867    2.7322   -2.4512 H   0  0  0  0  0  0  0  0  0  0  0  0
    1.0856    1.4858   -2.9932 H   0  0  0  0  0  0  0  0  0  0  0  0
    0.7237    2.4101   -0.0667 H   0  0  0  0  0  0  0  0  0  0  0  0
    1.8966    3.0515   -1.2171 H   0  0  0  0  0  0  0  0  0  0  0  0
    1.7827    0.0612   -0.3200 H   0  0  0  0  0  0  0  0  0  0  0  0
    3.9383    3.0953   -1.2792 H   0  0  0  0  0  0  0  0  0  0  0  0
    5.1439    1.9139   -1.8233 H   0  0  0  0  0  0  0  0  0  0  0  0
    5.1185    2.4905   -0.1152 H   0  0  0  0  0  0  0  0  0  0  0  0
    5.0000   -0.5895   -1.0906 H   0  0  0  0  0  0  0  0  0  0  0  0
    3.6393   -1.1101   -0.0349 H   0  0  0  0  0  0  0  0  0  0  0  0
    4.5815    0.1920    1.8699 H   0  0  0  0  0  0  0  0  0  0  0  0
    5.9974    0.6619    0.8529 H   0  0  0  0  0  0  0  0  0  0  0  0
    5.3606   -2.6741   -0.0289 H   0  0  0  0  0  0  0  0  0  0  0  0
  1  2  1  0  0  0  0
  1 21  1  0  0  0  0
  1 22  1  0  0  0  0
  1 23  1  0  0  0  0
  2  3  2  0  0  0  0
  2  4  1  0  0  0  0
  4  5  1  0  0  0  0
  4  6  1  0  0  0  0
  4 24  1  1  0  0  0
  5 25  1  0  0  0  0
  5 26  1  0  0  0  0
  5 27  1  0  0  0  0
  6  7  1  0  0  0  0
  6 28  1  0  0  0  0
  6 29  1  0  0  0  0
  7  8  1  0  0  0  0
  7  9  1  0  0  0  0
  7 30  1  6  0  0  0
  8 31  1  0  0  0  0
  8 32  1  0  0  0  0
  8 33  1  0  0  0  0
  9 10  2  0  0  0  0
  9 34  1  0  0  0  0
 10 11  1  0  0  0  0
 10 35  1  0  0  0  0
 11 12  1  0  0  0  0
 11 36  1  0  0  0  0
 11 37  1  0  0  0  0
 12 13  1  0  0  0  0
 12 38  1  0  0  0  0
 12 39  1  0  0  0  0
 13 14  2  0  0  0  0
 13 40  1  0  0  0  0
 14 15  1  0  0  0  0
 14 16  1  0  0  0  0
 15 41  1  0  0  0  0
 15 42  1  0  0  0  0
 15 43  1  0  0  0  0
 16 17  1  0  0  0  0
 16 44  1  0  0  0  0
 16 45  1  0  0  0  0
 17 18  1  0  0  0  0
 17 46  1  0  0  0  0
 17 47  1  0  0  0  0
 18 19  2  0  0  0  0
 18 20  1  0  0  0  0
 20 48  1  0  0  0  0
M  END
>  <IDENTIFIER>
CNP0393255.1

>  <Energy>
150.15

$$$$
