
 OpenBabel09072504533D

 79 84  0  0  0  0  0  0  0  0999 V2000
   -6.8069   -1.0634    2.6474 C   0  0  0  0  0  0  0  0  0  0  0  0
   -5.9256   -0.2229    1.7143 C   0  0  2  0  0  0  0  0  0  0  0  0
   -6.5516    1.1892    1.5095 C   0  0  0  0  0  0  0  0  0  0  0  0
   -7.4764    1.1966    0.2980 C   0  0  2  0  0  0  0  0  0  0  0  0
   -8.5473    0.2933    0.4581 O   0  0  0  0  0  0  0  0  0  0  0  0
   -6.5754    0.8578   -0.8569 C   0  0  0  0  0  0  0  0  0  0  0  0
   -6.5485    1.5671   -1.8502 O   0  0  0  0  0  0  0  0  0  0  0  0
   -5.5578   -0.2485   -0.6878 C   0  0  1  0  0  0  0  0  0  0  0  0
   -4.2654    0.3275   -0.7266 O   0  0  0  0  0  0  0  0  0  0  0  0
   -3.2984   -0.4932   -1.3719 C   0  0  2  0  0  0  0  0  0  0  0  0
   -2.5489   -1.3353   -0.2911 C   0  0  0  0  0  0  0  0  0  0  0  0
   -1.0201   -1.1475   -0.3543 C   0  0  2  0  0  0  0  0  0  0  0  0
   -0.2406   -2.0106    0.6797 C   0  0  0  0  0  0  0  0  0  0  0  0
    1.2549   -1.5897    0.8277 C   0  0  0  0  0  0  0  0  0  0  0  0
    1.7649   -0.9354   -0.4698 C   0  0  1  0  0  0  0  0  0  0  0  0
    0.9424    0.3941   -0.7775 C   0  0  2  0  0  0  0  0  0  0  0  0
    1.6230    1.6844   -0.2511 C   0  0  0  0  0  0  0  0  0  0  0  0
    3.0956    1.7605   -0.6194 C   0  0  0  0  0  0  0  0  0  0  0  0
    3.9210    0.5539   -0.0383 C   0  0  2  0  0  0  0  0  0  0  0  0
    3.9335    0.6838    1.5116 C   0  0  0  0  0  0  0  0  0  0  0  0
    5.3595    0.6153   -0.6833 C   0  0  1  0  0  0  0  0  0  0  0  0
    6.5512    0.3908    0.2486 C   0  0  0  0  0  0  0  0  0  0  0  0
    7.4059    1.3518    0.5750 C   0  0  0  0  0  0  0  0  0  0  0  0
    8.3561    0.7548    1.4781 C   0  0  0  0  0  0  0  0  0  0  0  0
    9.2826    1.3418    2.0122 O   0  0  0  0  0  0  0  0  0  0  0  0
    8.0878   -0.5447    1.6746 O   0  0  0  0  0  0  0  0  0  0  0  0
    6.9693   -0.8982    0.9448 C   0  0  0  0  0  0  0  0  0  0  0  0
    5.3366   -0.4179   -1.8352 C   0  0  0  0  0  0  0  0  0  0  0  0
    3.8618   -0.7659   -2.0376 C   0  0  0  0  0  0  0  0  0  0  0  0
    3.3319   -0.7871   -0.5780 C   0  0  2  0  0  0  0  0  0  0  0  0
    3.9512   -1.8672    0.0923 O   0  0  0  0  0  0  0  0  0  0  0  0
   -0.5881    0.3493   -0.2884 C   0  0  2  0  0  0  0  0  0  0  0  0
   -0.8130    0.8900    1.1719 C   0  0  0  0  0  0  0  0  0  0  0  0
   -1.4908    1.2563   -1.2112 C   0  0  0  0  0  0  0  0  0  0  0  0
   -2.3641    0.4548   -2.1853 C   0  0  1  0  0  0  0  0  0  0  0  0
   -1.5478   -0.2478   -3.0870 O   0  0  0  0  0  0  0  0  0  0  0  0
   -5.7263   -0.9845    0.5184 O   0  0  0  0  0  0  0  0  0  0  0  0
   -6.9405   -0.5478    3.6224 H   0  0  0  0  0  0  0  0  0  0  0  0
   -6.3153   -2.0423    2.8415 H   0  0  0  0  0  0  0  0  0  0  0  0
   -7.8045   -1.2627    2.2117 H   0  0  0  0  0  0  0  0  0  0  0  0
   -4.9586   -0.0979    2.2490 H   0  0  0  0  0  0  0  0  0  0  0  0
   -5.7304    1.9100    1.2897 H   0  0  0  0  0  0  0  0  0  0  0  0
   -7.0456    1.5559    2.4347 H   0  0  0  0  0  0  0  0  0  0  0  0
   -7.9108    2.2086    0.1337 H   0  0  0  0  0  0  0  0  0  0  0  0
   -8.3613   -0.5414   -0.0475 H   0  0  0  0  0  0  0  0  0  0  0  0
   -5.7620   -0.9377   -1.5363 H   0  0  0  0  0  0  0  0  0  0  0  0
   -3.7474   -1.1679   -2.1358 H   0  0  0  0  0  0  0  0  0  0  0  0
   -2.8203   -2.4082   -0.4013 H   0  0  0  0  0  0  0  0  0  0  0  0
   -2.8922   -1.0377    0.7206 H   0  0  0  0  0  0  0  0  0  0  0  0
   -0.7183   -1.5349   -1.3493 H   0  0  0  0  0  0  0  0  0  0  0  0
   -0.3068   -3.0582    0.3096 H   0  0  0  0  0  0  0  0  0  0  0  0
   -0.6973   -1.9920    1.6919 H   0  0  0  0  0  0  0  0  0  0  0  0
    1.8191   -2.5005    1.1192 H   0  0  0  0  0  0  0  0  0  0  0  0
    1.4023   -0.8753    1.6489 H   0  0  0  0  0  0  0  0  0  0  0  0
    1.5085   -1.7116   -1.2269 H   0  0  0  0  0  0  0  0  0  0  0  0
    0.9737    0.4498   -1.8893 H   0  0  0  0  0  0  0  0  0  0  0  0
    1.5557    1.7611    0.8433 H   0  0  0  0  0  0  0  0  0  0  0  0
    1.1047    2.5756   -0.6658 H   0  0  0  0  0  0  0  0  0  0  0  0
    3.5145    2.7169   -0.2352 H   0  0  0  0  0  0  0  0  0  0  0  0
    3.1592    1.8429   -1.7212 H   0  0  0  0  0  0  0  0  0  0  0  0
    4.4044    1.6450    1.8082 H   0  0  0  0  0  0  0  0  0  0  0  0
    4.4811   -0.1363    1.9971 H   0  0  0  0  0  0  0  0  0  0  0  0
    2.9329    0.6489    1.9669 H   0  0  0  0  0  0  0  0  0  0  0  0
    5.4807    1.6363   -1.1129 H   0  0  0  0  0  0  0  0  0  0  0  0
    7.3774    2.3821    0.2440 H   0  0  0  0  0  0  0  0  0  0  0  0
    6.1984   -1.3000    1.6252 H   0  0  0  0  0  0  0  0  0  0  0  0
    7.2417   -1.6829    0.2110 H   0  0  0  0  0  0  0  0  0  0  0  0
    5.7911   -1.3642   -1.4764 H   0  0  0  0  0  0  0  0  0  0  0  0
    5.9054   -0.1256   -2.7434 H   0  0  0  0  0  0  0  0  0  0  0  0
    3.7273   -1.7259   -2.5817 H   0  0  0  0  0  0  0  0  0  0  0  0
    3.3666    0.0060   -2.6530 H   0  0  0  0  0  0  0  0  0  0  0  0
    3.7268   -2.7012   -0.3985 H   0  0  0  0  0  0  0  0  0  0  0  0
   -0.5881    1.9743    1.2397 H   0  0  0  0  0  0  0  0  0  0  0  0
   -0.2280    0.3854    1.9551 H   0  0  0  0  0  0  0  0  0  0  0  0
   -1.8746    0.7931    1.4746 H   0  0  0  0  0  0  0  0  0  0  0  0
   -0.8922    2.0310   -1.7338 H   0  0  0  0  0  0  0  0  0  0  0  0
   -2.2224    1.8319   -0.5992 H   0  0  0  0  0  0  0  0  0  0  0  0
   -2.9887    1.1677   -2.7731 H   0  0  0  0  0  0  0  0  0  0  0  0
   -2.1462   -0.6237   -3.7837 H   0  0  0  0  0  0  0  0  0  0  0  0
  1 38  1  0  0  0  0
  1 39  1  0  0  0  0
  1 40  1  0  0  0  0
  2  1  1  0  0  0  0
  2  3  1  0  0  0  0
  2 41  1  1  0  0  0
  3  4  1  0  0  0  0
  3 42  1  0  0  0  0
  3 43  1  0  0  0  0
  4  5  1  0  0  0  0
  4  6  1  0  0  0  0
  4 44  1  6  0  0  0
  5 45  1  0  0  0  0
  6  7  2  0  0  0  0
  6  8  1  0  0  0  0
  8  9  1  0  0  0  0
  8 37  1  0  0  0  0
  8 46  1  6  0  0  0
 10  9  1  0  0  0  0
 10 11  1  0  0  0  0
 10 47  1  6  0  0  0
 11 48  1  0  0  0  0
 11 49  1  0  0  0  0
 12 11  1  0  0  0  0
 12 13  1  0  0  0  0
 12 50  1  6  0  0  0
 13 14  1  0  0  0  0
 13 51  1  0  0  0  0
 13 52  1  0  0  0  0
 14 53  1  0  0  0  0
 14 54  1  0  0  0  0
 15 14  1  0  0  0  0
 15 16  1  0  0  0  0
 15 55  1  6  0  0  0
 16 17  1  0  0  0  0
 16 32  1  0  0  0  0
 16 56  1  6  0  0  0
 17 18  1  0  0  0  0
 17 57  1  0  0  0  0
 17 58  1  0  0  0  0
 18 19  1  0  0  0  0
 18 59  1  0  0  0  0
 18 60  1  0  0  0  0
 19 20  1  1  0  0  0
 19 21  1  0  0  0  0
 20 61  1  0  0  0  0
 20 62  1  0  0  0  0
 20 63  1  0  0  0  0
 21 22  1  0  0  0  0
 21 28  1  0  0  0  0
 21 64  1  6  0  0  0
 22 23  2  0  0  0  0
 23 24  1  0  0  0  0
 23 65  1  0  0  0  0
 24 25  2  0  0  0  0
 24 26  1  0  0  0  0
 26 27  1  0  0  0  0
 27 22  1  0  0  0  0
 27 66  1  0  0  0  0
 27 67  1  0  0  0  0
 28 29  1  0  0  0  0
 28 68  1  0  0  0  0
 28 69  1  0  0  0  0
 29 30  1  0  0  0  0
 29 70  1  0  0  0  0
 29 71  1  0  0  0  0
 30 31  1  1  0  0  0
 30 15  1  0  0  0  0
 30 19  1  0  0  0  0
 31 72  1  0  0  0  0
 32 33  1  1  0  0  0
 32 34  1  0  0  0  0
 32 12  1  0  0  0  0
 33 73  1  0  0  0  0
 33 74  1  0  0  0  0
 33 75  1  0  0  0  0
 34 35  1  0  0  0  0
 34 76  1  0  0  0  0
 34 77  1  0  0  0  0
 35 36  1  0  0  0  0
 35 10  1  0  0  0  0
 35 78  1  6  0  0  0
 36 79  1  0  0  0  0
 37  2  1  0  0  0  0
M  END
>  <IDENTIFIER>
CNP0178323.1

>  <Energy>
1257.32

$$$$
