
 OpenBabel09102506423D

106111  0  0  0  0  0  0  0  0999 V2000
   -2.3110    2.1172   -0.6353 O   0  0  0  0  0  0  0  0  0  0  0  0
   -3.0382    1.6642   -1.4992 C   0  0  0  0  0  0  0  0  0  0  0  0
   -3.1978    2.3719   -2.6388 O   0  0  0  0  0  0  0  0  0  0  0  0
   -3.7822    0.3337   -1.2989 C   0  0  1  0  0  0  0  0  0  0  0  0
   -2.8219   -0.9296   -1.3363 C   0  0  0  0  0  0  0  0  0  0  0  0
   -1.5070   -0.6150   -2.0519 C   0  0  0  0  0  0  0  0  0  0  0  0
   -0.2543   -0.5106   -1.5159 C   0  0  0  0  0  0  0  0  0  0  0  0
    0.1852   -0.7387   -0.0641 C   0  0  0  0  0  0  0  0  0  0  0  0
    0.4995    0.5826    0.7451 C   0  0  2  0  0  0  0  0  0  0  0  0
    1.8771    1.2480    0.4152 C   0  0  0  0  0  0  0  0  0  0  0  0
    2.2193    1.6722   -1.0159 C   0  0  0  0  0  0  0  0  0  0  0  0
    3.5972    2.3859   -1.0799 C   0  0  0  0  0  0  0  0  0  0  0  0
    4.7912    1.5895   -0.4917 C   0  0  0  0  0  0  0  0  0  0  0  0
    5.0071    0.2300   -1.1791 C   0  0  0  0  0  0  0  0  0  0  0  0
    6.0935   -0.6345   -0.5129 C   0  0  0  0  0  0  0  0  0  0  0  0
    7.5101   -0.0251   -0.5086 C   0  0  2  0  0  0  0  0  0  0  0  0
    8.0812    0.2354   -1.8650 C   0  0  0  0  0  0  0  0  0  0  0  0
    9.3774   -0.0814   -1.9055 C   0  0  0  0  0  0  0  0  0  0  0  0
   10.3029    0.1702   -3.0679 C   0  0  0  0  0  0  0  0  0  0  0  0
    9.6367    0.7644   -4.1502 O   0  0  0  0  0  0  0  0  0  0  0  0
    9.8465   -0.6236   -0.5926 C   0  0  0  0  0  0  0  0  0  0  0  0
    8.5309   -1.0145    0.0621 C   0  0  0  0  0  0  0  0  0  0  0  0
    0.4510    0.4276    2.3322 C   0  0  2  0  0  0  0  0  0  0  0  0
    1.7211   -0.2222    2.8941 C   0  0  0  0  0  0  0  0  0  0  0  0
    2.5879    0.5417    3.7003 C   0  0  0  0  0  0  0  0  0  0  0  0
    3.7599   -0.0157    4.2165 C   0  0  0  0  0  0  0  0  0  0  0  0
    4.0881   -1.3479    3.9367 C   0  0  0  0  0  0  0  0  0  0  0  0
    5.2176   -1.8978    4.4264 O   0  0  0  0  0  0  0  0  0  0  0  0
    3.2334   -2.1178    3.1426 C   0  0  0  0  0  0  0  0  0  0  0  0
    2.0578   -1.5640    2.6263 C   0  0  0  0  0  0  0  0  0  0  0  0
   -0.7539   -0.3092    2.9794 C   0  0  0  0  0  0  0  0  0  0  0  0
   -2.1764    0.1982    2.8105 C   0  0  0  0  0  0  0  0  0  0  0  0
   -2.7546    0.3059    1.5462 C   0  0  0  0  0  0  0  0  0  0  0  0
   -4.1319    0.5159    1.3396 C   0  0  0  0  0  0  0  0  0  0  0  0
   -4.9096    0.7164    2.5119 C   0  0  0  0  0  0  0  0  0  0  0  0
   -4.3333    0.6954    3.7843 C   0  0  0  0  0  0  0  0  0  0  0  0
   -2.9775    0.4204    3.9365 C   0  0  0  0  0  0  0  0  0  0  0  0
   -4.8201    0.4404   -0.0758 C   0  0  1  0  0  0  0  0  0  0  0  0
   -5.7078    1.7258   -0.2585 C   0  0  0  0  0  0  0  0  0  0  0  0
   -6.7066    1.6208   -1.4300 C   0  0  2  0  0  0  0  0  0  0  0  0
   -7.4312    2.8200   -1.5570 O   0  0  0  0  0  0  0  0  0  0  0  0
   -7.6687    0.4406   -1.1875 C   0  0  0  0  0  0  0  0  0  0  0  0
   -6.9122   -0.9195   -1.0953 C   0  0  0  0  0  0  0  0  0  0  0  0
   -6.4845   -1.4396   -2.4818 C   0  0  0  0  0  0  0  0  0  0  0  0
   -7.7800   -1.9841   -3.1146 C   0  0  0  0  0  0  0  0  0  0  0  0
   -8.7200   -2.2910   -1.9383 C   0  0  0  0  0  0  0  0  0  0  0  0
   -7.8653   -2.0724   -0.7012 C   0  0  0  0  0  0  0  0  0  0  0  0
   -5.7842   -0.8027   -0.0184 C   0  0  0  0  0  0  0  0  0  0  0  0
   -3.7649    2.0740   -3.3642 H   0  0  0  0  0  0  0  0  0  0  0  0
   -4.3419    0.2433   -2.2377 H   0  0  0  0  0  0  0  0  0  0  0  0
   -3.3377   -1.7677   -1.8513 H   0  0  0  0  0  0  0  0  0  0  0  0
   -2.6425   -1.3922   -0.3597 H   0  0  0  0  0  0  0  0  0  0  0  0
   -1.6025   -0.3753   -3.1079 H   0  0  0  0  0  0  0  0  0  0  0  0
    0.5070   -0.2123   -2.2188 H   0  0  0  0  0  0  0  0  0  0  0  0
    1.0449   -1.4370   -0.0481 H   0  0  0  0  0  0  0  0  0  0  0  0
   -0.6261   -1.2862    0.4300 H   0  0  0  0  0  0  0  0  0  0  0  0
   -0.2936    1.3093    0.4966 H   0  0  0  0  0  0  0  0  0  0  0  0
    2.6618    0.5305    0.7166 H   0  0  0  0  0  0  0  0  0  0  0  0
    1.9628    2.1621    1.0453 H   0  0  0  0  0  0  0  0  0  0  0  0
    1.4403    2.3657   -1.3991 H   0  0  0  0  0  0  0  0  0  0  0  0
    2.2665    0.7904   -1.6732 H   0  0  0  0  0  0  0  0  0  0  0  0
    3.5278    3.3432   -0.5177 H   0  0  0  0  0  0  0  0  0  0  0  0
    3.8142    2.6353   -2.1409 H   0  0  0  0  0  0  0  0  0  0  0  0
    4.6388    1.4366    0.5972 H   0  0  0  0  0  0  0  0  0  0  0  0
    5.7067    2.2086   -0.6021 H   0  0  0  0  0  0  0  0  0  0  0  0
    5.2374    0.3888   -2.2535 H   0  0  0  0  0  0  0  0  0  0  0  0
    4.0751   -0.3666   -1.1137 H   0  0  0  0  0  0  0  0  0  0  0  0
    6.1157   -1.6055   -1.0550 H   0  0  0  0  0  0  0  0  0  0  0  0
    5.7930   -0.8385    0.5389 H   0  0  0  0  0  0  0  0  0  0  0  0
    7.5333    0.9319    0.0558 H   0  0  0  0  0  0  0  0  0  0  0  0
    7.5564    0.7333   -2.6692 H   0  0  0  0  0  0  0  0  0  0  0  0
   10.7808   -0.7835   -3.3862 H   0  0  0  0  0  0  0  0  0  0  0  0
   11.1141    0.8525   -2.7392 H   0  0  0  0  0  0  0  0  0  0  0  0
    9.1453    0.0374   -4.6151 H   0  0  0  0  0  0  0  0  0  0  0  0
   10.3618    0.1987   -0.0511 H   0  0  0  0  0  0  0  0  0  0  0  0
   10.5078   -1.5134   -0.6748 H   0  0  0  0  0  0  0  0  0  0  0  0
    8.5470   -1.1299    1.1667 H   0  0  0  0  0  0  0  0  0  0  0  0
    8.2896   -2.0159   -0.3690 H   0  0  0  0  0  0  0  0  0  0  0  0
    0.4142    1.4676    2.7289 H   0  0  0  0  0  0  0  0  0  0  0  0
    2.3606    1.5758    3.9287 H   0  0  0  0  0  0  0  0  0  0  0  0
    4.4126    0.5903    4.8321 H   0  0  0  0  0  0  0  0  0  0  0  0
    5.8340   -1.3980    4.9805 H   0  0  0  0  0  0  0  0  0  0  0  0
    3.4801   -3.1494    2.9248 H   0  0  0  0  0  0  0  0  0  0  0  0
    1.4172   -2.1882    2.0227 H   0  0  0  0  0  0  0  0  0  0  0  0
   -0.5501   -0.3590    4.0729 H   0  0  0  0  0  0  0  0  0  0  0  0
   -0.7508   -1.3620    2.6306 H   0  0  0  0  0  0  0  0  0  0  0  0
   -2.1140    0.1694    0.7425 H   0  0  0  0  0  0  0  0  0  0  0  0
   -5.9766    0.8742    2.4689 H   0  0  0  0  0  0  0  0  0  0  0  0
   -4.9528    0.8438    4.6588 H   0  0  0  0  0  0  0  0  0  0  0  0
   -2.5678    0.3384    4.9353 H   0  0  0  0  0  0  0  0  0  0  0  0
   -5.0797    2.6337   -0.3662 H   0  0  0  0  0  0  0  0  0  0  0  0
   -6.3312    1.9061    0.6369 H   0  0  0  0  0  0  0  0  0  0  0  0
   -6.1698    1.4723   -2.3867 H   0  0  0  0  0  0  0  0  0  0  0  0
   -7.9424    2.9619   -0.7173 H   0  0  0  0  0  0  0  0  0  0  0  0
   -8.4340    0.4380   -1.9896 H   0  0  0  0  0  0  0  0  0  0  0  0
   -8.2007    0.6202   -0.2259 H   0  0  0  0  0  0  0  0  0  0  0  0
   -5.8308   -2.3233   -2.2979 H   0  0  0  0  0  0  0  0  0  0  0  0
   -5.9429   -0.7662   -3.1690 H   0  0  0  0  0  0  0  0  0  0  0  0
   -7.5560   -2.8668   -3.7508 H   0  0  0  0  0  0  0  0  0  0  0  0
   -8.2736   -1.2089   -3.7417 H   0  0  0  0  0  0  0  0  0  0  0  0
   -9.2322   -3.2755   -1.9814 H   0  0  0  0  0  0  0  0  0  0  0  0
   -9.5154   -1.5135   -1.9213 H   0  0  0  0  0  0  0  0  0  0  0  0
   -7.2609   -2.9967   -0.5461 H   0  0  0  0  0  0  0  0  0  0  0  0
   -8.4599   -1.9019    0.2233 H   0  0  0  0  0  0  0  0  0  0  0  0
   -5.1981   -1.7453    0.0484 H   0  0  0  0  0  0  0  0  0  0  0  0
   -6.3521   -0.7314    0.9323 H   0  0  0  0  0  0  0  0  0  0  0  0
  1  2  2  0  0  0  0
  2  3  1  0  0  0  0
  3 49  1  0  0  0  0
  4  2  1  0  0  0  0
  4  5  1  0  0  0  0
  4 50  1  6  0  0  0
  5  6  1  0  0  0  0
  5 51  1  0  0  0  0
  5 52  1  0  0  0  0
  6  7  2  0  0  0  0
  6 53  1  0  0  0  0
  7  8  1  0  0  0  0
  7 54  1  0  0  0  0
  8  9  1  0  0  0  0
  8 55  1  0  0  0  0
  8 56  1  0  0  0  0
  9 10  1  0  0  0  0
  9 23  1  0  0  0  0
  9 57  1  6  0  0  0
 10 11  1  0  0  0  0
 10 58  1  0  0  0  0
 10 59  1  0  0  0  0
 11 12  1  0  0  0  0
 11 60  1  0  0  0  0
 11 61  1  0  0  0  0
 12 13  1  0  0  0  0
 12 62  1  0  0  0  0
 12 63  1  0  0  0  0
 13 14  1  0  0  0  0
 13 64  1  0  0  0  0
 13 65  1  0  0  0  0
 14 15  1  0  0  0  0
 14 66  1  0  0  0  0
 14 67  1  0  0  0  0
 15 68  1  0  0  0  0
 15 69  1  0  0  0  0
 16 15  1  0  0  0  0
 16 17  1  0  0  0  0
 16 70  1  1  0  0  0
 17 18  2  0  0  0  0
 17 71  1  0  0  0  0
 18 19  1  0  0  0  0
 18 21  1  0  0  0  0
 19 20  1  0  0  0  0
 19 72  1  0  0  0  0
 19 73  1  0  0  0  0
 20 74  1  0  0  0  0
 21 22  1  0  0  0  0
 21 75  1  0  0  0  0
 21 76  1  0  0  0  0
 22 16  1  0  0  0  0
 22 77  1  0  0  0  0
 22 78  1  0  0  0  0
 23 24  1  0  0  0  0
 23 31  1  0  0  0  0
 23 79  1  1  0  0  0
 24 25  2  0  0  0  0
 25 26  1  0  0  0  0
 25 80  1  0  0  0  0
 26 27  2  0  0  0  0
 26 81  1  0  0  0  0
 27 28  1  0  0  0  0
 27 29  1  0  0  0  0
 28 82  1  0  0  0  0
 29 30  2  0  0  0  0
 29 83  1  0  0  0  0
 30 24  1  0  0  0  0
 30 84  1  0  0  0  0
 31 32  1  0  0  0  0
 31 85  1  0  0  0  0
 31 86  1  0  0  0  0
 32 33  1  0  0  0  0
 33 34  2  0  0  0  0
 33 87  1  0  0  0  0
 34 35  1  0  0  0  0
 35 36  2  0  0  0  0
 35 88  1  0  0  0  0
 36 37  1  0  0  0  0
 36 89  1  0  0  0  0
 37 32  2  0  0  0  0
 37 90  1  0  0  0  0
 38 34  1  1  0  0  0
 38 39  1  0  0  0  0
 38  4  1  0  0  0  0
 39 40  1  0  0  0  0
 39 91  1  0  0  0  0
 39 92  1  0  0  0  0
 40 41  1  0  0  0  0
 40 42  1  0  0  0  0
 40 93  1  6  0  0  0
 41 94  1  0  0  0  0
 42 43  1  0  0  0  0
 42 95  1  0  0  0  0
 42 96  1  0  0  0  0
 43 44  1  0  0  0  0
 43 48  1  0  0  0  0
 44 45  1  0  0  0  0
 44 97  1  0  0  0  0
 44 98  1  0  0  0  0
 45 46  1  0  0  0  0
 45 99  1  0  0  0  0
 45100  1  0  0  0  0
 46 47  1  0  0  0  0
 46101  1  0  0  0  0
 46102  1  0  0  0  0
 47 43  1  0  0  0  0
 47103  1  0  0  0  0
 47104  1  0  0  0  0
 48 38  1  0  0  0  0
 48105  1  0  0  0  0
 48106  1  0  0  0  0
M  END
>  <IDENTIFIER>
CNP0303043.1

>  <Energy>
1104.97

$$$$
