
 OpenBabel09072500593D

 36 39  0  0  0  0  0  0  0  0999 V2000
    4.6040   -0.9594    0.3838 C   0  0  0  0  0  0  0  0  0  0  0  0
    3.1390   -0.7096    0.2112 C   0  0  0  0  0  0  0  0  0  0  0  0
    2.6319    0.6004    0.1387 C   0  0  0  0  0  0  0  0  0  0  0  0
    1.2572    0.7421   -0.0252 C   0  0  0  0  0  0  0  0  0  0  0  0
    0.4119   -0.3368   -0.1245 C   0  0  0  0  0  0  0  0  0  0  0  0
    0.9373   -1.6365   -0.0473 C   0  0  0  0  0  0  0  0  0  0  0  0
    2.2867   -1.7768    0.1230 N   0  0  0  0  0  0  0  0  0  0  0  0
    0.0840   -2.8649   -0.1404 C   0  0  0  0  0  0  0  0  0  0  0  0
   -1.0380   -2.8678    0.9127 C   0  0  0  0  0  0  0  0  0  0  0  0
   -2.0452   -1.7878    0.7980 N   0  0  0  0  0  0  0  0  0  0  0  0
   -2.0058   -0.9170   -0.3911 C   0  0  1  0  0  0  0  0  0  0  0  0
   -3.3921   -0.3051   -0.5730 C   0  0  0  0  0  0  0  0  0  0  0  0
   -0.8858    0.0535   -0.2708 N   0  0  0  0  0  0  0  0  0  0  0  0
   -0.8357    1.4290   -0.2594 C   0  0  0  0  0  0  0  0  0  0  0  0
   -1.8637    2.3891   -0.3633 C   0  0  0  0  0  0  0  0  0  0  0  0
   -1.5256    3.7535   -0.3146 C   0  0  0  0  0  0  0  0  0  0  0  0
   -0.1879    4.1604   -0.1651 C   0  0  0  0  0  0  0  0  0  0  0  0
    0.8315    3.2076   -0.0611 C   0  0  0  0  0  0  0  0  0  0  0  0
    0.4754    1.8607   -0.1113 C   0  0  0  0  0  0  0  0  0  0  0  0
    5.1762   -0.0087    0.4391 H   0  0  0  0  0  0  0  0  0  0  0  0
    4.9813   -1.5492   -0.4778 H   0  0  0  0  0  0  0  0  0  0  0  0
    4.7752   -1.5322    1.3189 H   0  0  0  0  0  0  0  0  0  0  0  0
    3.2794    1.4650    0.2117 H   0  0  0  0  0  0  0  0  0  0  0  0
    0.7231   -3.7603    0.0213 H   0  0  0  0  0  0  0  0  0  0  0  0
   -0.3310   -2.9702   -1.1616 H   0  0  0  0  0  0  0  0  0  0  0  0
   -0.5791   -2.8398    1.9268 H   0  0  0  0  0  0  0  0  0  0  0  0
   -1.5754   -3.8360    0.8311 H   0  0  0  0  0  0  0  0  0  0  0  0
   -2.0770   -1.2112    1.6720 H   0  0  0  0  0  0  0  0  0  0  0  0
   -1.8636   -1.5195   -1.3096 H   0  0  0  0  0  0  0  0  0  0  0  0
   -3.6841    0.2864    0.3196 H   0  0  0  0  0  0  0  0  0  0  0  0
   -4.1397   -1.1194   -0.6871 H   0  0  0  0  0  0  0  0  0  0  0  0
   -3.4285    0.2982   -1.5042 H   0  0  0  0  0  0  0  0  0  0  0  0
   -2.9024    2.1574   -0.4771 H   0  0  0  0  0  0  0  0  0  0  0  0
   -2.3047    4.5014   -0.3923 H   0  0  0  0  0  0  0  0  0  0  0  0
    0.0539    5.2144   -0.1276 H   0  0  0  0  0  0  0  0  0  0  0  0
    1.8630    3.5137    0.0571 H   0  0  0  0  0  0  0  0  0  0  0  0
  1  2  1  0  0  0  0
  1 20  1  0  0  0  0
  1 21  1  0  0  0  0
  1 22  1  0  0  0  0
  2  3  2  0  0  0  0
  3  4  1  0  0  0  0
  3 23  1  0  0  0  0
  4  5  2  0  0  0  0
  5  6  1  0  0  0  0
  6  7  2  0  0  0  0
  6  8  1  0  0  0  0
  7  2  1  0  0  0  0
  8  9  1  0  0  0  0
  8 24  1  0  0  0  0
  8 25  1  0  0  0  0
  9 10  1  0  0  0  0
  9 26  1  0  0  0  0
  9 27  1  0  0  0  0
 10 11  1  0  0  0  0
 10 28  1  0  0  0  0
 11 12  1  0  0  0  0
 11 13  1  0  0  0  0
 11 29  1  6  0  0  0
 12 30  1  0  0  0  0
 12 31  1  0  0  0  0
 12 32  1  0  0  0  0
 13 14  1  0  0  0  0
 13  5  1  0  0  0  0
 14 15  2  0  0  0  0
 15 16  1  0  0  0  0
 15 33  1  0  0  0  0
 16 17  2  0  0  0  0
 16 34  1  0  0  0  0
 17 18  1  0  0  0  0
 17 35  1  0  0  0  0
 18 19  2  0  0  0  0
 18 36  1  0  0  0  0
 19 14  1  0  0  0  0
 19  4  1  0  0  0  0
M  END
>  <IDENTIFIER>
CNP0312502.2

>  <Energy>
443.239

$$$$
