
 OpenBabel09132500323D

162164  0  0  0  0  0  0  0  0999 V2000
    6.0506   -7.9268   -1.8090 C   0  0  0  0  0  0  0  0  0  0  0  0
    4.7024   -8.0599   -1.4126 O   0  0  0  0  0  0  0  0  0  0  0  0
    3.9492   -6.8909   -1.6839 C   0  0  0  0  0  0  0  0  0  0  0  0
    4.1998   -5.7698   -0.6529 C   0  0  2  0  0  0  0  0  0  0  0  0
    3.1555   -4.6402   -0.7757 C   0  0  0  0  0  0  0  0  0  0  0  0
    2.0024   -4.8854    0.1761 C   0  0  0  0  0  0  0  0  0  0  0  0
    2.3076   -4.7698    1.6544 C   0  0  0  0  0  0  0  0  0  0  0  0
    0.7800   -5.1901   -0.3098 C   0  0  0  0  0  0  0  0  0  0  0  0
   -0.4948   -5.4686    0.4770 C   0  0  2  0  0  0  0  0  0  0  0  0
   -0.3424   -5.2724    1.8458 O   0  0  0  0  0  0  0  0  0  0  0  0
   -1.3135   -5.6246    2.7310 C   0  0  0  0  0  0  0  0  0  0  0  0
   -1.2712   -5.2251    3.8829 O   0  0  0  0  0  0  0  0  0  0  0  0
   -2.4641   -6.4141    2.2456 C   0  0  0  0  0  0  0  0  0  0  0  0
   -2.3916   -6.9718    1.0150 C   0  0  0  0  0  0  0  0  0  0  0  0
   -3.6425   -7.5802    0.4098 C   0  0  0  0  0  0  0  0  0  0  0  0
   -4.7067   -6.5180    0.3097 C   0  0  0  0  0  0  0  0  0  0  0  0
   -4.9643   -5.8754   -0.8415 C   0  0  0  0  0  0  0  0  0  0  0  0
   -6.0104   -4.7838   -0.9460 C   0  0  1  0  0  0  0  0  0  0  0  0
   -7.2726   -5.3644   -0.7473 O   0  0  0  0  0  0  0  0  0  0  0  0
   -5.7355   -3.6200    0.0464 C   0  0  0  0  0  0  0  0  0  0  0  0
   -6.2816   -2.1781   -0.2367 C   0  0  2  0  0  0  0  0  0  0  0  0
   -5.7017   -1.3562    0.7398 O   0  0  0  0  0  0  0  0  0  0  0  0
   -7.8332   -1.8709   -0.3608 C   0  0  2  0  0  0  0  0  0  0  0  0
   -8.4203   -2.5700   -1.6086 C   0  0  0  0  0  0  0  0  0  0  0  0
   -8.1152   -0.3212   -0.5210 C   0  0  1  0  0  0  0  0  0  0  0  0
   -9.4335   -0.1053   -1.0194 O   0  0  0  0  0  0  0  0  0  0  0  0
   -9.4049    0.5136   -2.2932 C   0  0  0  0  0  0  0  0  0  0  0  0
   -8.0054    0.5206    0.7866 C   0  0  0  0  0  0  0  0  0  0  0  0
   -8.1308    2.0147    0.4502 C   0  0  0  0  0  0  0  0  0  0  0  0
   -7.8894    2.9832    1.6483 C   0  0  2  0  0  0  0  0  0  0  0  0
   -9.1397    3.0499    2.5367 C   0  0  0  0  0  0  0  0  0  0  0  0
   -7.4731    4.3980    1.1305 C   0  0  2  0  0  0  0  0  0  0  0  0
   -8.3391    4.7933    0.0740 O   0  0  0  0  0  0  0  0  0  0  0  0
   -9.0697    5.9487    0.4230 C   0  0  0  0  0  0  0  0  0  0  0  0
   -6.0028    4.3355    0.6379 C   0  0  0  0  0  0  0  0  0  0  0  0
   -5.5141    5.5066   -0.2186 C   0  0  2  0  0  0  0  0  0  0  0  0
   -4.0772    5.2100   -0.6822 C   0  0  0  0  0  0  0  0  0  0  0  0
   -3.5163    6.3737   -1.4657 C   0  0  0  0  0  0  0  0  0  0  0  0
   -3.9651    7.6213   -1.2144 C   0  0  0  0  0  0  0  0  0  0  0  0
   -4.9947    7.8121   -0.1549 C   0  0  0  0  0  0  0  0  0  0  0  0
   -5.2891    8.9344    0.2218 O   0  0  0  0  0  0  0  0  0  0  0  0
   -5.5594    6.7230    0.4358 O   0  0  0  0  0  0  0  0  0  0  0  0
   -2.3804    6.1024   -2.4351 C   0  0  0  0  0  0  0  0  0  0  0  0
   -1.1217    5.7079   -1.6925 C   0  0  0  0  0  0  0  0  0  0  0  0
   -1.1111    5.7588   -0.4735 O   0  0  0  0  0  0  0  0  0  0  0  0
   -0.0144    5.2856   -2.3827 N   0  0  0  0  0  0  0  0  0  0  0  0
    1.2640    4.9615   -1.8141 C   0  0  0  0  0  0  0  0  0  0  0  0
    1.6711    5.3558   -0.5865 C   0  0  0  0  0  0  0  0  0  0  0  0
    2.9943    5.0819    0.0200 C   0  0  0  0  0  0  0  0  0  0  0  0
    3.9583    4.3078   -0.5039 C   0  0  0  0  0  0  0  0  0  0  0  0
    5.2850    4.1630    0.2031 C   0  0  0  0  0  0  0  0  0  0  0  0
    6.4442    4.6652   -0.6885 C   0  0  1  0  0  0  0  0  0  0  0  0
    6.2012    6.1061   -1.2480 C   0  0  0  0  0  0  0  0  0  0  0  0
    6.0647    7.2322   -0.2422 C   0  0  0  0  0  0  0  0  0  0  0  0
    6.1080    7.0235    0.9618 O   0  0  0  0  0  0  0  0  0  0  0  0
    5.8935    8.4960   -0.7080 O   0  0  0  0  0  0  0  0  0  0  0  0
    5.8089    9.6076    0.1051 C   0  0  0  0  0  0  0  0  0  0  0  0
    7.8133    4.6181    0.0347 C   0  0  0  0  0  0  0  0  0  0  0  0
    8.3109    3.2603    0.5956 C   0  0  2  0  0  0  0  0  0  0  0  0
    9.5269    3.4826    1.2700 O   0  0  0  0  0  0  0  0  0  0  0  0
    8.4503    2.1488   -0.4819 C   0  0  0  0  0  0  0  0  0  0  0  0
    9.2616    0.9500    0.0100 C   0  0  0  0  0  0  0  0  0  0  0  0
   10.7538    1.1262    0.1992 C   0  0  0  0  0  0  0  0  0  0  0  0
    8.7784   -0.2887    0.2699 C   0  0  0  0  0  0  0  0  0  0  0  0
    7.3636   -0.7507    0.1727 C   0  0  0  0  0  0  0  0  0  0  0  0
    6.9488   -2.0082    0.4742 C   0  0  0  0  0  0  0  0  0  0  0  0
    7.8306   -3.1669    0.9294 C   0  0  1  0  0  0  0  0  0  0  0  0
    7.4864   -3.4795    2.2714 O   0  0  0  0  0  0  0  0  0  0  0  0
    8.6350   -3.6557    3.0682 C   0  0  0  0  0  0  0  0  0  0  0  0
    7.6640   -4.4111    0.0275 C   0  0  0  0  0  0  0  0  0  0  0  0
    6.3437   -5.0937    0.2260 C   0  0  0  0  0  0  0  0  0  0  0  0
    6.0801   -5.5455    1.3338 O   0  0  0  0  0  0  0  0  0  0  0  0
    5.4615   -5.2158   -0.8041 O   0  0  0  0  0  0  0  0  0  0  0  0
   -1.0361   -6.9058    0.2818 C   0  0  1  0  0  0  0  0  0  0  0  0
   -1.0672   -7.3891   -1.1778 C   0  0  0  0  0  0  0  0  0  0  0  0
    6.4331   -8.9323   -2.0797 H   0  0  0  0  0  0  0  0  0  0  0  0
    6.6580   -7.5594   -0.9573 H   0  0  0  0  0  0  0  0  0  0  0  0
    6.1963   -7.2853   -2.7068 H   0  0  0  0  0  0  0  0  0  0  0  0
    2.8814   -7.1910   -1.6158 H   0  0  0  0  0  0  0  0  0  0  0  0
    4.0845   -6.5296   -2.7304 H   0  0  0  0  0  0  0  0  0  0  0  0
    4.1020   -6.2318    0.3531 H   0  0  0  0  0  0  0  0  0  0  0  0
    2.8567   -4.5142   -1.8412 H   0  0  0  0  0  0  0  0  0  0  0  0
    3.5916   -3.6668   -0.4601 H   0  0  0  0  0  0  0  0  0  0  0  0
    3.3724   -4.5024    1.8255 H   0  0  0  0  0  0  0  0  0  0  0  0
    2.1148   -5.7358    2.1654 H   0  0  0  0  0  0  0  0  0  0  0  0
    1.7014   -3.9576    2.1066 H   0  0  0  0  0  0  0  0  0  0  0  0
    0.6789   -5.2489   -1.3893 H   0  0  0  0  0  0  0  0  0  0  0  0
   -1.2553   -4.7492    0.0971 H   0  0  0  0  0  0  0  0  0  0  0  0
   -3.3709   -6.4636    2.8420 H   0  0  0  0  0  0  0  0  0  0  0  0
   -4.0199   -8.4263    1.0219 H   0  0  0  0  0  0  0  0  0  0  0  0
   -3.4533   -7.9906   -0.5979 H   0  0  0  0  0  0  0  0  0  0  0  0
   -5.2348   -6.2349    1.2146 H   0  0  0  0  0  0  0  0  0  0  0  0
   -4.3948   -6.1257   -1.7331 H   0  0  0  0  0  0  0  0  0  0  0  0
   -5.9430   -4.3872   -1.9829 H   0  0  0  0  0  0  0  0  0  0  0  0
   -7.3526   -5.6187    0.2083 H   0  0  0  0  0  0  0  0  0  0  0  0
   -4.6298   -3.4762    0.0399 H   0  0  0  0  0  0  0  0  0  0  0  0
   -6.0033   -3.9421    1.0758 H   0  0  0  0  0  0  0  0  0  0  0  0
   -5.8319   -1.8676   -1.2062 H   0  0  0  0  0  0  0  0  0  0  0  0
   -6.0617   -1.6457    1.6201 H   0  0  0  0  0  0  0  0  0  0  0  0
   -8.3842   -2.2374    0.5323 H   0  0  0  0  0  0  0  0  0  0  0  0
   -7.8917   -2.2458   -2.5297 H   0  0  0  0  0  0  0  0  0  0  0  0
   -9.5033   -2.3569   -1.7174 H   0  0  0  0  0  0  0  0  0  0  0  0
   -8.3929   -3.6514   -1.5555 H   0  0  0  0  0  0  0  0  0  0  0  0
   -7.3343    0.0458   -1.2348 H   0  0  0  0  0  0  0  0  0  0  0  0
  -10.4480    0.6643   -2.6369 H   0  0  0  0  0  0  0  0  0  0  0  0
   -8.8993   -0.1287   -3.0459 H   0  0  0  0  0  0  0  0  0  0  0  0
   -8.9246    1.5151   -2.2528 H   0  0  0  0  0  0  0  0  0  0  0  0
   -7.0235    0.4088    1.2685 H   0  0  0  0  0  0  0  0  0  0  0  0
   -8.7858    0.2089    1.5125 H   0  0  0  0  0  0  0  0  0  0  0  0
   -9.1090    2.2518   -0.0199 H   0  0  0  0  0  0  0  0  0  0  0  0
   -7.3742    2.1730   -0.3333 H   0  0  0  0  0  0  0  0  0  0  0  0
   -7.0531    2.6127    2.2831 H   0  0  0  0  0  0  0  0  0  0  0  0
  -10.0148    3.4227    1.9637 H   0  0  0  0  0  0  0  0  0  0  0  0
   -8.9603    3.7301    3.3964 H   0  0  0  0  0  0  0  0  0  0  0  0
   -9.3823    2.0454    2.9415 H   0  0  0  0  0  0  0  0  0  0  0  0
   -7.4571    5.1231    1.9827 H   0  0  0  0  0  0  0  0  0  0  0  0
   -9.7597    6.1923   -0.4107 H   0  0  0  0  0  0  0  0  0  0  0  0
   -8.3939    6.8211    0.5596 H   0  0  0  0  0  0  0  0  0  0  0  0
   -9.6960    5.7758    1.3255 H   0  0  0  0  0  0  0  0  0  0  0  0
   -5.8432    3.4559   -0.0046 H   0  0  0  0  0  0  0  0  0  0  0  0
   -5.3397    4.1984    1.5213 H   0  0  0  0  0  0  0  0  0  0  0  0
   -6.1533    5.5813   -1.1286 H   0  0  0  0  0  0  0  0  0  0  0  0
   -4.0900    4.2996   -1.3220 H   0  0  0  0  0  0  0  0  0  0  0  0
   -3.4192    5.0144    0.1911 H   0  0  0  0  0  0  0  0  0  0  0  0
   -3.5375    8.4795   -1.7219 H   0  0  0  0  0  0  0  0  0  0  0  0
   -2.1441    7.0034   -3.0412 H   0  0  0  0  0  0  0  0  0  0  0  0
   -2.7004    5.2941   -3.1269 H   0  0  0  0  0  0  0  0  0  0  0  0
   -0.1095    5.1641   -3.4027 H   0  0  0  0  0  0  0  0  0  0  0  0
    1.9526    4.4117   -2.4482 H   0  0  0  0  0  0  0  0  0  0  0  0
    1.0463    5.9665    0.0415 H   0  0  0  0  0  0  0  0  0  0  0  0
    3.1789    5.5738    0.9707 H   0  0  0  0  0  0  0  0  0  0  0  0
    3.8206    3.7922   -1.4478 H   0  0  0  0  0  0  0  0  0  0  0  0
    5.4354    3.0924    0.4515 H   0  0  0  0  0  0  0  0  0  0  0  0
    5.2782    4.7242    1.1607 H   0  0  0  0  0  0  0  0  0  0  0  0
    6.4996    3.9946   -1.5744 H   0  0  0  0  0  0  0  0  0  0  0  0
    5.2854    6.1077   -1.8760 H   0  0  0  0  0  0  0  0  0  0  0  0
    7.0472    6.3611   -1.9221 H   0  0  0  0  0  0  0  0  0  0  0  0
    5.6648   10.5105   -0.5230 H   0  0  0  0  0  0  0  0  0  0  0  0
    6.7471    9.7255    0.6887 H   0  0  0  0  0  0  0  0  0  0  0  0
    4.9465    9.5120    0.7992 H   0  0  0  0  0  0  0  0  0  0  0  0
    7.7993    5.3204    0.8919 H   0  0  0  0  0  0  0  0  0  0  0  0
    8.5794    4.9870   -0.6833 H   0  0  0  0  0  0  0  0  0  0  0  0
    7.5956    2.8984    1.3647 H   0  0  0  0  0  0  0  0  0  0  0  0
   10.1317    3.9881    0.6663 H   0  0  0  0  0  0  0  0  0  0  0  0
    8.9760    2.5431   -1.3779 H   0  0  0  0  0  0  0  0  0  0  0  0
    7.4312    1.8655   -0.8083 H   0  0  0  0  0  0  0  0  0  0  0  0
   11.1043    2.1302   -0.1066 H   0  0  0  0  0  0  0  0  0  0  0  0
   11.2993    0.3942   -0.4342 H   0  0  0  0  0  0  0  0  0  0  0  0
   11.0231    0.9547    1.2639 H   0  0  0  0  0  0  0  0  0  0  0  0
    9.5220   -0.9937    0.6028 H   0  0  0  0  0  0  0  0  0  0  0  0
    6.5979   -0.0453   -0.1285 H   0  0  0  0  0  0  0  0  0  0  0  0
    5.8822   -2.2090    0.4053 H   0  0  0  0  0  0  0  0  0  0  0  0
    8.8955   -2.8965    0.8237 H   0  0  0  0  0  0  0  0  0  0  0  0
    8.3107   -3.9492    4.0878 H   0  0  0  0  0  0  0  0  0  0  0  0
    9.2012   -2.7033    3.1606 H   0  0  0  0  0  0  0  0  0  0  0  0
    9.2732   -4.4785    2.6759 H   0  0  0  0  0  0  0  0  0  0  0  0
    8.4482   -5.1540    0.2861 H   0  0  0  0  0  0  0  0  0  0  0  0
    7.8043   -4.1223   -1.0371 H   0  0  0  0  0  0  0  0  0  0  0  0
   -0.3279   -7.5821    0.8145 H   0  0  0  0  0  0  0  0  0  0  0  0
   -1.7330   -6.7502   -1.7931 H   0  0  0  0  0  0  0  0  0  0  0  0
   -1.3981   -8.4484   -1.2222 H   0  0  0  0  0  0  0  0  0  0  0  0
   -0.0468   -7.3835   -1.6135 H   0  0  0  0  0  0  0  0  0  0  0  0
  1  2  1  0  0  0  0
  1 76  1  0  0  0  0
  1 77  1  0  0  0  0
  1 78  1  0  0  0  0
  2  3  1  0  0  0  0
  3 79  1  0  0  0  0
  3 80  1  0  0  0  0
  4  3  1  0  0  0  0
  4  5  1  0  0  0  0
  4 81  1  1  0  0  0
  5  6  1  0  0  0  0
  5 82  1  0  0  0  0
  5 83  1  0  0  0  0
  6  7  1  0  0  0  0
  6  8  2  0  0  0  0
  7 84  1  0  0  0  0
  7 85  1  0  0  0  0
  7 86  1  0  0  0  0
  8  9  1  0  0  0  0
  8 87  1  0  0  0  0
  9 10  1  0  0  0  0
  9 88  1  6  0  0  0
 10 11  1  0  0  0  0
 11 12  2  0  0  0  0
 11 13  1  0  0  0  0
 13 14  2  0  0  0  0
 13 89  1  0  0  0  0
 14 15  1  0  0  0  0
 14 74  1  0  0  0  0
 15 16  1  0  0  0  0
 15 90  1  0  0  0  0
 15 91  1  0  0  0  0
 16 17  2  0  0  0  0
 16 92  1  0  0  0  0
 17 18  1  0  0  0  0
 17 93  1  0  0  0  0
 18 19  1  0  0  0  0
 18 20  1  0  0  0  0
 18 94  1  6  0  0  0
 19 95  1  0  0  0  0
 20 21  1  0  0  0  0
 20 96  1  0  0  0  0
 20 97  1  0  0  0  0
 21 22  1  0  0  0  0
 21 23  1  0  0  0  0
 21 98  1  6  0  0  0
 22 99  1  0  0  0  0
 23 24  1  0  0  0  0
 23 25  1  0  0  0  0
 23100  1  1  0  0  0
 24101  1  0  0  0  0
 24102  1  0  0  0  0
 24103  1  0  0  0  0
 25 26  1  0  0  0  0
 25 28  1  0  0  0  0
 25104  1  6  0  0  0
 26 27  1  0  0  0  0
 27105  1  0  0  0  0
 27106  1  0  0  0  0
 27107  1  0  0  0  0
 28 29  1  0  0  0  0
 28108  1  0  0  0  0
 28109  1  0  0  0  0
 29 30  1  0  0  0  0
 29110  1  0  0  0  0
 29111  1  0  0  0  0
 30 31  1  0  0  0  0
 30 32  1  0  0  0  0
 30112  1  1  0  0  0
 31113  1  0  0  0  0
 31114  1  0  0  0  0
 31115  1  0  0  0  0
 32 33  1  0  0  0  0
 32 35  1  0  0  0  0
 32116  1  1  0  0  0
 33 34  1  0  0  0  0
 34117  1  0  0  0  0
 34118  1  0  0  0  0
 34119  1  0  0  0  0
 35120  1  0  0  0  0
 35121  1  0  0  0  0
 36 35  1  0  0  0  0
 36 37  1  0  0  0  0
 36122  1  6  0  0  0
 37 38  1  0  0  0  0
 37123  1  0  0  0  0
 37124  1  0  0  0  0
 38 39  2  0  0  0  0
 38 43  1  0  0  0  0
 39 40  1  0  0  0  0
 39125  1  0  0  0  0
 40 41  2  0  0  0  0
 40 42  1  0  0  0  0
 42 36  1  0  0  0  0
 43 44  1  0  0  0  0
 43126  1  0  0  0  0
 43127  1  0  0  0  0
 44 45  2  0  0  0  0
 44 46  1  0  0  0  0
 46 47  1  0  0  0  0
 46128  1  0  0  0  0
 47 48  2  0  0  0  0
 47129  1  0  0  0  0
 48 49  1  0  0  0  0
 48130  1  0  0  0  0
 49 50  2  0  0  0  0
 49131  1  0  0  0  0
 50 51  1  0  0  0  0
 50132  1  0  0  0  0
 51 52  1  0  0  0  0
 51133  1  0  0  0  0
 51134  1  0  0  0  0
 52 53  1  0  0  0  0
 52 58  1  0  0  0  0
 52135  1  6  0  0  0
 53 54  1  0  0  0  0
 53136  1  0  0  0  0
 53137  1  0  0  0  0
 54 55  2  0  0  0  0
 54 56  1  0  0  0  0
 56 57  1  0  0  0  0
 57138  1  0  0  0  0
 57139  1  0  0  0  0
 57140  1  0  0  0  0
 58 59  1  0  0  0  0
 58141  1  0  0  0  0
 58142  1  0  0  0  0
 59 60  1  0  0  0  0
 59 61  1  0  0  0  0
 59143  1  1  0  0  0
 60144  1  0  0  0  0
 61 62  1  0  0  0  0
 61145  1  0  0  0  0
 61146  1  0  0  0  0
 62 63  1  0  0  0  0
 62 64  2  0  0  0  0
 63147  1  0  0  0  0
 63148  1  0  0  0  0
 63149  1  0  0  0  0
 64 65  1  0  0  0  0
 64150  1  0  0  0  0
 65 66  2  0  0  0  0
 65151  1  0  0  0  0
 66 67  1  0  0  0  0
 66152  1  0  0  0  0
 67 68  1  0  0  0  0
 67 70  1  0  0  0  0
 67153  1  6  0  0  0
 68 69  1  0  0  0  0
 69154  1  0  0  0  0
 69155  1  0  0  0  0
 69156  1  0  0  0  0
 70 71  1  0  0  0  0
 70157  1  0  0  0  0
 70158  1  0  0  0  0
 71 72  2  0  0  0  0
 71 73  1  0  0  0  0
 73  4  1  0  0  0  0
 74 75  1  0  0  0  0
 74  9  1  0  0  0  0
 74159  1  1  0  0  0
 75160  1  0  0  0  0
 75161  1  0  0  0  0
 75162  1  0  0  0  0
M  END
>  <IDENTIFIER>
CNP0062606.1

>  <Energy>
1243.46

$$$$
