
 OpenBabel09132507363D

 92 95  0  0  0  0  0  0  0  0999 V2000
    2.8965    3.1382   -1.9196 C   0  0  0  0  0  0  0  0  0  0  0  0
    2.4304    1.8269   -2.1626 O   0  0  0  0  0  0  0  0  0  0  0  0
    1.5617    1.4239   -1.1183 C   0  0  1  0  0  0  0  0  0  0  0  0
    0.1364    1.8571   -1.4932 C   0  0  0  0  0  0  0  0  0  0  0  0
   -0.6842    0.8709   -0.7144 C   0  0  1  0  0  0  0  0  0  0  0  0
   -2.2273    0.8613   -0.8412 C   0  0  2  0  0  0  0  0  0  0  0  0
   -2.7702    2.2972   -0.7062 C   0  0  0  0  0  0  0  0  0  0  0  0
   -4.3039    2.3381   -0.6950 C   0  0  1  0  0  0  0  0  0  0  0  0
   -4.8381    1.9099   -1.9197 O   0  0  0  0  0  0  0  0  0  0  0  0
   -4.8233    1.4809    0.4912 C   0  0  1  0  0  0  0  0  0  0  0  0
   -4.2528    2.0054    1.6779 O   0  0  0  0  0  0  0  0  0  0  0  0
   -6.3702    1.5988    0.6185 C   0  0  0  0  0  0  0  0  0  0  0  0
   -6.8595    0.8536    1.8766 C   0  0  1  0  0  0  0  0  0  0  0  0
   -8.2519    0.9759    2.0246 O   0  0  0  0  0  0  0  0  0  0  0  0
   -6.4393   -0.6220    1.8439 C   0  0  0  0  0  0  0  0  0  0  0  0
   -4.9142   -0.7613    1.6584 C   0  0  0  0  0  0  0  0  0  0  0  0
   -4.3754   -0.0473    0.3663 C   0  0  1  0  0  0  0  0  0  0  0  0
   -4.9693   -0.7841   -0.8769 C   0  0  0  0  0  0  0  0  0  0  0  0
   -2.7828   -0.0946    0.2880 C   0  0  1  0  0  0  0  0  0  0  0  0
   -2.1226   -1.5167    0.1041 C   0  0  2  0  0  0  0  0  0  0  0  0
   -2.4833   -2.3890    1.1173 O   0  0  0  0  0  0  0  0  0  0  0  0
   -3.0093   -3.6343    0.9264 C   0  0  0  0  0  0  0  0  0  0  0  0
   -3.4384   -4.4433    2.1059 C   0  0  0  0  0  0  0  0  0  0  0  0
   -3.1395   -4.1026   -0.1956 O   0  0  0  0  0  0  0  0  0  0  0  0
   -0.5680   -1.4314    0.1015 C   0  0  0  0  0  0  0  0  0  0  0  0
   -0.0251   -0.4974   -1.0268 C   0  0  1  0  0  0  0  0  0  0  0  0
   -0.3322   -1.0592   -2.4503 C   0  0  0  0  0  0  0  0  0  0  0  0
    1.4692   -0.1045   -0.9795 C   0  0  0  0  0  0  0  0  0  0  0  0
    2.5648   -0.9358   -0.8208 C   0  0  0  0  0  0  0  0  0  0  0  0
    2.4463   -2.4512   -0.8413 C   0  0  0  0  0  0  0  0  0  0  0  0
    4.0017   -0.3870   -0.7381 C   0  0  0  0  0  0  0  0  0  0  0  0
    4.7068   -0.3762    0.6621 C   0  0  1  0  0  0  0  0  0  0  0  0
    4.8739   -1.7592    1.3096 C   0  0  0  0  0  0  0  0  0  0  0  0
    6.0841    0.4026    0.7185 C   0  0  2  0  0  0  0  0  0  0  0  0
    5.9249    1.8655    0.2488 C   0  0  0  0  0  0  0  0  0  0  0  0
    7.3574   -0.3074    0.1128 C   0  0  0  0  0  0  0  0  0  0  0  0
    8.6472    0.4426    0.5014 C   0  0  0  0  0  0  0  0  0  0  0  0
    7.3558   -0.5077   -1.4108 C   0  0  0  0  0  0  0  0  0  0  0  0
    3.6049    3.4142   -2.7261 H   0  0  0  0  0  0  0  0  0  0  0  0
    3.4610    3.2016   -0.9632 H   0  0  0  0  0  0  0  0  0  0  0  0
    2.0649    3.8753   -1.9427 H   0  0  0  0  0  0  0  0  0  0  0  0
    1.8771    1.7897   -0.1110 H   0  0  0  0  0  0  0  0  0  0  0  0
   -0.0541    1.7041   -2.5765 H   0  0  0  0  0  0  0  0  0  0  0  0
   -0.0562    2.9245   -1.2550 H   0  0  0  0  0  0  0  0  0  0  0  0
   -0.4692    1.1494    0.3499 H   0  0  0  0  0  0  0  0  0  0  0  0
   -2.5279    0.5056   -1.8451 H   0  0  0  0  0  0  0  0  0  0  0  0
   -2.4038    2.9252   -1.5467 H   0  0  0  0  0  0  0  0  0  0  0  0
   -2.3876    2.7460    0.2358 H   0  0  0  0  0  0  0  0  0  0  0  0
   -4.6207    3.3949   -0.5288 H   0  0  0  0  0  0  0  0  0  0  0  0
   -4.6431    2.6172   -2.5873 H   0  0  0  0  0  0  0  0  0  0  0  0
   -4.5354    2.9534    1.7747 H   0  0  0  0  0  0  0  0  0  0  0  0
   -6.8765    1.2089   -0.2877 H   0  0  0  0  0  0  0  0  0  0  0  0
   -6.6601    2.6691    0.7127 H   0  0  0  0  0  0  0  0  0  0  0  0
   -6.3916    1.3239    2.7677 H   0  0  0  0  0  0  0  0  0  0  0  0
   -8.6748    0.5626    1.2278 H   0  0  0  0  0  0  0  0  0  0  0  0
   -6.9713   -1.1479    1.0261 H   0  0  0  0  0  0  0  0  0  0  0  0
   -6.7394   -1.1098    2.7971 H   0  0  0  0  0  0  0  0  0  0  0  0
   -4.7049   -1.8397    1.6544 H   0  0  0  0  0  0  0  0  0  0  0  0
   -4.4170   -0.3302    2.5556 H   0  0  0  0  0  0  0  0  0  0  0  0
   -4.7228   -1.8643   -0.8353 H   0  0  0  0  0  0  0  0  0  0  0  0
   -4.5730   -0.4156   -1.8379 H   0  0  0  0  0  0  0  0  0  0  0  0
   -6.0706   -0.7274   -0.9351 H   0  0  0  0  0  0  0  0  0  0  0  0
   -2.4177    0.3055    1.2608 H   0  0  0  0  0  0  0  0  0  0  0  0
   -2.4380   -1.9242   -0.8750 H   0  0  0  0  0  0  0  0  0  0  0  0
   -3.2580   -3.8802    3.0462 H   0  0  0  0  0  0  0  0  0  0  0  0
   -2.8656   -5.3939    2.1360 H   0  0  0  0  0  0  0  0  0  0  0  0
   -4.5215   -4.6707    2.0251 H   0  0  0  0  0  0  0  0  0  0  0  0
   -0.1916   -2.4623    0.0173 H   0  0  0  0  0  0  0  0  0  0  0  0
   -0.2354   -1.0498    1.0933 H   0  0  0  0  0  0  0  0  0  0  0  0
    0.1619   -2.0322   -2.6225 H   0  0  0  0  0  0  0  0  0  0  0  0
    0.0349   -0.3816   -3.2469 H   0  0  0  0  0  0  0  0  0  0  0  0
   -1.4077   -1.2205   -2.6391 H   0  0  0  0  0  0  0  0  0  0  0  0
    1.4658   -2.8329   -1.1259 H   0  0  0  0  0  0  0  0  0  0  0  0
    2.6998   -2.9325    0.1106 H   0  0  0  0  0  0  0  0  0  0  0  0
    3.1262   -2.8461   -1.6244 H   0  0  0  0  0  0  0  0  0  0  0  0
    4.0039    0.6574   -1.0413 H   0  0  0  0  0  0  0  0  0  0  0  0
    4.5783   -0.9096   -1.5099 H   0  0  0  0  0  0  0  0  0  0  0  0
    4.0277    0.1988    1.3325 H   0  0  0  0  0  0  0  0  0  0  0  0
    5.4262   -2.4517    0.6404 H   0  0  0  0  0  0  0  0  0  0  0  0
    3.9003   -2.1856    1.5937 H   0  0  0  0  0  0  0  0  0  0  0  0
    5.4241   -1.6697    2.2707 H   0  0  0  0  0  0  0  0  0  0  0  0
    6.3002    0.4765    1.8094 H   0  0  0  0  0  0  0  0  0  0  0  0
    5.7746    1.9367   -0.8464 H   0  0  0  0  0  0  0  0  0  0  0  0
    6.8131    2.4730    0.5102 H   0  0  0  0  0  0  0  0  0  0  0  0
    5.0616    2.3362    0.7654 H   0  0  0  0  0  0  0  0  0  0  0  0
    7.4505   -1.3100    0.5812 H   0  0  0  0  0  0  0  0  0  0  0  0
    8.7053    1.4406    0.0210 H   0  0  0  0  0  0  0  0  0  0  0  0
    9.5386   -0.1346    0.1735 H   0  0  0  0  0  0  0  0  0  0  0  0
    8.7105    0.5616    1.6038 H   0  0  0  0  0  0  0  0  0  0  0  0
    7.2317    0.4555   -1.9476 H   0  0  0  0  0  0  0  0  0  0  0  0
    6.5904   -1.2300   -1.7260 H   0  0  0  0  0  0  0  0  0  0  0  0
    8.3177   -0.9610   -1.7331 H   0  0  0  0  0  0  0  0  0  0  0  0
  1  2  1  0  0  0  0
  1 39  1  0  0  0  0
  1 40  1  0  0  0  0
  1 41  1  0  0  0  0
  3  2  1  0  0  0  0
  3  4  1  0  0  0  0
  3 42  1  1  0  0  0
  4 43  1  0  0  0  0
  4 44  1  0  0  0  0
  5  4  1  0  0  0  0
  5  6  1  0  0  0  0
  5 45  1  1  0  0  0
  6  7  1  0  0  0  0
  6 46  1  6  0  0  0
  7  8  1  0  0  0  0
  7 47  1  0  0  0  0
  7 48  1  0  0  0  0
  8  9  1  0  0  0  0
  8 10  1  0  0  0  0
  8 49  1  1  0  0  0
  9 50  1  0  0  0  0
 10 11  1  1  0  0  0
 10 12  1  0  0  0  0
 11 51  1  0  0  0  0
 12 13  1  0  0  0  0
 12 52  1  0  0  0  0
 12 53  1  0  0  0  0
 13 14  1  0  0  0  0
 13 15  1  0  0  0  0
 13 54  1  1  0  0  0
 14 55  1  0  0  0  0
 15 16  1  0  0  0  0
 15 56  1  0  0  0  0
 15 57  1  0  0  0  0
 16 17  1  0  0  0  0
 16 58  1  0  0  0  0
 16 59  1  0  0  0  0
 17 18  1  6  0  0  0
 17 19  1  0  0  0  0
 17 10  1  0  0  0  0
 18 60  1  0  0  0  0
 18 61  1  0  0  0  0
 18 62  1  0  0  0  0
 19 20  1  0  0  0  0
 19  6  1  0  0  0  0
 19 63  1  1  0  0  0
 20 21  1  0  0  0  0
 20 25  1  0  0  0  0
 20 64  1  6  0  0  0
 21 22  1  0  0  0  0
 22 23  1  0  0  0  0
 22 24  2  0  0  0  0
 23 65  1  0  0  0  0
 23 66  1  0  0  0  0
 23 67  1  0  0  0  0
 25 26  1  0  0  0  0
 25 68  1  0  0  0  0
 25 69  1  0  0  0  0
 26 27  1  6  0  0  0
 26 28  1  0  0  0  0
 26  5  1  0  0  0  0
 27 70  1  0  0  0  0
 27 71  1  0  0  0  0
 27 72  1  0  0  0  0
 28 29  2  0  0  0  0
 28  3  1  0  0  0  0
 29 30  1  0  0  0  0
 29 31  1  0  0  0  0
 30 73  1  0  0  0  0
 30 74  1  0  0  0  0
 30 75  1  0  0  0  0
 31 32  1  0  0  0  0
 31 76  1  0  0  0  0
 31 77  1  0  0  0  0
 32 33  1  0  0  0  0
 32 34  1  0  0  0  0
 32 78  1  1  0  0  0
 33 79  1  0  0  0  0
 33 80  1  0  0  0  0
 33 81  1  0  0  0  0
 34 35  1  0  0  0  0
 34 36  1  0  0  0  0
 34 82  1  1  0  0  0
 35 83  1  0  0  0  0
 35 84  1  0  0  0  0
 35 85  1  0  0  0  0
 36 37  1  0  0  0  0
 36 38  1  0  0  0  0
 36 86  1  0  0  0  0
 37 87  1  0  0  0  0
 37 88  1  0  0  0  0
 37 89  1  0  0  0  0
 38 90  1  0  0  0  0
 38 91  1  0  0  0  0
 38 92  1  0  0  0  0
M  END
>  <IDENTIFIER>
CNP0435404.1

>  <Energy>
756.323

$$$$
