
 OpenBabel09132512373D

 33 35  0  0  0  0  0  0  0  0999 V2000
    3.5531    1.3746    0.5027 C   0  0  0  0  0  0  0  0  0  0  0  0
    2.7923    0.3505    0.0953 C   0  0  0  0  0  0  0  0  0  0  0  0
    3.1750   -0.6663   -0.8525 C   0  0  0  0  0  0  0  0  0  0  0  0
    4.2408   -0.7175   -1.4454 O   0  0  0  0  0  0  0  0  0  0  0  0
    2.2089   -1.5788   -1.0003 O   0  0  0  0  0  0  0  0  0  0  0  0
    1.1492   -1.3430   -0.1401 C   0  0  2  0  0  0  0  0  0  0  0  0
   -0.1868   -1.6152   -0.8562 C   0  0  0  0  0  0  0  0  0  0  0  0
   -1.4484   -1.4146    0.0054 C   0  0  1  0  0  0  0  0  0  0  0  0
   -1.3217   -2.0442    1.4040 C   0  0  0  0  0  0  0  0  0  0  0  0
   -1.9167    0.0553    0.0766 C   0  0  2  0  0  0  0  0  0  0  0  0
   -2.5466    0.5996   -1.1696 C   0  0  0  0  0  0  0  0  0  0  0  0
   -2.4724    1.9712   -1.1667 C   0  0  0  0  0  0  0  0  0  0  0  0
   -1.6492    2.3822   -0.0425 C   0  0  0  0  0  0  0  0  0  0  0  0
   -1.3529    3.5432    0.1931 O   0  0  0  0  0  0  0  0  0  0  0  0
   -0.9746    1.1846    0.5663 C   0  0  2  0  0  0  0  0  0  0  0  0
    0.4696    1.1953    0.0037 C   0  0  0  0  0  0  0  0  0  0  0  0
    1.3796    0.0627    0.5096 C   0  0  2  0  0  0  0  0  0  0  0  0
    4.5650    1.4957    0.1292 H   0  0  0  0  0  0  0  0  0  0  0  0
    3.1708    2.0951    1.2181 H   0  0  0  0  0  0  0  0  0  0  0  0
    1.2649   -2.0981    0.6687 H   0  0  0  0  0  0  0  0  0  0  0  0
   -0.1489   -2.6867   -1.1537 H   0  0  0  0  0  0  0  0  0  0  0  0
   -0.2748   -1.0247   -1.7936 H   0  0  0  0  0  0  0  0  0  0  0  0
   -2.2752   -1.9614   -0.5026 H   0  0  0  0  0  0  0  0  0  0  0  0
   -0.5623   -1.5207    2.0194 H   0  0  0  0  0  0  0  0  0  0  0  0
   -1.0474   -3.1171    1.3169 H   0  0  0  0  0  0  0  0  0  0  0  0
   -2.2924   -1.9809    1.9404 H   0  0  0  0  0  0  0  0  0  0  0  0
   -2.7938    0.0530    0.7665 H   0  0  0  0  0  0  0  0  0  0  0  0
   -3.1203    0.0311   -1.8900 H   0  0  0  0  0  0  0  0  0  0  0  0
   -2.9286    2.6221   -1.9008 H   0  0  0  0  0  0  0  0  0  0  0  0
   -0.9559    1.2034    1.6780 H   0  0  0  0  0  0  0  0  0  0  0  0
    0.9144    2.1510    0.3612 H   0  0  0  0  0  0  0  0  0  0  0  0
    0.4780    1.2207   -1.1099 H   0  0  0  0  0  0  0  0  0  0  0  0
    1.3127   -0.0040    1.6179 H   0  0  0  0  0  0  0  0  0  0  0  0
  1  2  2  0  0  0  0
  1 18  1  0  0  0  0
  1 19  1  0  0  0  0
  2  3  1  0  0  0  0
  3  4  2  0  0  0  0
  3  5  1  0  0  0  0
  5  6  1  0  0  0  0
  6  7  1  0  0  0  0
  6 20  1  1  0  0  0
  7  8  1  0  0  0  0
  7 21  1  0  0  0  0
  7 22  1  0  0  0  0
  8  9  1  0  0  0  0
  8 10  1  0  0  0  0
  8 23  1  6  0  0  0
  9 24  1  0  0  0  0
  9 25  1  0  0  0  0
  9 26  1  0  0  0  0
 10 11  1  0  0  0  0
 10 27  1  1  0  0  0
 11 12  2  0  0  0  0
 11 28  1  0  0  0  0
 12 13  1  0  0  0  0
 12 29  1  0  0  0  0
 13 14  2  0  0  0  0
 13 15  1  0  0  0  0
 15 16  1  0  0  0  0
 15 10  1  0  0  0  0
 15 30  1  1  0  0  0
 16 31  1  0  0  0  0
 16 32  1  0  0  0  0
 17 16  1  0  0  0  0
 17  2  1  0  0  0  0
 17  6  1  0  0  0  0
 17 33  1  1  0  0  0
M  END
>  <IDENTIFIER>
CNP0343145.1

>  <Energy>
451.291

$$$$
