
 OpenBabel09072513323D

 58 61  0  0  0  0  0  0  0  0999 V2000
    7.7024   -3.4769    0.1704 C   0  0  0  0  0  0  0  0  0  0  0  0
    6.3953   -3.9980    0.7681 C   0  0  0  0  0  0  0  0  0  0  0  0
    5.3673   -3.0814    0.6339 O   0  0  0  0  0  0  0  0  0  0  0  0
    4.8086   -2.6865   -0.5421 C   0  0  0  0  0  0  0  0  0  0  0  0
    5.1872   -3.1707   -1.6009 O   0  0  0  0  0  0  0  0  0  0  0  0
    3.7247   -1.6733   -0.5388 C   0  0  0  0  0  0  0  0  0  0  0  0
    3.2508   -1.1463    0.6701 C   0  0  0  0  0  0  0  0  0  0  0  0
    2.2334   -0.1911    0.6754 C   0  0  0  0  0  0  0  0  0  0  0  0
    1.6571    0.2732   -0.5225 C   0  0  0  0  0  0  0  0  0  0  0  0
    0.6300    1.2758   -0.4214 N   0  0  0  0  0  0  0  0  0  0  0  0
   -0.0275    1.9163   -1.4398 C   0  0  0  0  0  0  0  0  0  0  0  0
    0.2170    1.6605   -2.6066 O   0  0  0  0  0  0  0  0  0  0  0  0
   -1.0448    3.0289   -1.1728 C   0  0  2  0  0  0  0  0  0  0  0  0
   -0.3852    4.3607   -1.5373 C   0  0  0  0  0  0  0  0  0  0  0  0
    0.4732    4.6617   -0.2954 C   0  0  0  0  0  0  0  0  0  0  0  0
   -0.4261    4.1013    0.7567 C   0  0  0  0  0  0  0  0  0  0  0  0
   -0.4290    4.4653    1.9224 O   0  0  0  0  0  0  0  0  0  0  0  0
   -1.3148    3.2194    0.2413 N   0  0  0  0  0  0  0  0  0  0  0  0
   -2.4972    2.7341    0.9459 C   0  0  1  0  0  0  0  0  0  0  0  0
   -3.6348    3.2853    0.3627 O   0  0  0  0  0  0  0  0  0  0  0  0
   -4.4456    2.3216   -0.1171 C   0  0  0  0  0  0  0  0  0  0  0  0
   -5.5047    2.5446   -0.6807 O   0  0  0  0  0  0  0  0  0  0  0  0
   -3.8854    1.0217    0.1451 C   0  0  0  0  0  0  0  0  0  0  0  0
   -2.7027    1.2445    0.7967 C   0  0  0  0  0  0  0  0  0  0  0  0
   -1.9147    0.1749    1.2224 C   0  0  0  0  0  0  0  0  0  0  0  0
   -2.3470   -1.1338    0.9446 C   0  0  0  0  0  0  0  0  0  0  0  0
   -3.5715   -1.3634    0.2566 C   0  0  0  0  0  0  0  0  0  0  0  0
   -4.0200   -2.6131   -0.0326 O   0  0  0  0  0  0  0  0  0  0  0  0
   -3.3670   -3.7913    0.2631 C   0  0  0  0  0  0  0  0  0  0  0  0
   -4.3554   -0.2600   -0.1404 C   0  0  0  0  0  0  0  0  0  0  0  0
   -5.5313   -0.4331   -0.7825 O   0  0  0  0  0  0  0  0  0  0  0  0
   -6.7121   -0.6133   -0.0960 C   0  0  0  0  0  0  0  0  0  0  0  0
    2.1380   -0.2646   -1.7395 C   0  0  0  0  0  0  0  0  0  0  0  0
    3.1558   -1.2243   -1.7415 C   0  0  0  0  0  0  0  0  0  0  0  0
    8.5071   -4.2244    0.3339 H   0  0  0  0  0  0  0  0  0  0  0  0
    7.9924   -2.5243    0.6616 H   0  0  0  0  0  0  0  0  0  0  0  0
    7.6057   -3.3066   -0.9211 H   0  0  0  0  0  0  0  0  0  0  0  0
    6.5608   -4.1779    1.8514 H   0  0  0  0  0  0  0  0  0  0  0  0
    6.1094   -4.9627    0.2955 H   0  0  0  0  0  0  0  0  0  0  0  0
    3.6661   -1.4701    1.6164 H   0  0  0  0  0  0  0  0  0  0  0  0
    1.8952    0.1960    1.6287 H   0  0  0  0  0  0  0  0  0  0  0  0
    0.4086    1.5708    0.5367 H   0  0  0  0  0  0  0  0  0  0  0  0
   -1.9723    2.8202   -1.7505 H   0  0  0  0  0  0  0  0  0  0  0  0
   -1.2019    5.1199   -1.5592 H   0  0  0  0  0  0  0  0  0  0  0  0
    0.1452    4.4065   -2.5129 H   0  0  0  0  0  0  0  0  0  0  0  0
    0.6590    5.7535   -0.2146 H   0  0  0  0  0  0  0  0  0  0  0  0
    1.4238    4.0853   -0.2917 H   0  0  0  0  0  0  0  0  0  0  0  0
   -2.4696    3.0100    2.0223 H   0  0  0  0  0  0  0  0  0  0  0  0
   -0.9911    0.3391    1.7582 H   0  0  0  0  0  0  0  0  0  0  0  0
   -1.7277   -1.9583    1.2689 H   0  0  0  0  0  0  0  0  0  0  0  0
   -3.9762   -4.6442   -0.1000 H   0  0  0  0  0  0  0  0  0  0  0  0
   -3.2349   -3.8923    1.3615 H   0  0  0  0  0  0  0  0  0  0  0  0
   -2.3796   -3.8199   -0.2452 H   0  0  0  0  0  0  0  0  0  0  0  0
   -7.5416   -0.7357   -0.8224 H   0  0  0  0  0  0  0  0  0  0  0  0
   -6.9234    0.2733    0.5401 H   0  0  0  0  0  0  0  0  0  0  0  0
   -6.6543   -1.5213    0.5413 H   0  0  0  0  0  0  0  0  0  0  0  0
    1.7628    0.0258   -2.7031 H   0  0  0  0  0  0  0  0  0  0  0  0
    3.5028   -1.6119   -2.6912 H   0  0  0  0  0  0  0  0  0  0  0  0
  1  2  1  0  0  0  0
  1 35  1  0  0  0  0
  1 36  1  0  0  0  0
  1 37  1  0  0  0  0
  2  3  1  0  0  0  0
  2 38  1  0  0  0  0
  2 39  1  0  0  0  0
  3  4  1  0  0  0  0
  4  5  2  0  0  0  0
  4  6  1  0  0  0  0
  6  7  2  0  0  0  0
  7  8  1  0  0  0  0
  7 40  1  0  0  0  0
  8  9  2  0  0  0  0
  8 41  1  0  0  0  0
  9 10  1  0  0  0  0
  9 33  1  0  0  0  0
 10 11  1  0  0  0  0
 10 42  1  0  0  0  0
 11 12  2  0  0  0  0
 13 11  1  0  0  0  0
 13 14  1  0  0  0  0
 13 43  1  6  0  0  0
 14 15  1  0  0  0  0
 14 44  1  0  0  0  0
 14 45  1  0  0  0  0
 15 16  1  0  0  0  0
 15 46  1  0  0  0  0
 15 47  1  0  0  0  0
 16 17  2  0  0  0  0
 16 18  1  0  0  0  0
 18 13  1  0  0  0  0
 19 18  1  0  0  0  0
 19 20  1  0  0  0  0
 19 48  1  1  0  0  0
 20 21  1  0  0  0  0
 21 22  2  0  0  0  0
 21 23  1  0  0  0  0
 23 24  2  0  0  0  0
 24 25  1  0  0  0  0
 24 19  1  0  0  0  0
 25 26  2  0  0  0  0
 25 49  1  0  0  0  0
 26 27  1  0  0  0  0
 26 50  1  0  0  0  0
 27 28  1  0  0  0  0
 27 30  2  0  0  0  0
 28 29  1  0  0  0  0
 29 51  1  0  0  0  0
 29 52  1  0  0  0  0
 29 53  1  0  0  0  0
 30 31  1  0  0  0  0
 30 23  1  0  0  0  0
 31 32  1  0  0  0  0
 32 54  1  0  0  0  0
 32 55  1  0  0  0  0
 32 56  1  0  0  0  0
 33 34  2  0  0  0  0
 33 57  1  0  0  0  0
 34  6  1  0  0  0  0
 34 58  1  0  0  0  0
M  END
>  <IDENTIFIER>
CNP0375290.2

>  <Energy>
606.536

$$$$
