
 OpenBabel09072518332D

 52 58  0  0  0  0  0  0  0  0999 V2000
   -6.9121    1.0815    0.2752 C   0  0  0  0  0  0  0  0  0  0  0  0
   -5.6811    0.5724    0.1343 C   0  0  0  0  0  0  0  0  0  0  0  0
   -4.4656    1.4827    0.1630 C   0  0  0  0  0  0  0  0  0  0  0  0
   -3.1767    0.6566   -0.0229 C   0  0  2  0  0  0  0  0  0  0  0  0
   -1.7603    1.3943    0.4979 C   0  0  0  0  0  0  0  0  0  0  0  0
   -0.5377    0.2076    0.5950 C   0  0  1  0  0  0  0  0  0  0  0  0
   -0.7507   -1.4513    0.7123 C   0  0  2  0  0  0  0  0  0  0  0  0
    0.6008   -1.9812    0.2203 C   0  0  1  0  0  0  0  0  0  0  0  0
    1.7378   -1.8156    1.2623 C   0  0  0  0  0  0  0  0  0  0  0  0
    0.5651   -3.4738   -0.2410 C   0  0  0  0  0  0  0  0  0  0  0  0
   -0.8371   -4.0343   -0.5492 C   0  0  2  0  0  0  0  0  0  0  0  0
   -1.4914   -4.3404    0.6584 O   0  0  0  0  0  0  0  0  0  0  0  0
   -1.6764   -3.0386   -1.3440 C   0  0  0  0  0  0  0  0  0  0  0  0
   -1.9922   -1.7805   -0.4525 C   0  0  1  0  0  0  0  0  0  0  0  0
   -3.2815   -0.5910   -1.1191 C   0  0  2  0  0  0  0  0  0  0  0  0
   -4.7471   -1.1522   -1.3344 C   0  0  2  0  0  0  0  0  0  0  0  0
   -4.7151   -2.5012   -1.7110 O   0  0  0  0  0  0  0  0  0  0  0  0
   -5.4504   -0.9298   -0.0324 C   0  0  1  0  0  0  0  0  0  0  0  0
   -4.4309   -1.3130    1.0022 C   0  0  2  0  0  0  0  0  0  0  0  0
   -4.2259   -2.7044    1.0282 O   0  0  0  0  0  0  0  0  0  0  0  0
   -3.0168   -0.4795    0.6684 C   0  0  2  0  0  0  0  0  0  0  0  0
   -2.5975   -0.2583    2.0420 O   0  0  0  0  0  0  0  0  0  0  0  0
   -1.6943   -0.6621   -0.8303 C   0  0  1  0  0  0  0  0  0  0  0  0
   -0.3533   -0.0027   -0.7169 N   0  0  2  0  0  0  0  0  0  0  0  0
    0.7550   -0.9756   -0.9108 C   0  0  0  0  0  0  0  0  0  0  0  0
   -7.0562    2.1506    0.4001 H   0  0  0  0  0  0  0  0  0  0  0  0
   -7.7872    0.4399    0.2643 H   0  0  0  0  0  0  0  0  0  0  0  0
   -4.5283    2.2394   -0.6477 H   0  0  0  0  0  0  0  0  0  0  0  0
   -4.4360    2.0034    1.1444 H   0  0  0  0  0  0  0  0  0  0  0  0
   -1.9125    1.8636    1.4968 H   0  0  0  0  0  0  0  0  0  0  0  0
   -1.4648    2.2278   -0.1764 H   0  0  0  0  0  0  0  0  0  0  0  0
    0.3578    0.6420    1.0849 H   0  0  0  0  0  0  0  0  0  0  0  0
   -0.9376   -1.9272    1.6960 H   0  0  0  0  0  0  0  0  0  0  0  0
    1.8575   -0.7815    1.6347 H   0  0  0  0  0  0  0  0  0  0  0  0
    2.7076   -2.1202    0.8131 H   0  0  0  0  0  0  0  0  0  0  0  0
    1.5423   -2.4644    2.1430 H   0  0  0  0  0  0  0  0  0  0  0  0
    1.2400   -3.5747   -1.1194 H   0  0  0  0  0  0  0  0  0  0  0  0
    0.9818   -4.1517    0.5370 H   0  0  0  0  0  0  0  0  0  0  0  0
   -0.6855   -4.9777   -1.1255 H   0  0  0  0  0  0  0  0  0  0  0  0
   -2.1669   -5.0386    0.4539 H   0  0  0  0  0  0  0  0  0  0  0  0
   -2.6200   -3.5438   -1.6124 H   0  0  0  0  0  0  0  0  0  0  0  0
   -1.1462   -2.8283   -2.2979 H   0  0  0  0  0  0  0  0  0  0  0  0
   -3.2805   -0.1126   -2.2006 H   0  0  0  0  0  0  0  0  0  0  0  0
   -5.3220   -0.5788   -2.1072 H   0  0  0  0  0  0  0  0  0  0  0  0
   -5.6510   -2.7678   -1.9098 H   0  0  0  0  0  0  0  0  0  0  0  0
   -6.4121   -1.4869    0.0372 H   0  0  0  0  0  0  0  0  0  0  0  0
   -4.8874   -0.9950    1.9738 H   0  0  0  0  0  0  0  0  0  0  0  0
   -3.8378   -2.9239    1.9136 H   0  0  0  0  0  0  0  0  0  0  0  0
   -2.6352   -1.0945    2.5753 H   0  0  0  0  0  0  0  0  0  0  0  0
   -1.4222   -0.7744   -2.0196 H   0  0  0  0  0  0  0  0  0  0  0  0
    1.7386   -0.4554   -0.8825 H   0  0  0  0  0  0  0  0  0  0  0  0
    0.6811   -1.4389   -1.9181 H   0  0  0  0  0  0  0  0  0  0  0  0
  1  2  2  0  0  0  0
  1 26  1  0  0  0  0
  1 27  1  0  0  0  0
  2  3  1  0  0  0  0
  3 28  1  0  0  0  0
  3 29  1  0  0  0  0
  4  3  1  1  0  0  0
  4  5  1  0  0  0  0
  5 30  1  0  0  0  0
  5 31  1  0  0  0  0
  6  5  1  0  0  0  0
  6  7  1  0  0  0  0
  6 32  1  1  0  0  0
  7  8  1  0  0  0  0
  7 33  1  1  0  0  0
  8  9  1  1  0  0  0
  8 10  1  0  0  0  0
  9 34  1  0  0  0  0
  9 35  1  0  0  0  0
  9 36  1  0  0  0  0
 10 11  1  0  0  0  0
 10 37  1  0  0  0  0
 10 38  1  0  0  0  0
 11 12  1  0  0  0  0
 11 13  1  0  0  0  0
 11 39  1  1  0  0  0
 12 40  1  0  0  0  0
 13 41  1  0  0  0  0
 13 42  1  0  0  0  0
 14 13  1  6  0  0  0
 14 15  1  0  0  0  0
 14  7  1  0  0  0  0
 15 16  1  0  0  0  0
 15  4  1  0  0  0  0
 15 43  1  1  0  0  0
 16 17  1  0  0  0  0
 16 18  1  0  0  0  0
 16 44  1  1  0  0  0
 17 45  1  0  0  0  0
 18 19  1  0  0  0  0
 18  2  1  0  0  0  0
 18 46  1  1  0  0  0
 19 20  1  0  0  0  0
 19 21  1  0  0  0  0
 19 47  1  6  0  0  0
 20 48  1  0  0  0  0
 21 22  1  1  0  0  0
 21 23  1  0  0  0  0
 21  4  1  0  0  0  0
 22 49  1  0  0  0  0
 23 24  1  0  0  0  0
 23 14  1  0  0  0  0
 23 50  1  6  0  0  0
 24 25  1  1  0  0  0
 24  6  1  0  0  0  0
 25  8  1  0  0  0  0
 25 51  1  0  0  0  0
 25 52  1  0  0  0  0
M  END
>  <IDENTIFIER>
CNP0227922.5

>  <Energy>
4323.49

$$$$
