
 OpenBabel09112509063D

 33 35  0  0  0  0  0  0  0  0999 V2000
    4.9852   -0.7649   -0.8547 C   0  0  0  0  0  0  0  0  0  0  0  0
    4.1594    0.0306   -0.0875 O   0  0  0  0  0  0  0  0  0  0  0  0
    2.8003   -0.0068   -0.0841 C   0  0  0  0  0  0  0  0  0  0  0  0
    2.0729   -0.9073   -0.9065 C   0  0  0  0  0  0  0  0  0  0  0  0
    0.6835   -0.8818   -0.8437 C   0  0  0  0  0  0  0  0  0  0  0  0
    0.0169   -0.0142   -0.0126 C   0  0  0  0  0  0  0  0  0  0  0  0
    0.6897    0.8828    0.8082 C   0  0  0  0  0  0  0  0  0  0  0  0
    2.1066    0.8894    0.7743 C   0  0  0  0  0  0  0  0  0  0  0  0
    2.8356    1.7375    1.5475 O   0  0  0  0  0  0  0  0  0  0  0  0
    2.3178    2.6650    2.4289 C   0  0  0  0  0  0  0  0  0  0  0  0
   -1.3269   -0.2529   -0.1978 C   0  0  0  0  0  0  0  0  0  0  0  0
   -1.4108   -1.2547   -1.1332 C   0  0  0  0  0  0  0  0  0  0  0  0
   -0.1829   -1.6500   -1.5377 N   0  0  0  0  0  0  0  0  0  0  0  0
   -2.7141   -1.7668   -1.5759 C   0  0  0  0  0  0  0  0  0  0  0  0
   -2.7935   -2.6571   -2.4071 O   0  0  0  0  0  0  0  0  0  0  0  0
   -3.9395   -1.1653   -0.9772 C   0  0  0  0  0  0  0  0  0  0  0  0
   -3.8631   -0.1720   -0.0493 C   0  0  0  0  0  0  0  0  0  0  0  0
   -5.1152    0.4199    0.5409 C   0  0  0  0  0  0  0  0  0  0  0  0
   -2.5315    0.3456    0.3972 C   0  0  0  0  0  0  0  0  0  0  0  0
   -2.4460    1.2359    1.2289 O   0  0  0  0  0  0  0  0  0  0  0  0
    6.0419   -0.5041   -0.6405 H   0  0  0  0  0  0  0  0  0  0  0  0
    4.7899   -0.5922   -1.9347 H   0  0  0  0  0  0  0  0  0  0  0  0
    4.8273   -1.8359   -0.6048 H   0  0  0  0  0  0  0  0  0  0  0  0
    2.5655   -1.6033   -1.5723 H   0  0  0  0  0  0  0  0  0  0  0  0
    0.1316    1.5504    1.4491 H   0  0  0  0  0  0  0  0  0  0  0  0
    3.1513    3.2105    2.9158 H   0  0  0  0  0  0  0  0  0  0  0  0
    1.7204    2.1555    3.2153 H   0  0  0  0  0  0  0  0  0  0  0  0
    1.6838    3.3984    1.8858 H   0  0  0  0  0  0  0  0  0  0  0  0
    0.0456   -2.3904   -2.2384 H   0  0  0  0  0  0  0  0  0  0  0  0
   -4.9077   -1.5383   -1.2990 H   0  0  0  0  0  0  0  0  0  0  0  0
   -6.0328   -0.0498    0.1271 H   0  0  0  0  0  0  0  0  0  0  0  0
   -5.1487    1.5079    0.3219 H   0  0  0  0  0  0  0  0  0  0  0  0
   -5.1110    0.2721    1.6413 H   0  0  0  0  0  0  0  0  0  0  0  0
  1  2  1  0  0  0  0
  1 21  1  0  0  0  0
  1 22  1  0  0  0  0
  1 23  1  0  0  0  0
  2  3  1  0  0  0  0
  3  4  2  0  0  0  0
  4  5  1  0  0  0  0
  4 24  1  0  0  0  0
  5  6  2  0  0  0  0
  6  7  1  0  0  0  0
  6 11  1  0  0  0  0
  7  8  2  0  0  0  0
  7 25  1  0  0  0  0
  8  9  1  0  0  0  0
  8  3  1  0  0  0  0
  9 10  1  0  0  0  0
 10 26  1  0  0  0  0
 10 27  1  0  0  0  0
 10 28  1  0  0  0  0
 11 12  2  0  0  0  0
 12 13  1  0  0  0  0
 12 14  1  0  0  0  0
 13  5  1  0  0  0  0
 13 29  1  0  0  0  0
 14 15  2  0  0  0  0
 14 16  1  0  0  0  0
 16 17  2  0  0  0  0
 16 30  1  0  0  0  0
 17 18  1  0  0  0  0
 17 19  1  0  0  0  0
 18 31  1  0  0  0  0
 18 32  1  0  0  0  0
 18 33  1  0  0  0  0
 19 20  2  0  0  0  0
 19 11  1  0  0  0  0
M  END
>  <IDENTIFIER>
CNP0280741.0

>  <Energy>
305.42

$$$$
