
 OpenBabel09072502493D

 52 54  0  0  0  0  0  0  0  0999 V2000
   -6.7547    0.7585    3.2400 C   0  0  0  0  0  0  0  0  0  0  0  0
   -6.2447   -0.0628    2.2554 O   0  0  0  0  0  0  0  0  0  0  0  0
   -4.9270   -0.2947    2.0131 C   0  0  0  0  0  0  0  0  0  0  0  0
   -3.9058    0.3208    2.7654 C   0  0  0  0  0  0  0  0  0  0  0  0
   -2.5646    0.0648    2.4790 C   0  0  0  0  0  0  0  0  0  0  0  0
   -2.2136   -0.8174    1.4492 C   0  0  0  0  0  0  0  0  0  0  0  0
   -0.7583   -1.0761    1.1483 C   0  0  0  0  0  0  0  0  0  0  0  0
   -0.1392    0.1382    0.6432 N   0  0  0  0  0  0  0  0  0  0  0  0
    0.8470    0.8530    1.2206 C   0  0  0  0  0  0  0  0  0  0  0  0
    1.3703    0.5568    2.2843 O   0  0  0  0  0  0  0  0  0  0  0  0
    1.1900    1.9471    0.5062 N   0  0  0  0  0  0  0  0  0  0  0  0
    0.3687    1.9973   -0.6861 C   0  0  1  0  0  0  0  0  0  0  0  0
    1.2024    1.9979   -1.9859 C   0  0  0  0  0  0  0  0  0  0  0  0
    2.2558    0.9172   -2.1306 C   0  0  0  0  0  0  0  0  0  0  0  0
    2.4439    0.1114   -1.2368 O   0  0  0  0  0  0  0  0  0  0  0  0
    2.9816    0.8647   -3.2808 N   0  0  0  0  0  0  0  0  0  0  0  0
    4.0712   -0.0610   -3.5694 C   0  0  0  0  0  0  0  0  0  0  0  0
    5.3886    0.3465   -2.8759 C   0  0  0  0  0  0  0  0  0  0  0  0
    5.6194   -0.1179   -1.4642 C   0  0  0  0  0  0  0  0  0  0  0  0
    4.9317   -1.0816   -0.7485 C   0  0  0  0  0  0  0  0  0  0  0  0
    5.5656   -1.1718    0.4700 C   0  0  0  0  0  0  0  0  0  0  0  0
    6.6086   -0.2732    0.4270 C   0  0  0  0  0  0  0  0  0  0  0  0
    6.6217    0.3294   -0.7392 O   0  0  0  0  0  0  0  0  0  0  0  0
   -0.4641    0.7653   -0.5054 C   0  0  0  0  0  0  0  0  0  0  0  0
   -1.3351    0.3805   -1.2723 O   0  0  0  0  0  0  0  0  0  0  0  0
   -3.2247   -1.4383    0.7004 C   0  0  0  0  0  0  0  0  0  0  0  0
   -4.5841   -1.1731    0.9711 C   0  0  0  0  0  0  0  0  0  0  0  0
   -5.5890   -1.7343    0.2468 O   0  0  0  0  0  0  0  0  0  0  0  0
   -5.4335   -2.5473   -0.8564 C   0  0  0  0  0  0  0  0  0  0  0  0
   -7.8624    0.7441    3.1861 H   0  0  0  0  0  0  0  0  0  0  0  0
   -6.4066    1.8026    3.0882 H   0  0  0  0  0  0  0  0  0  0  0  0
   -6.4441    0.3936    4.2421 H   0  0  0  0  0  0  0  0  0  0  0  0
   -4.1388    1.0040    3.5708 H   0  0  0  0  0  0  0  0  0  0  0  0
   -1.7952    0.5526    3.0654 H   0  0  0  0  0  0  0  0  0  0  0  0
   -0.6393   -1.8733    0.3824 H   0  0  0  0  0  0  0  0  0  0  0  0
   -0.2607   -1.4278    2.0779 H   0  0  0  0  0  0  0  0  0  0  0  0
    1.9072    2.6362    0.7757 H   0  0  0  0  0  0  0  0  0  0  0  0
   -0.2858    2.8958   -0.6725 H   0  0  0  0  0  0  0  0  0  0  0  0
    1.7267    2.9748   -2.0542 H   0  0  0  0  0  0  0  0  0  0  0  0
    0.4977    1.9276   -2.8434 H   0  0  0  0  0  0  0  0  0  0  0  0
    2.7339    1.5311   -4.0293 H   0  0  0  0  0  0  0  0  0  0  0  0
    4.2874    0.0616   -4.6545 H   0  0  0  0  0  0  0  0  0  0  0  0
    3.7866   -1.1247   -3.4277 H   0  0  0  0  0  0  0  0  0  0  0  0
    5.4760    1.4535   -2.9304 H   0  0  0  0  0  0  0  0  0  0  0  0
    6.2409   -0.0734   -3.4528 H   0  0  0  0  0  0  0  0  0  0  0  0
    4.0847   -1.6713   -1.0682 H   0  0  0  0  0  0  0  0  0  0  0  0
    5.3065   -1.8265    1.2911 H   0  0  0  0  0  0  0  0  0  0  0  0
    7.3239   -0.0896    1.2181 H   0  0  0  0  0  0  0  0  0  0  0  0
   -2.9457   -2.1109   -0.0990 H   0  0  0  0  0  0  0  0  0  0  0  0
   -6.4343   -2.8342   -1.2391 H   0  0  0  0  0  0  0  0  0  0  0  0
   -4.8797   -3.4697   -0.5822 H   0  0  0  0  0  0  0  0  0  0  0  0
   -4.8931   -2.0007   -1.6594 H   0  0  0  0  0  0  0  0  0  0  0  0
  1  2  1  0  0  0  0
  1 30  1  0  0  0  0
  1 31  1  0  0  0  0
  1 32  1  0  0  0  0
  2  3  1  0  0  0  0
  3  4  2  0  0  0  0
  4  5  1  0  0  0  0
  4 33  1  0  0  0  0
  5  6  2  0  0  0  0
  5 34  1  0  0  0  0
  6  7  1  0  0  0  0
  6 26  1  0  0  0  0
  7  8  1  0  0  0  0
  7 35  1  0  0  0  0
  7 36  1  0  0  0  0
  8  9  1  0  0  0  0
  9 10  2  0  0  0  0
  9 11  1  0  0  0  0
 11 12  1  0  0  0  0
 11 37  1  0  0  0  0
 12 13  1  0  0  0  0
 12 24  1  0  0  0  0
 12 38  1  1  0  0  0
 13 14  1  0  0  0  0
 13 39  1  0  0  0  0
 13 40  1  0  0  0  0
 14 15  2  0  0  0  0
 14 16  1  0  0  0  0
 16 17  1  0  0  0  0
 16 41  1  0  0  0  0
 17 18  1  0  0  0  0
 17 42  1  0  0  0  0
 17 43  1  0  0  0  0
 18 19  1  0  0  0  0
 18 44  1  0  0  0  0
 18 45  1  0  0  0  0
 19 20  2  0  0  0  0
 20 21  1  0  0  0  0
 20 46  1  0  0  0  0
 21 22  2  0  0  0  0
 21 47  1  0  0  0  0
 22 23  1  0  0  0  0
 22 48  1  0  0  0  0
 23 19  1  0  0  0  0
 24 25  2  0  0  0  0
 24  8  1  0  0  0  0
 26 27  2  0  0  0  0
 26 49  1  0  0  0  0
 27 28  1  0  0  0  0
 27  3  1  0  0  0  0
 28 29  1  0  0  0  0
 29 50  1  0  0  0  0
 29 51  1  0  0  0  0
 29 52  1  0  0  0  0
M  END
>  <IDENTIFIER>
CNP0403917.1

>  <Energy>
483.462

$$$$
