
 OpenBabel09092504473D

 33 35  0  0  0  0  0  0  0  0999 V2000
   -3.7789    0.1760   -0.4695 C   0  0  0  0  0  0  0  0  0  0  0  0
   -2.2999    0.0835   -0.0509 C   0  0  0  0  0  0  0  0  0  0  0  0
   -2.0979   -1.2562    0.6988 C   0  0  0  0  0  0  0  0  0  0  0  0
   -1.9502    1.2842    0.8967 C   0  0  0  0  0  0  0  0  0  0  0  0
   -0.4559    1.4399    1.1175 C   0  0  0  0  0  0  0  0  0  0  0  0
   -0.0280    2.1935    1.9770 O   0  0  0  0  0  0  0  0  0  0  0  0
    0.4680    0.7379    0.2111 C   0  0  0  0  0  0  0  0  0  0  0  0
    0.0553    0.1363   -0.9120 C   0  0  0  0  0  0  0  0  0  0  0  0
   -1.3949    0.1313   -1.3159 C   0  0  0  0  0  0  0  0  0  0  0  0
    1.0846   -0.4567   -1.5947 O   0  0  0  0  0  0  0  0  0  0  0  0
    2.1409   -0.5367   -0.7035 C   0  0  1  0  0  0  0  0  0  0  0  0
    2.0562   -1.8949    0.0453 C   0  0  0  0  0  0  0  0  0  0  0  0
    3.4298   -0.3446   -1.1528 O   0  0  0  0  0  0  0  0  0  0  0  0
    4.1086    0.2620   -0.1278 C   0  0  0  0  0  0  0  0  0  0  0  0
    5.3268    0.2785   -0.0646 O   0  0  0  0  0  0  0  0  0  0  0  0
    3.1908    0.7774    0.9725 C   0  0  0  0  0  0  0  0  0  0  0  0
    1.9365    0.6958    0.1350 C   0  0  2  0  0  0  0  0  0  0  0  0
   -4.4415    0.1451    0.4225 H   0  0  0  0  0  0  0  0  0  0  0  0
   -4.0499   -0.6695   -1.1382 H   0  0  0  0  0  0  0  0  0  0  0  0
   -3.9727    1.1253   -1.0139 H   0  0  0  0  0  0  0  0  0  0  0  0
   -2.7676   -1.3118    1.5838 H   0  0  0  0  0  0  0  0  0  0  0  0
   -1.0610   -1.3723    1.0674 H   0  0  0  0  0  0  0  0  0  0  0  0
   -2.3289   -2.1155    0.0330 H   0  0  0  0  0  0  0  0  0  0  0  0
   -2.4686    1.1321    1.8688 H   0  0  0  0  0  0  0  0  0  0  0  0
   -2.3074    2.2465    0.4694 H   0  0  0  0  0  0  0  0  0  0  0  0
   -1.5980   -0.7000   -2.0249 H   0  0  0  0  0  0  0  0  0  0  0  0
   -1.5932    1.0880   -1.8472 H   0  0  0  0  0  0  0  0  0  0  0  0
    2.2088   -2.7219   -0.6801 H   0  0  0  0  0  0  0  0  0  0  0  0
    1.0656   -2.0340    0.5216 H   0  0  0  0  0  0  0  0  0  0  0  0
    2.8308   -1.9871    0.8334 H   0  0  0  0  0  0  0  0  0  0  0  0
    3.3837    1.8258    1.2873 H   0  0  0  0  0  0  0  0  0  0  0  0
    3.2117    0.0859    1.8407 H   0  0  0  0  0  0  0  0  0  0  0  0
    2.0863    1.5750   -0.5573 H   0  0  0  0  0  0  0  0  0  0  0  0
  1  2  1  0  0  0  0
  1 18  1  0  0  0  0
  1 19  1  0  0  0  0
  1 20  1  0  0  0  0
  2  3  1  0  0  0  0
  2  4  1  0  0  0  0
  3 21  1  0  0  0  0
  3 22  1  0  0  0  0
  3 23  1  0  0  0  0
  4  5  1  0  0  0  0
  4 24  1  0  0  0  0
  4 25  1  0  0  0  0
  5  6  2  0  0  0  0
  5  7  1  0  0  0  0
  7  8  2  0  0  0  0
  8  9  1  0  0  0  0
  8 10  1  0  0  0  0
  9  2  1  0  0  0  0
  9 26  1  0  0  0  0
  9 27  1  0  0  0  0
 10 11  1  0  0  0  0
 11 12  1  1  0  0  0
 11 13  1  0  0  0  0
 12 28  1  0  0  0  0
 12 29  1  0  0  0  0
 12 30  1  0  0  0  0
 13 14  1  0  0  0  0
 14 15  2  0  0  0  0
 14 16  1  0  0  0  0
 16 31  1  0  0  0  0
 16 32  1  0  0  0  0
 17 16  1  0  0  0  0
 17 11  1  0  0  0  0
 17  7  1  0  0  0  0
 17 33  1  6  0  0  0
M  END
>  <IDENTIFIER>
CNP0367777.4

>  <Energy>
610.317

$$$$
