
 OpenBabel09052512443D

 77 77  0  0  0  0  0  0  0  0999 V2000
    0.7507    0.3782    1.7711 C   0  0  0  0  0  0  0  0  0  0  0  0
    1.7973    1.3042    1.5640 O   0  0  0  0  0  0  0  0  0  0  0  0
    2.6676    0.8710    0.5304 C   0  0  2  0  0  0  0  0  0  0  0  0
    3.8215    0.1094    1.1810 C   0  0  0  0  0  0  0  0  0  0  0  0
    5.1168    0.4792    1.1545 C   0  0  0  0  0  0  0  0  0  0  0  0
    6.2123   -0.3506    1.7676 C   0  0  0  0  0  0  0  0  0  0  0  0
    7.1974   -0.7566    0.6591 C   0  0  0  0  0  0  0  0  0  0  0  0
    8.4102   -1.5472    1.0942 C   0  0  0  0  0  0  0  0  0  0  0  0
    8.6952   -1.9023    2.3607 C   0  0  0  0  0  0  0  0  0  0  0  0
    9.9182   -2.6727    2.7001 C   0  0  0  0  0  0  0  0  0  0  0  0
   10.7007   -3.0154    1.8290 O   0  0  0  0  0  0  0  0  0  0  0  0
   10.1799   -2.9995    3.9833 O   0  0  0  0  0  0  0  0  0  0  0  0
    3.1048    2.1018   -0.3435 C   0  0  1  0  0  0  0  0  0  0  0  0
    4.1102    1.7697   -1.2738 O   0  0  0  0  0  0  0  0  0  0  0  0
    2.0094    2.9590   -1.0713 C   0  0  2  0  0  0  0  0  0  0  0  0
    0.9012    3.4358   -0.1170 C   0  0  0  0  0  0  0  0  0  0  0  0
    1.3874    2.4720   -2.4294 C   0  0  1  0  0  0  0  0  0  0  0  0
    2.3508    2.3886   -3.4528 O   0  0  0  0  0  0  0  0  0  0  0  0
    0.4372    1.2593   -2.4356 C   0  0  0  0  0  0  0  0  0  0  0  0
    0.9600   -0.1582   -2.3615 C   0  0  0  0  0  0  0  0  0  0  0  0
   -0.8962    1.4797   -2.5805 C   0  0  0  0  0  0  0  0  0  0  0  0
   -1.9688    0.4006   -2.6656 C   0  0  2  0  0  0  0  0  0  0  0  0
   -2.6479    0.5193   -4.0365 C   0  0  0  0  0  0  0  0  0  0  0  0
   -2.9816    0.5371   -1.5394 C   0  0  0  0  0  0  0  0  0  0  0  0
   -2.8819    1.4567   -0.7368 O   0  0  0  0  0  0  0  0  0  0  0  0
   -4.1075   -0.4715   -1.3957 C   0  0  0  0  0  0  0  0  0  0  0  0
   -5.0726   -0.1230   -0.2497 C   0  0  0  0  0  0  0  0  0  0  0  0
   -6.2439   -1.1206   -0.1604 C   0  0  0  0  0  0  0  0  0  0  0  0
   -7.3733   -0.6224    0.7850 C   0  0  0  0  0  0  0  0  0  0  0  0
   -6.9646   -0.5309    2.2795 C   0  0  0  0  0  0  0  0  0  0  0  0
   -6.9208   -1.8905    2.9504 C   0  0  0  0  0  0  0  0  0  0  0  0
   -6.3383   -2.0051    4.0181 O   0  0  0  0  0  0  0  0  0  0  0  0
   -7.5242   -2.9793    2.3929 N   0  0  0  0  0  0  0  0  0  0  0  0
   -8.2822   -2.8815    1.2668 C   0  0  0  0  0  0  0  0  0  0  0  0
   -8.7329   -3.8889    0.7430 O   0  0  0  0  0  0  0  0  0  0  0  0
   -8.6041   -1.5277    0.6874 C   0  0  0  0  0  0  0  0  0  0  0  0
    0.1239    0.7437    2.6110 H   0  0  0  0  0  0  0  0  0  0  0  0
    1.1414   -0.6199    2.0621 H   0  0  0  0  0  0  0  0  0  0  0  0
    0.0907    0.3098    0.8783 H   0  0  0  0  0  0  0  0  0  0  0  0
    2.1864    0.1537   -0.1492 H   0  0  0  0  0  0  0  0  0  0  0  0
    3.5609   -0.8111    1.6961 H   0  0  0  0  0  0  0  0  0  0  0  0
    5.4336    1.3941    0.6719 H   0  0  0  0  0  0  0  0  0  0  0  0
    5.8012   -1.2638    2.2534 H   0  0  0  0  0  0  0  0  0  0  0  0
    6.7279    0.2661    2.5341 H   0  0  0  0  0  0  0  0  0  0  0  0
    7.5718    0.1632    0.1579 H   0  0  0  0  0  0  0  0  0  0  0  0
    6.6488   -1.3649   -0.0927 H   0  0  0  0  0  0  0  0  0  0  0  0
    9.0938   -1.8324    0.2997 H   0  0  0  0  0  0  0  0  0  0  0  0
    8.0338   -1.6283    3.1740 H   0  0  0  0  0  0  0  0  0  0  0  0
    9.5897   -2.7428    4.7051 H   0  0  0  0  0  0  0  0  0  0  0  0
    3.5722    2.7903    0.3962 H   0  0  0  0  0  0  0  0  0  0  0  0
    3.9691    0.8368   -1.5759 H   0  0  0  0  0  0  0  0  0  0  0  0
    2.5608    3.8849   -1.3583 H   0  0  0  0  0  0  0  0  0  0  0  0
    0.2278    2.6040    0.1639 H   0  0  0  0  0  0  0  0  0  0  0  0
    0.2778    4.2125   -0.6092 H   0  0  0  0  0  0  0  0  0  0  0  0
    1.3423    3.8900    0.7957 H   0  0  0  0  0  0  0  0  0  0  0  0
    0.7691    3.3465   -2.7321 H   0  0  0  0  0  0  0  0  0  0  0  0
    2.8047    1.5132   -3.4050 H   0  0  0  0  0  0  0  0  0  0  0  0
    2.0598   -0.2092   -2.2950 H   0  0  0  0  0  0  0  0  0  0  0  0
    0.6788   -0.7064   -3.2852 H   0  0  0  0  0  0  0  0  0  0  0  0
    0.5263   -0.6815   -1.4835 H   0  0  0  0  0  0  0  0  0  0  0  0
   -1.2558    2.5033   -2.6563 H   0  0  0  0  0  0  0  0  0  0  0  0
   -1.5296   -0.6127   -2.5911 H   0  0  0  0  0  0  0  0  0  0  0  0
   -3.1448    1.5085   -4.1433 H   0  0  0  0  0  0  0  0  0  0  0  0
   -3.4026   -0.2795   -4.1832 H   0  0  0  0  0  0  0  0  0  0  0  0
   -1.8919    0.4137   -4.8444 H   0  0  0  0  0  0  0  0  0  0  0  0
   -3.6710   -1.4805   -1.2328 H   0  0  0  0  0  0  0  0  0  0  0  0
   -4.6951   -0.4856   -2.3369 H   0  0  0  0  0  0  0  0  0  0  0  0
   -5.4846    0.8883   -0.4596 H   0  0  0  0  0  0  0  0  0  0  0  0
   -4.5149   -0.0964    0.7095 H   0  0  0  0  0  0  0  0  0  0  0  0
   -5.8697   -2.1260    0.1318 H   0  0  0  0  0  0  0  0  0  0  0  0
   -6.6891   -1.2013   -1.1769 H   0  0  0  0  0  0  0  0  0  0  0  0
   -7.6544    0.3945    0.4322 H   0  0  0  0  0  0  0  0  0  0  0  0
   -7.7018    0.0794    2.8445 H   0  0  0  0  0  0  0  0  0  0  0  0
   -5.9886   -0.0149    2.3723 H   0  0  0  0  0  0  0  0  0  0  0  0
   -7.4045   -3.9030    2.8381 H   0  0  0  0  0  0  0  0  0  0  0  0
   -9.3999   -1.0712    1.3160 H   0  0  0  0  0  0  0  0  0  0  0  0
   -9.0018   -1.6094   -0.3478 H   0  0  0  0  0  0  0  0  0  0  0  0
  1  2  1  0  0  0  0
  1 37  1  0  0  0  0
  1 38  1  0  0  0  0
  1 39  1  0  0  0  0
  3  2  1  0  0  0  0
  3  4  1  0  0  0  0
  3 13  1  0  0  0  0
  3 40  1  6  0  0  0
  4  5  2  0  0  0  0
  4 41  1  0  0  0  0
  5  6  1  0  0  0  0
  5 42  1  0  0  0  0
  6  7  1  0  0  0  0
  6 43  1  0  0  0  0
  6 44  1  0  0  0  0
  7  8  1  0  0  0  0
  7 45  1  0  0  0  0
  7 46  1  0  0  0  0
  8  9  2  0  0  0  0
  8 47  1  0  0  0  0
  9 10  1  0  0  0  0
  9 48  1  0  0  0  0
 10 11  2  0  0  0  0
 10 12  1  0  0  0  0
 12 49  1  0  0  0  0
 13 14  1  0  0  0  0
 13 15  1  0  0  0  0
 13 50  1  1  0  0  0
 14 51  1  0  0  0  0
 15 16  1  0  0  0  0
 15 17  1  0  0  0  0
 15 52  1  6  0  0  0
 16 53  1  0  0  0  0
 16 54  1  0  0  0  0
 16 55  1  0  0  0  0
 17 18  1  0  0  0  0
 17 19  1  0  0  0  0
 17 56  1  6  0  0  0
 18 57  1  0  0  0  0
 19 20  1  0  0  0  0
 19 21  2  0  0  0  0
 20 58  1  0  0  0  0
 20 59  1  0  0  0  0
 20 60  1  0  0  0  0
 21 22  1  0  0  0  0
 21 61  1  0  0  0  0
 22 23  1  0  0  0  0
 22 24  1  0  0  0  0
 22 62  1  1  0  0  0
 23 63  1  0  0  0  0
 23 64  1  0  0  0  0
 23 65  1  0  0  0  0
 24 25  2  0  0  0  0
 24 26  1  0  0  0  0
 26 27  1  0  0  0  0
 26 66  1  0  0  0  0
 26 67  1  0  0  0  0
 27 28  1  0  0  0  0
 27 68  1  0  0  0  0
 27 69  1  0  0  0  0
 28 29  1  0  0  0  0
 28 70  1  0  0  0  0
 28 71  1  0  0  0  0
 29 30  1  0  0  0  0
 29 72  1  0  0  0  0
 30 31  1  0  0  0  0
 30 73  1  0  0  0  0
 30 74  1  0  0  0  0
 31 32  2  0  0  0  0
 31 33  1  0  0  0  0
 33 34  1  0  0  0  0
 33 75  1  0  0  0  0
 34 35  2  0  0  0  0
 34 36  1  0  0  0  0
 36 29  1  0  0  0  0
 36 76  1  0  0  0  0
 36 77  1  0  0  0  0
M  END
>  <IDENTIFIER>
CNP0278287.4

>  <Energy>
475.133

$$$$
