
 OpenBabel09122500003D

 40 42  0  0  0  0  0  0  0  0999 V2000
   -1.7750    3.1929    1.0247 C   0  0  0  0  0  0  0  0  0  0  0  0
   -0.9361    2.2619    0.5365 C   0  0  0  0  0  0  0  0  0  0  0  0
    0.4236    2.7832    0.0630 C   0  0  0  0  0  0  0  0  0  0  0  0
    1.4349    1.7840   -0.4980 C   0  0  0  0  0  0  0  0  0  0  0  0
    1.7777    0.7004    0.5419 C   0  0  1  0  0  0  0  0  0  0  0  0
    0.7950   -0.4885    0.7269 C   0  0  1  0  0  0  0  0  0  0  0  0
   -0.5344   -0.2912   -0.0380 C   0  0  2  0  0  0  0  0  0  0  0  0
   -1.4216    0.8040    0.5652 C   0  0  2  0  0  0  0  0  0  0  0  0
   -2.7043    0.5661   -0.2412 C   0  0  0  0  0  0  0  0  0  0  0  0
   -2.8941   -0.9382   -0.0856 C   0  0  0  0  0  0  0  0  0  0  0  0
   -1.4620   -1.5414   -0.0562 C   0  0  1  0  0  0  0  0  0  0  0  0
   -1.1630   -2.4315   -1.2756 C   0  0  0  0  0  0  0  0  0  0  0  0
   -1.2968   -2.2871    1.1301 O   0  0  0  0  0  0  0  0  0  0  0  0
    2.1636   -0.6945    0.0576 C   0  0  0  0  0  0  0  0  0  0  0  0
    3.2247   -1.3746    0.9318 C   0  0  0  0  0  0  0  0  0  0  0  0
    2.2482   -1.0229   -1.4450 C   0  0  0  0  0  0  0  0  0  0  0  0
   -1.4940    4.2423    1.0542 H   0  0  0  0  0  0  0  0  0  0  0  0
   -2.7551    2.9274    1.4103 H   0  0  0  0  0  0  0  0  0  0  0  0
    0.9038    3.2884    0.9308 H   0  0  0  0  0  0  0  0  0  0  0  0
    0.2524    3.5520   -0.7225 H   0  0  0  0  0  0  0  0  0  0  0  0
    2.3735    2.3309   -0.7319 H   0  0  0  0  0  0  0  0  0  0  0  0
    1.0706    1.4168   -1.4691 H   0  0  0  0  0  0  0  0  0  0  0  0
    2.1936    1.0271    1.5206 H   0  0  0  0  0  0  0  0  0  0  0  0
    0.7296   -0.7433    1.8075 H   0  0  0  0  0  0  0  0  0  0  0  0
   -0.3875   -0.0055   -1.0942 H   0  0  0  0  0  0  0  0  0  0  0  0
   -1.6187    0.5524    1.6350 H   0  0  0  0  0  0  0  0  0  0  0  0
   -2.5175    0.8135   -1.3116 H   0  0  0  0  0  0  0  0  0  0  0  0
   -3.5940    1.1369    0.0999 H   0  0  0  0  0  0  0  0  0  0  0  0
   -3.6070   -1.4000   -0.8021 H   0  0  0  0  0  0  0  0  0  0  0  0
   -3.3329   -1.0654    0.9313 H   0  0  0  0  0  0  0  0  0  0  0  0
   -1.8580   -3.2976   -1.2966 H   0  0  0  0  0  0  0  0  0  0  0  0
   -0.1239   -2.8172   -1.2233 H   0  0  0  0  0  0  0  0  0  0  0  0
   -1.2924   -1.8620   -2.2209 H   0  0  0  0  0  0  0  0  0  0  0  0
   -1.9528   -3.0331    1.1118 H   0  0  0  0  0  0  0  0  0  0  0  0
    3.1557   -2.4760    0.8124 H   0  0  0  0  0  0  0  0  0  0  0  0
    3.1025   -1.1350    2.0104 H   0  0  0  0  0  0  0  0  0  0  0  0
    4.2349   -1.0417    0.6128 H   0  0  0  0  0  0  0  0  0  0  0  0
    2.2276   -2.1242   -1.5764 H   0  0  0  0  0  0  0  0  0  0  0  0
    3.2141   -0.6458   -1.8417 H   0  0  0  0  0  0  0  0  0  0  0  0
    1.4389   -0.6125   -2.0698 H   0  0  0  0  0  0  0  0  0  0  0  0
  1  2  2  0  0  0  0
  1 17  1  0  0  0  0
  1 18  1  0  0  0  0
  2  3  1  0  0  0  0
  3  4  1  0  0  0  0
  3 19  1  0  0  0  0
  3 20  1  0  0  0  0
  4 21  1  0  0  0  0
  4 22  1  0  0  0  0
  5  4  1  0  0  0  0
  5  6  1  0  0  0  0
  5 23  1  1  0  0  0
  6  7  1  0  0  0  0
  6 14  1  0  0  0  0
  6 24  1  1  0  0  0
  7  8  1  0  0  0  0
  7 11  1  0  0  0  0
  7 25  1  6  0  0  0
  8  9  1  0  0  0  0
  8  2  1  0  0  0  0
  8 26  1  1  0  0  0
  9 10  1  0  0  0  0
  9 27  1  0  0  0  0
  9 28  1  0  0  0  0
 10 11  1  0  0  0  0
 10 29  1  0  0  0  0
 10 30  1  0  0  0  0
 11 12  1  0  0  0  0
 11 13  1  1  0  0  0
 12 31  1  0  0  0  0
 12 32  1  0  0  0  0
 12 33  1  0  0  0  0
 13 34  1  0  0  0  0
 14 15  1  0  0  0  0
 14 16  1  0  0  0  0
 14  5  1  0  0  0  0
 15 35  1  0  0  0  0
 15 36  1  0  0  0  0
 15 37  1  0  0  0  0
 16 38  1  0  0  0  0
 16 39  1  0  0  0  0
 16 40  1  0  0  0  0
M  END
>  <IDENTIFIER>
CNP0141421.18

>  <Energy>
1765.07

$$$$
