
 OpenBabel09042517003D

 74 79  0  0  0  0  0  0  0  0999 V2000
   -2.1564    6.4355   -1.0062 C   0  0  0  0  0  0  0  0  0  0  0  0
   -2.3816    5.2599   -0.4087 C   0  0  0  0  0  0  0  0  0  0  0  0
   -1.3921    4.1440   -0.2549 C   0  0  0  0  0  0  0  0  0  0  0  0
    0.0127    4.1742   -0.2734 C   0  0  0  0  0  0  0  0  0  0  0  0
    0.9469    5.3534   -0.3787 C   0  0  0  0  0  0  0  0  0  0  0  0
    0.4437    2.8575   -0.1130 C   0  0  0  0  0  0  0  0  0  0  0  0
    1.7422    2.4686   -0.0452 C   0  0  0  0  0  0  0  0  0  0  0  0
    2.2794    1.0795    0.0908 C   0  0  0  0  0  0  0  0  0  0  0  0
    1.5906    0.0185   -0.0862 N   0  0  0  0  0  0  0  0  0  0  0  0
    2.4084   -1.1294   -0.0125 C   0  0  0  0  0  0  0  0  0  0  0  0
    1.9038   -2.3718   -0.2195 C   0  0  0  0  0  0  0  0  0  0  0  0
    2.6403   -3.7161   -0.2708 C   0  0  0  0  0  0  0  0  0  0  0  0
    1.5385   -4.7297   -0.5443 C   0  0  0  0  0  0  0  0  0  0  0  0
    1.7014   -5.9324   -0.6690 O   0  0  0  0  0  0  0  0  0  0  0  0
    0.2625   -4.0483   -0.5934 C   0  0  0  0  0  0  0  0  0  0  0  0
   -1.0398   -4.2618   -0.7217 C   0  0  0  0  0  0  0  0  0  0  0  0
   -1.7402   -5.5694   -0.9259 C   0  0  0  0  0  0  0  0  0  0  0  0
   -1.6322   -2.9143   -0.5375 C   0  0  0  0  0  0  0  0  0  0  0  0
   -2.9370   -2.6330   -0.3626 C   0  0  0  0  0  0  0  0  0  0  0  0
   -3.4200   -1.2656   -0.0362 C   0  0  0  0  0  0  0  0  0  0  0  0
   -4.5853   -0.9419    0.6549 C   0  0  0  0  0  0  0  0  0  0  0  0
   -5.6005   -1.9138    1.2103 C   0  0  0  0  0  0  0  0  0  0  0  0
   -6.4246   -2.5796    0.1122 C   0  0  0  0  0  0  0  0  0  0  0  0
   -4.5819    0.4482    0.7860 C   0  0  0  0  0  0  0  0  0  0  0  0
   -5.5915    1.3223    1.4756 C   0  0  0  0  0  0  0  0  0  0  0  0
   -3.4230    0.9036    0.1714 C   0  0  0  0  0  0  0  0  0  0  0  0
   -3.0124    2.3273    0.0517 C   0  0  0  0  0  0  0  0  0  0  0  0
   -1.7424    2.7990   -0.0674 C   0  0  0  0  0  0  0  0  0  0  0  0
   -0.6208    2.0422    0.0040 N   0  0  0  0  0  0  0  0  0  0  0  0
   -2.7449   -0.1392   -0.3378 N   0  0  0  0  0  0  0  0  0  0  0  0
   -0.5737   -1.9715   -0.3901 N   0  0  0  0  0  0  0  0  0  0  0  0
    0.4901   -2.6741   -0.4233 C   0  0  0  0  0  0  0  0  0  0  0  0
    3.8288   -0.7501    0.3594 C   0  0  1  0  0  0  0  0  0  0  0  0
    4.9548   -1.3136   -0.5450 C   0  0  0  0  0  0  0  0  0  0  0  0
    6.3933   -1.0382   -0.0537 C   0  0  0  0  0  0  0  0  0  0  0  0
    6.8670    0.3769   -0.2485 C   0  0  0  0  0  0  0  0  0  0  0  0
    7.2677    1.0246    0.7051 O   0  0  0  0  0  0  0  0  0  0  0  0
    6.9171    0.9212   -1.4821 O   0  0  0  0  0  0  0  0  0  0  0  0
    3.7352    0.8026    0.3594 C   0  0  2  0  0  0  0  0  0  0  0  0
    4.1483    1.4068    1.7096 C   0  0  0  0  0  0  0  0  0  0  0  0
   -2.9647    7.1570   -1.0782 H   0  0  0  0  0  0  0  0  0  0  0  0
   -1.2253    6.7032   -1.4738 H   0  0  0  0  0  0  0  0  0  0  0  0
   -3.3951    5.1095   -0.0599 H   0  0  0  0  0  0  0  0  0  0  0  0
    0.4487    6.3303   -0.3566 H   0  0  0  0  0  0  0  0  0  0  0  0
    1.5570    5.2672   -1.3024 H   0  0  0  0  0  0  0  0  0  0  0  0
    1.6219    5.3582    0.5019 H   0  0  0  0  0  0  0  0  0  0  0  0
    2.5070    3.2360   -0.0976 H   0  0  0  0  0  0  0  0  0  0  0  0
    3.1541   -3.9326    0.6888 H   0  0  0  0  0  0  0  0  0  0  0  0
    3.3468   -3.7498   -1.1239 H   0  0  0  0  0  0  0  0  0  0  0  0
   -1.0085   -6.4000   -1.0082 H   0  0  0  0  0  0  0  0  0  0  0  0
   -2.3329   -5.5224   -1.8639 H   0  0  0  0  0  0  0  0  0  0  0  0
   -2.4207   -5.7665   -0.0730 H   0  0  0  0  0  0  0  0  0  0  0  0
   -3.6310   -3.4625   -0.3547 H   0  0  0  0  0  0  0  0  0  0  0  0
   -6.3153   -1.4005    1.8802 H   0  0  0  0  0  0  0  0  0  0  0  0
   -5.0727   -2.6767    1.8223 H   0  0  0  0  0  0  0  0  0  0  0  0
   -6.9885   -1.8080   -0.4534 H   0  0  0  0  0  0  0  0  0  0  0  0
   -7.1510   -3.2805    0.5757 H   0  0  0  0  0  0  0  0  0  0  0  0
   -5.7956   -3.1504   -0.5955 H   0  0  0  0  0  0  0  0  0  0  0  0
   -6.4306    0.7489    1.9096 H   0  0  0  0  0  0  0  0  0  0  0  0
   -6.0124    2.0489    0.7512 H   0  0  0  0  0  0  0  0  0  0  0  0
   -5.0918    1.8772    2.2978 H   0  0  0  0  0  0  0  0  0  0  0  0
   -3.8345    3.0278    0.0777 H   0  0  0  0  0  0  0  0  0  0  0  0
   -0.5659    1.0239    0.1905 H   0  0  0  0  0  0  0  0  0  0  0  0
   -1.8779   -0.0861   -0.9044 H   0  0  0  0  0  0  0  0  0  0  0  0
    3.9721   -1.1530    1.3867 H   0  0  0  0  0  0  0  0  0  0  0  0
    4.8235   -0.9966   -1.6011 H   0  0  0  0  0  0  0  0  0  0  0  0
    4.8819   -2.4108   -0.5081 H   0  0  0  0  0  0  0  0  0  0  0  0
    7.0839   -1.6799   -0.6421 H   0  0  0  0  0  0  0  0  0  0  0  0
    6.4823   -1.3418    1.0140 H   0  0  0  0  0  0  0  0  0  0  0  0
    6.6539    0.4219   -2.2671 H   0  0  0  0  0  0  0  0  0  0  0  0
    4.3145    1.2469   -0.4772 H   0  0  0  0  0  0  0  0  0  0  0  0
    3.4998    1.0171    2.5238 H   0  0  0  0  0  0  0  0  0  0  0  0
    4.0554    2.5129    1.6819 H   0  0  0  0  0  0  0  0  0  0  0  0
    5.1933    1.1514    1.9588 H   0  0  0  0  0  0  0  0  0  0  0  0
  1  2  2  0  0  0  0
  1 41  1  0  0  0  0
  1 42  1  0  0  0  0
  2  3  1  0  0  0  0
  2 43  1  0  0  0  0
  3  4  2  0  0  0  0
  4  5  1  0  0  0  0
  4  6  1  0  0  0  0
  5 44  1  0  0  0  0
  5 45  1  0  0  0  0
  5 46  1  0  0  0  0
  6  7  2  0  0  0  0
  7  8  1  0  0  0  0
  7 47  1  0  0  0  0
  8  9  2  0  0  0  0
  9 10  1  0  0  0  0
 10 11  2  0  0  0  0
 10 33  1  0  0  0  0
 11 12  1  0  0  0  0
 12 13  1  0  0  0  0
 12 48  1  0  0  0  0
 12 49  1  0  0  0  0
 13 14  2  0  0  0  0
 13 15  1  0  0  0  0
 15 16  2  0  0  0  0
 16 17  1  0  0  0  0
 16 18  1  0  0  0  0
 17 50  1  0  0  0  0
 17 51  1  0  0  0  0
 17 52  1  0  0  0  0
 18 19  2  0  0  0  0
 18 31  1  0  0  0  0
 19 20  1  0  0  0  0
 19 53  1  0  0  0  0
 20 21  2  0  0  0  0
 21 22  1  0  0  0  0
 21 24  1  0  0  0  0
 22 23  1  0  0  0  0
 22 54  1  0  0  0  0
 22 55  1  0  0  0  0
 23 56  1  0  0  0  0
 23 57  1  0  0  0  0
 23 58  1  0  0  0  0
 24 25  1  0  0  0  0
 24 26  2  0  0  0  0
 25 59  1  0  0  0  0
 25 60  1  0  0  0  0
 25 61  1  0  0  0  0
 26 27  1  0  0  0  0
 26 30  1  0  0  0  0
 27 28  2  0  0  0  0
 27 62  1  0  0  0  0
 28 29  1  0  0  0  0
 28  3  1  0  0  0  0
 29  6  1  0  0  0  0
 29 63  1  0  0  0  0
 30 20  1  0  0  0  0
 30 64  1  0  0  0  0
 31 32  2  0  0  0  0
 32 11  1  0  0  0  0
 32 15  1  0  0  0  0
 33 34  1  0  0  0  0
 33 39  1  0  0  0  0
 33 65  1  1  0  0  0
 34 35  1  0  0  0  0
 34 66  1  0  0  0  0
 34 67  1  0  0  0  0
 35 36  1  0  0  0  0
 35 68  1  0  0  0  0
 35 69  1  0  0  0  0
 36 37  2  0  0  0  0
 36 38  1  0  0  0  0
 38 70  1  0  0  0  0
 39 40  1  0  0  0  0
 39  8  1  0  0  0  0
 39 71  1  6  0  0  0
 40 72  1  0  0  0  0
 40 73  1  0  0  0  0
 40 74  1  0  0  0  0
M  END
>  <IDENTIFIER>
CNP0075414.1

>  <Energy>
1116.09

$$$$
