
 OpenBabel09062501453D

 80 84  0  0  0  0  0  0  0  0999 V2000
   -3.8823    2.5286   -2.1967 C   0  0  0  0  0  0  0  0  0  0  0  0
   -3.8199    1.1473   -1.5685 C   0  0  0  0  0  0  0  0  0  0  0  0
   -4.4857    0.1271   -2.1041 C   0  0  0  0  0  0  0  0  0  0  0  0
   -4.5260   -1.0179   -1.1666 C   0  0  0  0  0  0  0  0  0  0  0  0
   -4.3045   -0.2932    0.1789 C   0  0  1  0  0  0  0  0  0  0  0  0
   -4.3192   -1.2233    1.4606 C   0  0  0  0  0  0  0  0  0  0  0  0
   -5.3209   -2.3880    1.2937 C   0  0  0  0  0  0  0  0  0  0  0  0
   -4.7651   -0.4795    2.7470 C   0  0  0  0  0  0  0  0  0  0  0  0
   -3.1533    0.7323   -0.2335 C   0  0  2  0  0  0  0  0  0  0  0  0
   -2.9828    1.9734    0.7054 C   0  0  0  0  0  0  0  0  0  0  0  0
   -1.4690    2.2655    0.7772 C   0  0  0  0  0  0  0  0  0  0  0  0
   -0.8290    0.8566    0.7326 C   0  0  2  0  0  0  0  0  0  0  0  0
   -1.1354    0.1938    2.1320 C   0  0  0  0  0  0  0  0  0  0  0  0
    0.7479    0.7616    0.5699 C   0  0  2  0  0  0  0  0  0  0  0  0
    1.4998    1.9399   -0.0694 C   0  0  0  0  0  0  0  0  0  0  0  0
    3.0234    1.7609    0.1438 C   0  0  0  0  0  0  0  0  0  0  0  0
    3.5497    0.4121   -0.4334 C   0  0  1  0  0  0  0  0  0  0  0  0
    5.1287    0.2781   -0.4621 C   0  0  0  0  0  0  0  0  0  0  0  0
    5.8111    0.4070    0.9234 C   0  0  0  0  0  0  0  0  0  0  0  0
    5.7456    1.3963   -1.3456 C   0  0  0  0  0  0  0  0  0  0  0  0
    5.4884   -1.0757   -1.1414 C   0  0  0  0  0  0  0  0  0  0  0  0
    4.7812   -2.2844   -0.5158 C   0  0  0  0  0  0  0  0  0  0  0  0
    3.2499   -2.1098   -0.5919 C   0  0  0  0  0  0  0  0  0  0  0  0
    2.7567   -0.8400    0.1638 C   0  0  1  0  0  0  0  0  0  0  0  0
    2.9286   -1.0931    1.6977 C   0  0  0  0  0  0  0  0  0  0  0  0
    1.2339   -0.5676   -0.1526 C   0  0  1  0  0  0  0  0  0  0  0  0
    0.2087   -1.7253   -0.0086 C   0  0  0  0  0  0  0  0  0  0  0  0
   -1.2556   -1.3442   -0.4851 C   0  0  0  0  0  0  0  0  0  0  0  0
   -1.6084    0.1997   -0.4525 C   0  0  1  0  0  0  0  0  0  0  0  0
   -1.1184    0.7662   -1.8539 C   0  0  0  0  0  0  0  0  0  0  0  0
   -4.4612    2.5081   -3.1437 H   0  0  0  0  0  0  0  0  0  0  0  0
   -2.8910    2.9488   -2.4304 H   0  0  0  0  0  0  0  0  0  0  0  0
   -4.4046    3.2329   -1.5190 H   0  0  0  0  0  0  0  0  0  0  0  0
   -5.0833    0.1970   -3.0044 H   0  0  0  0  0  0  0  0  0  0  0  0
   -3.7354   -1.7490   -1.4189 H   0  0  0  0  0  0  0  0  0  0  0  0
   -5.5213   -1.5077   -1.2126 H   0  0  0  0  0  0  0  0  0  0  0  0
   -5.2397    0.3119    0.3066 H   0  0  0  0  0  0  0  0  0  0  0  0
   -3.3414   -1.6985    1.6304 H   0  0  0  0  0  0  0  0  0  0  0  0
   -6.3498   -2.0031    1.1201 H   0  0  0  0  0  0  0  0  0  0  0  0
   -5.3329   -3.0285    2.2018 H   0  0  0  0  0  0  0  0  0  0  0  0
   -5.0309   -3.0482    0.4503 H   0  0  0  0  0  0  0  0  0  0  0  0
   -5.7887   -0.0665    2.6192 H   0  0  0  0  0  0  0  0  0  0  0  0
   -4.1251    0.3494    3.0705 H   0  0  0  0  0  0  0  0  0  0  0  0
   -4.7854   -1.1882    3.6031 H   0  0  0  0  0  0  0  0  0  0  0  0
   -3.2882    1.7047    1.7180 H   0  0  0  0  0  0  0  0  0  0  0  0
   -3.6197    2.8552    0.5018 H   0  0  0  0  0  0  0  0  0  0  0  0
   -1.1842    2.8747    1.6622 H   0  0  0  0  0  0  0  0  0  0  0  0
   -1.1843    2.8587   -0.1096 H   0  0  0  0  0  0  0  0  0  0  0  0
   -0.7151    0.8219    2.9476 H   0  0  0  0  0  0  0  0  0  0  0  0
   -0.7200   -0.8017    2.2983 H   0  0  0  0  0  0  0  0  0  0  0  0
   -2.1820    0.0682    2.3517 H   0  0  0  0  0  0  0  0  0  0  0  0
    1.1063    0.8103    1.6113 H   0  0  0  0  0  0  0  0  0  0  0  0
    1.2008    2.8951    0.4125 H   0  0  0  0  0  0  0  0  0  0  0  0
    1.2751    2.0177   -1.1519 H   0  0  0  0  0  0  0  0  0  0  0  0
    3.2539    1.8171    1.2282 H   0  0  0  0  0  0  0  0  0  0  0  0
    3.5100    2.6242   -0.3488 H   0  0  0  0  0  0  0  0  0  0  0  0
    3.2760    0.4414   -1.5147 H   0  0  0  0  0  0  0  0  0  0  0  0
    5.5675    1.3825    1.3938 H   0  0  0  0  0  0  0  0  0  0  0  0
    6.9158    0.3612    0.8083 H   0  0  0  0  0  0  0  0  0  0  0  0
    5.5698   -0.3867    1.6331 H   0  0  0  0  0  0  0  0  0  0  0  0
    5.5956    2.4053   -0.9126 H   0  0  0  0  0  0  0  0  0  0  0  0
    5.3106    1.3835   -2.3681 H   0  0  0  0  0  0  0  0  0  0  0  0
    6.8443    1.2544   -1.4456 H   0  0  0  0  0  0  0  0  0  0  0  0
    6.5892   -1.2359   -1.1293 H   0  0  0  0  0  0  0  0  0  0  0  0
    5.1729   -1.0406   -2.2089 H   0  0  0  0  0  0  0  0  0  0  0  0
    5.1318   -2.4413    0.5213 H   0  0  0  0  0  0  0  0  0  0  0  0
    5.0644   -3.1956   -1.0856 H   0  0  0  0  0  0  0  0  0  0  0  0
    2.7611   -3.0214   -0.1864 H   0  0  0  0  0  0  0  0  0  0  0  0
    2.9767   -2.0322   -1.6680 H   0  0  0  0  0  0  0  0  0  0  0  0
    2.2245   -1.8799    2.0344 H   0  0  0  0  0  0  0  0  0  0  0  0
    2.7709   -0.1979    2.3229 H   0  0  0  0  0  0  0  0  0  0  0  0
    3.9030   -1.4903    1.9930 H   0  0  0  0  0  0  0  0  0  0  0  0
    1.2446   -0.4446   -1.2361 H   0  0  0  0  0  0  0  0  0  0  0  0
    0.2074   -2.0608    1.0371 H   0  0  0  0  0  0  0  0  0  0  0  0
    0.5176   -2.6351   -0.5643 H   0  0  0  0  0  0  0  0  0  0  0  0
   -1.9175   -1.9580    0.1382 H   0  0  0  0  0  0  0  0  0  0  0  0
   -1.4225   -1.7197   -1.5183 H   0  0  0  0  0  0  0  0  0  0  0  0
   -0.1139    0.5571   -2.1977 H   0  0  0  0  0  0  0  0  0  0  0  0
   -1.1751    1.8555   -1.9385 H   0  0  0  0  0  0  0  0  0  0  0  0
   -1.7236    0.3248   -2.6738 H   0  0  0  0  0  0  0  0  0  0  0  0
  1  2  1  0  0  0  0
  1 31  1  0  0  0  0
  1 32  1  0  0  0  0
  1 33  1  0  0  0  0
  2  3  2  0  0  0  0
  3  4  1  0  0  0  0
  3 34  1  0  0  0  0
  4  5  1  0  0  0  0
  4 35  1  0  0  0  0
  4 36  1  0  0  0  0
  5  6  1  0  0  0  0
  5  9  1  0  0  0  0
  5 37  1  1  0  0  0
  6  7  1  0  0  0  0
  6  8  1  0  0  0  0
  6 38  1  0  0  0  0
  7 39  1  0  0  0  0
  7 40  1  0  0  0  0
  7 41  1  0  0  0  0
  8 42  1  0  0  0  0
  8 43  1  0  0  0  0
  8 44  1  0  0  0  0
  9 10  1  0  0  0  0
  9  2  1  6  0  0  0
 10 11  1  0  0  0  0
 10 45  1  0  0  0  0
 10 46  1  0  0  0  0
 11 12  1  0  0  0  0
 11 47  1  0  0  0  0
 11 48  1  0  0  0  0
 12 13  1  1  0  0  0
 12 14  1  0  0  0  0
 13 49  1  0  0  0  0
 13 50  1  0  0  0  0
 13 51  1  0  0  0  0
 14 15  1  0  0  0  0
 14 52  1  1  0  0  0
 15 16  1  0  0  0  0
 15 53  1  0  0  0  0
 15 54  1  0  0  0  0
 16 55  1  0  0  0  0
 16 56  1  0  0  0  0
 17 16  1  0  0  0  0
 17 18  1  0  0  0  0
 17 57  1  6  0  0  0
 18 19  1  0  0  0  0
 18 20  1  0  0  0  0
 18 21  1  0  0  0  0
 19 58  1  0  0  0  0
 19 59  1  0  0  0  0
 19 60  1  0  0  0  0
 20 61  1  0  0  0  0
 20 62  1  0  0  0  0
 20 63  1  0  0  0  0
 21 22  1  0  0  0  0
 21 64  1  0  0  0  0
 21 65  1  0  0  0  0
 22 23  1  0  0  0  0
 22 66  1  0  0  0  0
 22 67  1  0  0  0  0
 23 24  1  0  0  0  0
 23 68  1  0  0  0  0
 23 69  1  0  0  0  0
 24 25  1  1  0  0  0
 24 26  1  0  0  0  0
 24 17  1  0  0  0  0
 25 70  1  0  0  0  0
 25 71  1  0  0  0  0
 25 72  1  0  0  0  0
 26 27  1  0  0  0  0
 26 14  1  0  0  0  0
 26 73  1  6  0  0  0
 27 28  1  0  0  0  0
 27 74  1  0  0  0  0
 27 75  1  0  0  0  0
 28 29  1  0  0  0  0
 28 76  1  0  0  0  0
 28 77  1  0  0  0  0
 29 30  1  6  0  0  0
 29 12  1  0  0  0  0
 29  9  1  0  0  0  0
 30 78  1  0  0  0  0
 30 79  1  0  0  0  0
 30 80  1  0  0  0  0
M  END
>  <IDENTIFIER>
CNP0412532.1

>  <Energy>
1237.11

$$$$
