
 OpenBabel09072506173D

164163  0  0  0  0  0  0  0  0999 V2000
   21.2387    0.6290   -1.9841 C   0  0  0  0  0  0  0  0  0  0  0  0
   20.4991    1.3251   -0.8405 C   0  0  0  0  0  0  0  0  0  0  0  0
   18.9842    1.0547   -0.8306 C   0  0  0  0  0  0  0  0  0  0  0  0
   18.6453   -0.4293   -0.5971 C   0  0  0  0  0  0  0  0  0  0  0  0
   17.1494   -0.7912   -0.6521 C   0  0  0  0  0  0  0  0  0  0  0  0
   16.2797   -0.4829    0.5840 C   0  0  0  0  0  0  0  0  0  0  0  0
   15.9851    1.0070    0.8454 C   0  0  0  0  0  0  0  0  0  0  0  0
   15.0014    1.2716    2.0043 C   0  0  0  0  0  0  0  0  0  0  0  0
   13.4894    1.1593    1.7052 C   0  0  0  0  0  0  0  0  0  0  0  0
   13.0060   -0.2255    1.2569 C   0  0  0  0  0  0  0  0  0  0  0  0
   11.4790   -0.3448    1.1212 C   0  0  0  0  0  0  0  0  0  0  0  0
   10.7378   -0.2775    2.4673 C   0  0  0  0  0  0  0  0  0  0  0  0
    9.1985   -0.3583    2.3764 C   0  0  0  0  0  0  0  0  0  0  0  0
    8.5530   -1.7343    2.0803 C   0  0  0  0  0  0  0  0  0  0  0  0
    8.7466   -2.3383    0.6754 C   0  0  0  0  0  0  0  0  0  0  0  0
    8.3557   -1.4042   -0.4833 C   0  0  0  0  0  0  0  0  0  0  0  0
    6.8470   -1.1083   -0.5174 C   0  0  0  0  0  0  0  0  0  0  0  0
    6.4417   -0.2249   -1.7073 C   0  0  0  0  0  0  0  0  0  0  0  0
    6.9061    1.2359   -1.5469 C   0  0  0  0  0  0  0  0  0  0  0  0
    6.4753    2.1339   -2.7210 C   0  0  0  0  0  0  0  0  0  0  0  0
    4.9601    2.3415   -2.9608 C   0  0  0  0  0  0  0  0  0  0  0  0
    4.2216    3.3282   -2.0221 C   0  0  0  0  0  0  0  0  0  0  0  0
    3.9393    2.8874   -0.5718 C   0  0  0  0  0  0  0  0  0  0  0  0
    3.1426    1.5815   -0.4372 C   0  0  0  0  0  0  0  0  0  0  0  0
    1.7560    1.6356   -1.0918 C   0  0  0  0  0  0  0  0  0  0  0  0
    1.0625    0.2784   -0.9569 C   0  0  0  0  0  0  0  0  0  0  0  0
   -0.3417    0.2461   -1.5724 C   0  0  0  0  0  0  0  0  0  0  0  0
   -1.3240    1.1720   -0.8187 C   0  0  0  0  0  0  0  0  0  0  0  0
   -2.8063    0.9901   -1.2015 C   0  0  0  0  0  0  0  0  0  0  0  0
   -3.5508   -0.1320   -0.4366 C   0  0  0  0  0  0  0  0  0  0  0  0
   -3.0275   -1.5474   -0.6856 C   0  0  0  0  0  0  0  0  0  0  0  0
   -3.7760   -2.5846    0.0900 C   0  0  0  0  0  0  0  0  0  0  0  0
   -4.3622   -3.4817   -0.5023 O   0  0  0  0  0  0  0  0  0  0  0  0
   -3.6784   -2.5766    1.4436 O   0  0  0  0  0  0  0  0  0  0  0  0
   -4.1130   -3.5939    2.2714 C   0  0  0  0  0  0  0  0  0  0  0  0
   -5.6382   -3.6836    2.3687 C   0  0  0  0  0  0  0  0  0  0  0  0
   -6.2947   -2.5019    3.1145 C   0  0  0  0  0  0  0  0  0  0  0  0
   -6.2593   -1.1388    2.4048 C   0  0  0  0  0  0  0  0  0  0  0  0
   -6.8755   -1.0353    0.9877 C   0  0  0  0  0  0  0  0  0  0  0  0
   -8.3652   -1.4030    0.8303 C   0  0  0  0  0  0  0  0  0  0  0  0
   -8.6076   -2.9210    0.7183 C   0  0  0  0  0  0  0  0  0  0  0  0
  -10.0759   -3.3085    0.5708 C   0  0  0  0  0  0  0  0  0  0  0  0
  -10.7234   -2.8221   -0.7330 C   0  0  0  0  0  0  0  0  0  0  0  0
  -12.1242   -3.4297   -0.9209 C   0  0  0  0  0  0  0  0  0  0  0  0
  -13.1376   -3.2176    0.2218 C   0  0  0  0  0  0  0  0  0  0  0  0
  -13.7914   -1.8332    0.3374 C   0  0  0  0  0  0  0  0  0  0  0  0
  -12.9067   -0.6469    0.7687 C   0  0  0  0  0  0  0  0  0  0  0  0
  -13.8249    0.5662    0.9498 C   0  0  0  0  0  0  0  0  0  0  0  0
  -13.1123    1.8609    1.3257 C   0  0  0  0  0  0  0  0  0  0  0  0
  -14.0797    3.0100    1.7086 C   0  0  0  0  0  0  0  0  0  0  0  0
  -15.1042    3.4684    0.6424 C   0  0  0  0  0  0  0  0  0  0  0  0
  -16.3622    2.5722    0.5108 C   0  0  0  0  0  0  0  0  0  0  0  0
  -17.3976    3.1179   -0.4889 C   0  0  0  0  0  0  0  0  0  0  0  0
  -16.8811    3.2917   -1.9340 C   0  0  0  0  0  0  0  0  0  0  0  0
  -16.2921    2.0275   -2.5893 C   0  0  0  0  0  0  0  0  0  0  0  0
  -17.2999    0.8889   -2.7282 C   0  0  0  0  0  0  0  0  0  0  0  0
   22.3089    0.9229   -1.9614 H   0  0  0  0  0  0  0  0  0  0  0  0
   20.8061    0.9309   -2.9615 H   0  0  0  0  0  0  0  0  0  0  0  0
   21.1948   -0.4741   -1.8844 H   0  0  0  0  0  0  0  0  0  0  0  0
   20.6489    2.4209   -0.9581 H   0  0  0  0  0  0  0  0  0  0  0  0
   20.9434    1.0180    0.1305 H   0  0  0  0  0  0  0  0  0  0  0  0
   18.5438    1.3920   -1.7941 H   0  0  0  0  0  0  0  0  0  0  0  0
   18.5753    1.6837   -0.0296 H   0  0  0  0  0  0  0  0  0  0  0  0
   19.0882   -0.7986    0.3533 H   0  0  0  0  0  0  0  0  0  0  0  0
   19.1047   -0.9959   -1.4324 H   0  0  0  0  0  0  0  0  0  0  0  0
   17.1232   -1.9006   -0.7414 H   0  0  0  0  0  0  0  0  0  0  0  0
   16.6834   -0.3824   -1.5758 H   0  0  0  0  0  0  0  0  0  0  0  0
   16.7333   -0.9416    1.4896 H   0  0  0  0  0  0  0  0  0  0  0  0
   15.3473   -1.0258    0.3967 H   0  0  0  0  0  0  0  0  0  0  0  0
   15.6342    1.5308   -0.0698 H   0  0  0  0  0  0  0  0  0  0  0  0
   16.9332    1.4539    1.1818 H   0  0  0  0  0  0  0  0  0  0  0  0
   15.1458    2.3332    2.3061 H   0  0  0  0  0  0  0  0  0  0  0  0
   15.2796    0.6437    2.8788 H   0  0  0  0  0  0  0  0  0  0  0  0
   13.2028    1.9046    0.9309 H   0  0  0  0  0  0  0  0  0  0  0  0
   12.9860    1.4390    2.6515 H   0  0  0  0  0  0  0  0  0  0  0  0
   13.3712   -1.0087    1.9560 H   0  0  0  0  0  0  0  0  0  0  0  0
   13.3972   -0.4039    0.2379 H   0  0  0  0  0  0  0  0  0  0  0  0
   11.3186   -1.3240    0.6564 H   0  0  0  0  0  0  0  0  0  0  0  0
   11.1049    0.4394    0.4300 H   0  0  0  0  0  0  0  0  0  0  0  0
   10.9531    0.7124    2.9160 H   0  0  0  0  0  0  0  0  0  0  0  0
   11.1113   -1.0590    3.1625 H   0  0  0  0  0  0  0  0  0  0  0  0
    8.8147    0.4219    1.6838 H   0  0  0  0  0  0  0  0  0  0  0  0
    8.8293   -0.0836    3.3912 H   0  0  0  0  0  0  0  0  0  0  0  0
    7.4602   -1.6129    2.2376 H   0  0  0  0  0  0  0  0  0  0  0  0
    8.9024   -2.4709    2.8361 H   0  0  0  0  0  0  0  0  0  0  0  0
    8.1498   -3.2745    0.6082 H   0  0  0  0  0  0  0  0  0  0  0  0
    9.7888   -2.6662    0.5476 H   0  0  0  0  0  0  0  0  0  0  0  0
    8.6221   -1.9115   -1.4356 H   0  0  0  0  0  0  0  0  0  0  0  0
    8.9508   -0.4728   -0.4260 H   0  0  0  0  0  0  0  0  0  0  0  0
    6.5013   -0.6264    0.4212 H   0  0  0  0  0  0  0  0  0  0  0  0
    6.3204   -2.0828   -0.6196 H   0  0  0  0  0  0  0  0  0  0  0  0
    5.3436   -0.2534   -1.7680 H   0  0  0  0  0  0  0  0  0  0  0  0
    6.8287   -0.6605   -2.6539 H   0  0  0  0  0  0  0  0  0  0  0  0
    8.0149    1.2546   -1.5182 H   0  0  0  0  0  0  0  0  0  0  0  0
    6.5553    1.6454   -0.5867 H   0  0  0  0  0  0  0  0  0  0  0  0
    6.8967    1.6667   -3.6385 H   0  0  0  0  0  0  0  0  0  0  0  0
    6.9511    3.1331   -2.6150 H   0  0  0  0  0  0  0  0  0  0  0  0
    4.4188    1.3787   -3.0541 H   0  0  0  0  0  0  0  0  0  0  0  0
    4.8996    2.8223   -3.9623 H   0  0  0  0  0  0  0  0  0  0  0  0
    3.2416    3.5523   -2.4935 H   0  0  0  0  0  0  0  0  0  0  0  0
    4.7796    4.2886   -2.0007 H   0  0  0  0  0  0  0  0  0  0  0  0
    3.3668    3.6989   -0.0719 H   0  0  0  0  0  0  0  0  0  0  0  0
    4.8846    2.7921   -0.0121 H   0  0  0  0  0  0  0  0  0  0  0  0
    3.0150    1.3614    0.6458 H   0  0  0  0  0  0  0  0  0  0  0  0
    3.7145    0.7510   -0.8740 H   0  0  0  0  0  0  0  0  0  0  0  0
    1.8420    1.8583   -2.1752 H   0  0  0  0  0  0  0  0  0  0  0  0
    1.1671    2.4350   -0.5969 H   0  0  0  0  0  0  0  0  0  0  0  0
    0.9920   -0.0139    0.1147 H   0  0  0  0  0  0  0  0  0  0  0  0
    1.6840   -0.4842   -1.4782 H   0  0  0  0  0  0  0  0  0  0  0  0
   -0.6421   -0.8048   -1.5426 H   0  0  0  0  0  0  0  0  0  0  0  0
   -0.3132    0.5182   -2.6500 H   0  0  0  0  0  0  0  0  0  0  0  0
   -1.0329    2.2103   -1.0852 H   0  0  0  0  0  0  0  0  0  0  0  0
   -1.2320    1.0656    0.2843 H   0  0  0  0  0  0  0  0  0  0  0  0
   -2.9144    0.8926   -2.3035 H   0  0  0  0  0  0  0  0  0  0  0  0
   -3.3291    1.9254   -0.9018 H   0  0  0  0  0  0  0  0  0  0  0  0
   -4.6158   -0.0920   -0.7501 H   0  0  0  0  0  0  0  0  0  0  0  0
   -3.5044    0.0885    0.6530 H   0  0  0  0  0  0  0  0  0  0  0  0
   -1.9984   -1.6462   -0.3082 H   0  0  0  0  0  0  0  0  0  0  0  0
   -3.0754   -1.7663   -1.7761 H   0  0  0  0  0  0  0  0  0  0  0  0
   -3.6986   -3.4321    3.2891 H   0  0  0  0  0  0  0  0  0  0  0  0
   -3.7049   -4.5584    1.8969 H   0  0  0  0  0  0  0  0  0  0  0  0
   -5.8605   -4.5934    2.9677 H   0  0  0  0  0  0  0  0  0  0  0  0
   -6.0786   -3.8372    1.3658 H   0  0  0  0  0  0  0  0  0  0  0  0
   -5.8058   -2.3958    4.1079 H   0  0  0  0  0  0  0  0  0  0  0  0
   -7.3491   -2.7433    3.3439 H   0  0  0  0  0  0  0  0  0  0  0  0
   -5.2063   -0.7961    2.3406 H   0  0  0  0  0  0  0  0  0  0  0  0
   -6.7902   -0.4170    3.0633 H   0  0  0  0  0  0  0  0  0  0  0  0
   -6.2850   -1.6049    0.2445 H   0  0  0  0  0  0  0  0  0  0  0  0
   -6.7802    0.0403    0.7190 H   0  0  0  0  0  0  0  0  0  0  0  0
   -8.6986   -0.9589   -0.1313 H   0  0  0  0  0  0  0  0  0  0  0  0
   -8.9611   -0.9420    1.6475 H   0  0  0  0  0  0  0  0  0  0  0  0
   -8.2797   -3.4397    1.6248 H   0  0  0  0  0  0  0  0  0  0  0  0
   -8.0305   -3.3300   -0.1400 H   0  0  0  0  0  0  0  0  0  0  0  0
  -10.6280   -2.9208    1.4521 H   0  0  0  0  0  0  0  0  0  0  0  0
  -10.1204   -4.4204    0.5851 H   0  0  0  0  0  0  0  0  0  0  0  0
  -10.1029   -3.1595   -1.5923 H   0  0  0  0  0  0  0  0  0  0  0  0
  -10.7456   -1.7238   -0.7719 H   0  0  0  0  0  0  0  0  0  0  0  0
  -11.9729   -4.5292   -1.0037 H   0  0  0  0  0  0  0  0  0  0  0  0
  -12.5634   -3.0870   -1.8825 H   0  0  0  0  0  0  0  0  0  0  0  0
  -12.7279   -3.5394    1.2007 H   0  0  0  0  0  0  0  0  0  0  0  0
  -13.9804   -3.9104    0.0036 H   0  0  0  0  0  0  0  0  0  0  0  0
  -14.5862   -1.9469    1.1090 H   0  0  0  0  0  0  0  0  0  0  0  0
  -14.2895   -1.5931   -0.6286 H   0  0  0  0  0  0  0  0  0  0  0  0
  -12.1676   -0.3973   -0.0107 H   0  0  0  0  0  0  0  0  0  0  0  0
  -12.3896   -0.8744    1.7240 H   0  0  0  0  0  0  0  0  0  0  0  0
  -14.5722    0.3289    1.7395 H   0  0  0  0  0  0  0  0  0  0  0  0
  -14.3029    0.7262   -0.0318 H   0  0  0  0  0  0  0  0  0  0  0  0
  -12.4601    2.1744    0.4808 H   0  0  0  0  0  0  0  0  0  0  0  0
  -12.4641    1.6754    2.2101 H   0  0  0  0  0  0  0  0  0  0  0  0
  -13.4229    3.8814    1.9248 H   0  0  0  0  0  0  0  0  0  0  0  0
  -14.6194    2.7672    2.6499 H   0  0  0  0  0  0  0  0  0  0  0  0
  -14.5773    3.6033   -0.3241 H   0  0  0  0  0  0  0  0  0  0  0  0
  -15.4830    4.4615    0.9697 H   0  0  0  0  0  0  0  0  0  0  0  0
  -16.8514    2.5011    1.5067 H   0  0  0  0  0  0  0  0  0  0  0  0
  -16.1457    1.5452    0.2034 H   0  0  0  0  0  0  0  0  0  0  0  0
  -17.7617    4.1041   -0.1297 H   0  0  0  0  0  0  0  0  0  0  0  0
  -18.2694    2.4283   -0.4930 H   0  0  0  0  0  0  0  0  0  0  0  0
  -16.0987    4.0791   -1.9443 H   0  0  0  0  0  0  0  0  0  0  0  0
  -17.7205    3.6632   -2.5611 H   0  0  0  0  0  0  0  0  0  0  0  0
  -15.4092    1.6731   -2.0163 H   0  0  0  0  0  0  0  0  0  0  0  0
  -15.9398    2.3016   -3.6064 H   0  0  0  0  0  0  0  0  0  0  0  0
  -17.6440    0.5374   -1.7341 H   0  0  0  0  0  0  0  0  0  0  0  0
  -16.8172    0.0343   -3.2481 H   0  0  0  0  0  0  0  0  0  0  0  0
  -18.1738    1.2206   -3.3280 H   0  0  0  0  0  0  0  0  0  0  0  0
  1  2  1  0  0  0  0
  1 57  1  0  0  0  0
  1 58  1  0  0  0  0
  1 59  1  0  0  0  0
  2  3  1  0  0  0  0
  2 60  1  0  0  0  0
  2 61  1  0  0  0  0
  3  4  1  0  0  0  0
  3 62  1  0  0  0  0
  3 63  1  0  0  0  0
  4  5  1  0  0  0  0
  4 64  1  0  0  0  0
  4 65  1  0  0  0  0
  5  6  1  0  0  0  0
  5 66  1  0  0  0  0
  5 67  1  0  0  0  0
  6  7  1  0  0  0  0
  6 68  1  0  0  0  0
  6 69  1  0  0  0  0
  7  8  1  0  0  0  0
  7 70  1  0  0  0  0
  7 71  1  0  0  0  0
  8  9  1  0  0  0  0
  8 72  1  0  0  0  0
  8 73  1  0  0  0  0
  9 10  1  0  0  0  0
  9 74  1  0  0  0  0
  9 75  1  0  0  0  0
 10 11  1  0  0  0  0
 10 76  1  0  0  0  0
 10 77  1  0  0  0  0
 11 12  1  0  0  0  0
 11 78  1  0  0  0  0
 11 79  1  0  0  0  0
 12 13  1  0  0  0  0
 12 80  1  0  0  0  0
 12 81  1  0  0  0  0
 13 14  1  0  0  0  0
 13 82  1  0  0  0  0
 13 83  1  0  0  0  0
 14 15  1  0  0  0  0
 14 84  1  0  0  0  0
 14 85  1  0  0  0  0
 15 16  1  0  0  0  0
 15 86  1  0  0  0  0
 15 87  1  0  0  0  0
 16 17  1  0  0  0  0
 16 88  1  0  0  0  0
 16 89  1  0  0  0  0
 17 18  1  0  0  0  0
 17 90  1  0  0  0  0
 17 91  1  0  0  0  0
 18 19  1  0  0  0  0
 18 92  1  0  0  0  0
 18 93  1  0  0  0  0
 19 20  1  0  0  0  0
 19 94  1  0  0  0  0
 19 95  1  0  0  0  0
 20 21  1  0  0  0  0
 20 96  1  0  0  0  0
 20 97  1  0  0  0  0
 21 22  1  0  0  0  0
 21 98  1  0  0  0  0
 21 99  1  0  0  0  0
 22 23  1  0  0  0  0
 22100  1  0  0  0  0
 22101  1  0  0  0  0
 23 24  1  0  0  0  0
 23102  1  0  0  0  0
 23103  1  0  0  0  0
 24 25  1  0  0  0  0
 24104  1  0  0  0  0
 24105  1  0  0  0  0
 25 26  1  0  0  0  0
 25106  1  0  0  0  0
 25107  1  0  0  0  0
 26 27  1  0  0  0  0
 26108  1  0  0  0  0
 26109  1  0  0  0  0
 27 28  1  0  0  0  0
 27110  1  0  0  0  0
 27111  1  0  0  0  0
 28 29  1  0  0  0  0
 28112  1  0  0  0  0
 28113  1  0  0  0  0
 29 30  1  0  0  0  0
 29114  1  0  0  0  0
 29115  1  0  0  0  0
 30 31  1  0  0  0  0
 30116  1  0  0  0  0
 30117  1  0  0  0  0
 31 32  1  0  0  0  0
 31118  1  0  0  0  0
 31119  1  0  0  0  0
 32 33  2  0  0  0  0
 32 34  1  0  0  0  0
 34 35  1  0  0  0  0
 35 36  1  0  0  0  0
 35120  1  0  0  0  0
 35121  1  0  0  0  0
 36 37  1  0  0  0  0
 36122  1  0  0  0  0
 36123  1  0  0  0  0
 37 38  1  0  0  0  0
 37124  1  0  0  0  0
 37125  1  0  0  0  0
 38 39  1  0  0  0  0
 38126  1  0  0  0  0
 38127  1  0  0  0  0
 39 40  1  0  0  0  0
 39128  1  0  0  0  0
 39129  1  0  0  0  0
 40 41  1  0  0  0  0
 40130  1  0  0  0  0
 40131  1  0  0  0  0
 41 42  1  0  0  0  0
 41132  1  0  0  0  0
 41133  1  0  0  0  0
 42 43  1  0  0  0  0
 42134  1  0  0  0  0
 42135  1  0  0  0  0
 43 44  1  0  0  0  0
 43136  1  0  0  0  0
 43137  1  0  0  0  0
 44 45  1  0  0  0  0
 44138  1  0  0  0  0
 44139  1  0  0  0  0
 45 46  1  0  0  0  0
 45140  1  0  0  0  0
 45141  1  0  0  0  0
 46 47  1  0  0  0  0
 46142  1  0  0  0  0
 46143  1  0  0  0  0
 47 48  1  0  0  0  0
 47144  1  0  0  0  0
 47145  1  0  0  0  0
 48 49  1  0  0  0  0
 48146  1  0  0  0  0
 48147  1  0  0  0  0
 49 50  1  0  0  0  0
 49148  1  0  0  0  0
 49149  1  0  0  0  0
 50 51  1  0  0  0  0
 50150  1  0  0  0  0
 50151  1  0  0  0  0
 51 52  1  0  0  0  0
 51152  1  0  0  0  0
 51153  1  0  0  0  0
 52 53  1  0  0  0  0
 52154  1  0  0  0  0
 52155  1  0  0  0  0
 53 54  1  0  0  0  0
 53156  1  0  0  0  0
 53157  1  0  0  0  0
 54 55  1  0  0  0  0
 54158  1  0  0  0  0
 54159  1  0  0  0  0
 55 56  1  0  0  0  0
 55160  1  0  0  0  0
 55161  1  0  0  0  0
 56162  1  0  0  0  0
 56163  1  0  0  0  0
 56164  1  0  0  0  0
M  END
>  <IDENTIFIER>
CNP0184867.0

>  <Energy>
668.845

$$$$
