
 OpenBabel09132506333D

 79 82  0  0  0  0  0  0  0  0999 V2000
    9.8387    3.5777   -0.6947 N   0  0  0  0  0  0  0  0  0  0  0  0
    9.1105    2.4423   -1.1187 C   0  0  0  0  0  0  0  0  0  0  0  0
    9.2562    1.9534   -2.3869 N   0  0  0  0  0  0  0  0  0  0  0  0
    8.5409    0.8651   -2.8200 C   0  0  0  0  0  0  0  0  0  0  0  0
    7.6520    0.2433   -1.9866 N   0  0  0  0  0  0  0  0  0  0  0  0
    7.5098    0.7296   -0.7312 C   0  0  0  0  0  0  0  0  0  0  0  0
    8.2104    1.7961   -0.2807 C   0  0  0  0  0  0  0  0  0  0  0  0
    7.8667    2.0744    0.9900 N   0  0  0  0  0  0  0  0  0  0  0  0
    6.9242    1.1384    1.2775 C   0  0  0  0  0  0  0  0  0  0  0  0
    6.6793    0.3031    0.2338 N   0  0  0  0  0  0  0  0  0  0  0  0
    5.6928   -0.7818    0.1760 C   0  0  1  0  0  0  0  0  0  0  0  0
    4.9635   -0.8686    1.3960 O   0  0  0  0  0  0  0  0  0  0  0  0
    3.5764   -0.7761    1.0898 C   0  0  2  0  0  0  0  0  0  0  0  0
    2.7814   -1.6374    2.1233 C   0  0  0  0  0  0  0  0  0  0  0  0
    1.5046   -1.1431    2.5246 O   0  0  0  0  0  0  0  0  0  0  0  0
    0.5091   -1.2560    1.5310 C   0  0  1  0  0  0  0  0  0  0  0  0
   -0.3184   -2.5478    1.6595 C   0  0  2  0  0  0  0  0  0  0  0  0
    0.4874   -3.6979    1.5991 O   0  0  0  0  0  0  0  0  0  0  0  0
   -1.3598   -2.5498    0.5212 C   0  0  1  0  0  0  0  0  0  0  0  0
   -2.1954   -3.6771    0.5931 O   0  0  0  0  0  0  0  0  0  0  0  0
   -2.1881   -1.2409    0.5038 C   0  0  2  0  0  0  0  0  0  0  0  0
   -2.8923   -1.2235   -0.7259 O   0  0  0  0  0  0  0  0  0  0  0  0
   -4.2872   -1.0163   -0.6117 C   0  0  2  0  0  0  0  0  0  0  0  0
   -4.8801   -1.6996   -1.8227 C   0  0  0  0  0  0  0  0  0  0  0  0
   -4.5898   -1.3083   -2.9424 O   0  0  0  0  0  0  0  0  0  0  0  0
   -5.6850   -2.7742   -1.6943 O   0  0  0  0  0  0  0  0  0  0  0  0
   -4.5984    0.5166   -0.5925 C   0  0  2  0  0  0  0  0  0  0  0  0
   -3.9056    1.1005    0.4825 O   0  0  0  0  0  0  0  0  0  0  0  0
   -6.1107    0.9122   -0.5197 C   0  0  2  0  0  0  0  0  0  0  0  0
   -6.8185    0.2208   -1.5338 O   0  0  0  0  0  0  0  0  0  0  0  0
   -8.3579   -0.4289   -0.9670 P   0  0  0  0  0  0  0  0  0  0  0  0
   -8.8056    0.2322    0.3663 O   0  0  0  0  0  0  0  0  0  0  0  0
   -9.6160   -0.0917   -2.1141 O   0  0  0  0  0  0  0  0  0  0  0  0
   -8.2880   -2.1387   -0.6804 O   0  0  0  0  0  0  0  0  0  0  0  0
   -6.3601    2.4448   -0.7461 C   0  0  1  0  0  0  0  0  0  0  0  0
   -7.7396    2.7160   -0.6926 O   0  0  0  0  0  0  0  0  0  0  0  0
   -5.6069    3.4066    0.1653 C   0  0  0  0  0  0  0  0  0  0  0  0
   -6.2115    4.0636    0.9989 O   0  0  0  0  0  0  0  0  0  0  0  0
   -4.2910    3.6536   -0.0159 O   0  0  0  0  0  0  0  0  0  0  0  0
   -1.3529   -0.0936    0.5108 O   0  0  0  0  0  0  0  0  0  0  0  0
   -0.4812   -0.0719    1.6283 C   0  0  2  0  0  0  0  0  0  0  0  0
    0.2202    1.2959    1.6687 C   0  0  0  0  0  0  0  0  0  0  0  0
    0.9688    1.5268    0.5080 O   0  0  0  0  0  0  0  0  0  0  0  0
    3.4815   -1.2181   -0.3925 C   0  0  1  0  0  0  0  0  0  0  0  0
    2.3287   -0.8698   -1.1137 O   0  0  0  0  0  0  0  0  0  0  0  0
    4.6832   -0.5037   -0.9263 C   0  0  2  0  0  0  0  0  0  0  0  0
    5.0800   -0.9260   -2.2078 O   0  0  0  0  0  0  0  0  0  0  0  0
   10.4842    4.0502   -1.3434 H   0  0  0  0  0  0  0  0  0  0  0  0
    9.7182    3.9570    0.2558 H   0  0  0  0  0  0  0  0  0  0  0  0
    8.6743    0.5025   -3.8300 H   0  0  0  0  0  0  0  0  0  0  0  0
    6.4162    1.0838    2.2319 H   0  0  0  0  0  0  0  0  0  0  0  0
    6.1862   -1.7654    0.0089 H   0  0  0  0  0  0  0  0  0  0  0  0
    3.3111    0.2966    1.2267 H   0  0  0  0  0  0  0  0  0  0  0  0
    3.3682   -1.5734    3.0647 H   0  0  0  0  0  0  0  0  0  0  0  0
    2.7926   -2.7206    1.8849 H   0  0  0  0  0  0  0  0  0  0  0  0
    0.9383   -1.2216    0.5384 H   0  0  0  0  0  0  0  0  0  0  0  0
   -0.8372   -2.5464    2.6443 H   0  0  0  0  0  0  0  0  0  0  0  0
    0.9327   -3.7095    0.7115 H   0  0  0  0  0  0  0  0  0  0  0  0
   -0.7999   -2.5977   -0.4400 H   0  0  0  0  0  0  0  0  0  0  0  0
   -2.6830   -3.6293    1.4570 H   0  0  0  0  0  0  0  0  0  0  0  0
   -2.8496   -1.2134    1.4028 H   0  0  0  0  0  0  0  0  0  0  0  0
   -4.7030   -1.5097    0.2965 H   0  0  0  0  0  0  0  0  0  0  0  0
   -5.8879   -3.1577   -0.8304 H   0  0  0  0  0  0  0  0  0  0  0  0
   -4.1851    0.9360   -1.5357 H   0  0  0  0  0  0  0  0  0  0  0  0
   -4.2937    0.7429    1.3240 H   0  0  0  0  0  0  0  0  0  0  0  0
   -6.4474    0.6159    0.4980 H   0  0  0  0  0  0  0  0  0  0  0  0
   -9.6806    0.8964   -2.1331 H   0  0  0  0  0  0  0  0  0  0  0  0
   -7.8879   -2.2288    0.2212 H   0  0  0  0  0  0  0  0  0  0  0  0
   -6.0416    2.6974   -1.7809 H   0  0  0  0  0  0  0  0  0  0  0  0
   -8.0386    2.5810    0.2438 H   0  0  0  0  0  0  0  0  0  0  0  0
   -3.7864    3.2557   -0.7384 H   0  0  0  0  0  0  0  0  0  0  0  0
   -1.0578   -0.1339    2.5818 H   0  0  0  0  0  0  0  0  0  0  0  0
    0.8970    1.3568    2.5473 H   0  0  0  0  0  0  0  0  0  0  0  0
   -0.5347    2.1052    1.8026 H   0  0  0  0  0  0  0  0  0  0  0  0
    0.3342    1.8514   -0.1828 H   0  0  0  0  0  0  0  0  0  0  0  0
    3.6437   -2.3188   -0.4529 H   0  0  0  0  0  0  0  0  0  0  0  0
    2.2378    0.1168   -1.0894 H   0  0  0  0  0  0  0  0  0  0  0  0
    4.4603    0.5887   -0.9446 H   0  0  0  0  0  0  0  0  0  0  0  0
    5.2225   -1.9079   -2.1730 H   0  0  0  0  0  0  0  0  0  0  0  0
  1  2  1  0  0  0  0
  1 48  1  0  0  0  0
  1 49  1  0  0  0  0
  2  3  2  0  0  0  0
  3  4  1  0  0  0  0
  4  5  2  0  0  0  0
  4 50  1  0  0  0  0
  5  6  1  0  0  0  0
  6  7  2  0  0  0  0
  7  8  1  0  0  0  0
  7  2  1  0  0  0  0
  8  9  2  0  0  0  0
  9 10  1  0  0  0  0
  9 51  1  0  0  0  0
 10  6  1  0  0  0  0
 11 10  1  0  0  0  0
 11 12  1  0  0  0  0
 11 52  1  6  0  0  0
 12 13  1  0  0  0  0
 13 14  1  0  0  0  0
 13 44  1  0  0  0  0
 13 53  1  1  0  0  0
 14 15  1  0  0  0  0
 14 54  1  0  0  0  0
 14 55  1  0  0  0  0
 16 15  1  0  0  0  0
 16 17  1  0  0  0  0
 16 56  1  6  0  0  0
 17 18  1  0  0  0  0
 17 19  1  0  0  0  0
 17 57  1  1  0  0  0
 18 58  1  0  0  0  0
 19 20  1  0  0  0  0
 19 21  1  0  0  0  0
 19 59  1  6  0  0  0
 20 60  1  0  0  0  0
 21 22  1  0  0  0  0
 21 40  1  0  0  0  0
 21 61  1  1  0  0  0
 23 22  1  0  0  0  0
 23 24  1  0  0  0  0
 23 27  1  0  0  0  0
 23 62  1  1  0  0  0
 24 25  2  0  0  0  0
 24 26  1  0  0  0  0
 26 63  1  0  0  0  0
 27 28  1  0  0  0  0
 27 29  1  0  0  0  0
 27 64  1  6  0  0  0
 28 65  1  0  0  0  0
 29 30  1  0  0  0  0
 29 35  1  0  0  0  0
 29 66  1  1  0  0  0
 30 31  1  0  0  0  0
 31 32  2  0  0  0  0
 31 33  1  0  0  0  0
 31 34  1  0  0  0  0
 33 67  1  0  0  0  0
 34 68  1  0  0  0  0
 35 36  1  0  0  0  0
 35 37  1  0  0  0  0
 35 69  1  6  0  0  0
 36 70  1  0  0  0  0
 37 38  2  0  0  0  0
 37 39  1  0  0  0  0
 39 71  1  0  0  0  0
 40 41  1  0  0  0  0
 41 42  1  0  0  0  0
 41 16  1  0  0  0  0
 41 72  1  1  0  0  0
 42 43  1  0  0  0  0
 42 73  1  0  0  0  0
 42 74  1  0  0  0  0
 43 75  1  0  0  0  0
 44 45  1  0  0  0  0
 44 46  1  0  0  0  0
 44 76  1  6  0  0  0
 45 77  1  0  0  0  0
 46 47  1  0  0  0  0
 46 11  1  0  0  0  0
 46 78  1  6  0  0  0
 47 79  1  0  0  0  0
M  END
>  <IDENTIFIER>
CNP0241746.1

>  <Energy>
1323.62

$$$$
