
 OpenBabel09072506022D

146145  0  0  0  0  0  0  0  0999 V2000
   15.5885    9.0000    0.0000 C   0  0  0  0  0  0  0  0  0  0  0  0
   14.2894    8.2500    0.0000 C   0  0  0  0  0  0  0  0  0  0  0  0
   13.3426    6.8913    0.4736 C   0  0  0  0  0  0  0  0  0  0  0  0
   11.6913    6.7500    0.0000 C   0  0  0  0  0  0  0  0  0  0  0  0
   10.3923    6.0000    0.0000 C   0  0  0  0  0  0  0  0  0  0  0  0
    9.0933    5.2500    0.0000 C   0  0  0  0  0  0  0  0  0  0  0  0
    7.7942    4.5000    0.0000 C   0  0  0  0  0  0  0  0  0  0  0  0
    6.4952    3.7500    0.0000 C   0  0  0  0  0  0  0  0  0  0  0  0
    5.1962    3.0000    0.0000 C   0  0  0  0  0  0  0  0  0  0  0  0
    3.5600    2.9308   -0.3470 C   0  0  0  0  0  0  0  0  0  0  0  0
    2.7058    1.5129   -0.0037 C   0  0  0  0  0  0  0  0  0  0  0  0
    1.0670    1.2411   -0.2870 C   0  0  0  0  0  0  0  0  0  0  0  0
    0.3260   -0.1881    0.0795 C   0  0  0  0  0  0  0  0  0  0  0  0
    1.0538   -1.0365    0.5747 O   0  0  0  0  0  0  0  0  0  0  0  0
   -1.0671   -0.5484   -0.1221 O   0  0  0  0  0  0  0  0  0  0  0  0
   -1.7009   -1.8437    0.1992 C   0  0  0  0  0  0  0  0  0  0  0  0
   -3.3167   -2.2418   -0.1018 C   0  0  1  0  0  0  0  0  0  0  0  0
   -3.6839   -3.8730    0.1970 C   0  0  0  0  0  0  0  0  0  0  0  0
   -4.9822   -4.5593   -0.0093 O   0  0  0  0  0  0  0  0  0  0  0  0
   -5.1962   -6.0000    0.0000 C   0  0  0  0  0  0  0  0  0  0  0  0
   -4.1702   -6.6803   -0.0388 O   0  0  0  0  0  0  0  0  0  0  0  0
   -6.4952   -6.7500    0.0000 C   0  0  0  0  0  0  0  0  0  0  0  0
   -7.7942   -7.5000    0.0000 C   0  0  0  0  0  0  0  0  0  0  0  0
   -9.0933   -8.2500    0.0000 C   0  0  0  0  0  0  0  0  0  0  0  0
  -10.3923   -9.0000    0.0000 C   0  0  0  0  0  0  0  0  0  0  0  0
  -11.6913   -9.7500    0.0000 C   0  0  0  0  0  0  0  0  0  0  0  0
  -13.3320  -10.0827    0.1479 C   0  0  0  0  0  0  0  0  0  0  0  0
  -13.9929  -11.5787   -0.3286 C   0  0  0  0  0  0  0  0  0  0  0  0
  -15.5885  -12.0000    0.0000 C   0  0  0  0  0  0  0  0  0  0  0  0
  -16.8875  -12.7500    0.0000 C   0  0  0  0  0  0  0  0  0  0  0  0
  -18.1865  -13.5000    0.0000 C   0  0  0  0  0  0  0  0  0  0  0  0
  -16.1375  -14.0490    0.0000 C   0  0  0  0  0  0  0  0  0  0  0  0
   -4.1765   -1.3719    0.6153 O   0  0  0  0  0  0  0  0  0  0  0  0
   -4.9374   -0.3324    0.0936 C   0  0  0  0  0  0  0  0  0  0  0  0
   -4.8399   -0.0517   -1.0925 O   0  0  0  0  0  0  0  0  0  0  0  0
   -5.8884    0.5166    0.9859 C   0  0  0  0  0  0  0  0  0  0  0  0
   -6.5926    1.7321    0.2615 C   0  0  0  0  0  0  0  0  0  0  0  0
   -7.5734    2.6228    1.1336 C   0  0  0  0  0  0  0  0  0  0  0  0
   -8.1091    3.8680    0.3326 C   0  0  0  0  0  0  0  0  0  0  0  0
   -9.1074    4.9122    1.0134 C   0  0  0  0  0  0  0  0  0  0  0  0
   -9.3481    6.0933    0.0000 C   0  0  0  0  0  0  0  0  0  0  0  0
  -10.0981    7.3923    0.0000 C   0  0  0  0  0  0  0  0  0  0  0  0
  -10.8481    8.6913    0.0000 C   0  0  0  0  0  0  0  0  0  0  0  0
  -11.1679   10.3404    0.0581 C   0  0  0  0  0  0  0  0  0  0  0  0
  -12.7562   10.9447   -0.0826 C   0  0  0  0  0  0  0  0  0  0  0  0
  -13.0981   12.5885    0.0000 C   0  0  0  0  0  0  0  0  0  0  0  0
  -13.8481   13.8875    0.0000 C   0  0  0  0  0  0  0  0  0  0  0  0
  -14.5981   15.1865    0.0000 C   0  0  0  0  0  0  0  0  0  0  0  0
  -15.3481   16.4856    0.0000 C   0  0  0  0  0  0  0  0  0  0  0  0
  -16.0981   17.7846    0.0000 C   0  0  0  0  0  0  0  0  0  0  0  0
  -16.8481   19.0836    0.0000 C   0  0  0  0  0  0  0  0  0  0  0  0
  -17.5981   20.3827    0.0000 C   0  0  0  0  0  0  0  0  0  0  0  0
  -18.3481   21.6817    0.0000 C   0  0  0  0  0  0  0  0  0  0  0  0
  -18.8971   19.6327    0.0000 C   0  0  0  0  0  0  0  0  0  0  0  0
   16.1812    8.1977   -0.4933 H   0  0  0  0  0  0  0  0  0  0  0  0
   15.3070    9.8163   -0.7100 H   0  0  0  0  0  0  0  0  0  0  0  0
   16.5152    9.5350    0.0000 H   0  0  0  0  0  0  0  0  0  0  0  0
   13.6022    9.0514    0.3552 H   0  0  0  0  0  0  0  0  0  0  0  0
   14.0964    8.1415   -1.0969 H   0  0  0  0  0  0  0  0  0  0  0  0
   13.3678    6.8424    1.5821 H   0  0  0  0  0  0  0  0  0  0  0  0
   13.8649    5.9892    0.0910 H   0  0  0  0  0  0  0  0  0  0  0  0
   11.8073    6.9673   -1.0913 H   0  0  0  0  0  0  0  0  0  0  0  0
   11.3460    7.7369    0.3935 H   0  0  0  0  0  0  0  0  0  0  0  0
   10.3798    6.0366    1.1212 H   0  0  0  0  0  0  0  0  0  0  0  0
   11.0517    5.1614   -0.3955 H   0  0  0  0  0  0  0  0  0  0  0  0
    9.5436    4.2878    0.4203 H   0  0  0  0  0  0  0  0  0  0  0  0
    9.1558    5.1797   -1.1275 H   0  0  0  0  0  0  0  0  0  0  0  0
    7.3426    5.4700   -0.3981 H   0  0  0  0  0  0  0  0  0  0  0  0
    7.7395    4.5542    1.1310 H   0  0  0  0  0  0  0  0  0  0  0  0
    5.8480    4.5686    0.4526 H   0  0  0  0  0  0  0  0  0  0  0  0
    6.4714    3.7742   -1.1224 H   0  0  0  0  0  0  0  0  0  0  0  0
    5.1533    2.6816    1.0707 H   0  0  0  0  0  0  0  0  0  0  0  0
    5.5014    2.0539   -0.5119 H   0  0  0  0  0  0  0  0  0  0  0  0
    3.4439    3.1303   -1.4331 H   0  0  0  0  0  0  0  0  0  0  0  0
    3.0667    3.7598    0.2021 H   0  0  0  0  0  0  0  0  0  0  0  0
    3.2385    0.7051   -0.5482 H   0  0  0  0  0  0  0  0  0  0  0  0
    2.8569    1.3267    1.0802 H   0  0  0  0  0  0  0  0  0  0  0  0
    0.5162    2.0334    0.2616 H   0  0  0  0  0  0  0  0  0  0  0  0
    0.9049    1.4113   -1.3718 H   0  0  0  0  0  0  0  0  0  0  0  0
   -1.5376   -2.0299    1.2818 H   0  0  0  0  0  0  0  0  0  0  0  0
   -1.1132   -2.6138   -0.3438 H   0  0  0  0  0  0  0  0  0  0  0  0
   -3.4656   -2.0923   -1.1929 H   0  0  0  0  0  0  0  0  0  0  0  0
   -2.9426   -4.4201   -0.4233 H   0  0  0  0  0  0  0  0  0  0  0  0
   -3.3951   -4.0623    1.2521 H   0  0  0  0  0  0  0  0  0  0  0  0
   -6.0636   -7.2613    0.9227 H   0  0  0  0  0  0  0  0  0  0  0  0
   -6.2378   -7.1657   -1.0083 H   0  0  0  0  0  0  0  0  0  0  0  0
   -7.3009   -8.5251    0.0827 H   0  0  0  0  0  0  0  0  0  0  0  0
   -8.0037   -7.1318    1.0579 H   0  0  0  0  0  0  0  0  0  0  0  0
   -9.5830   -7.2158   -0.0458 H   0  0  0  0  0  0  0  0  0  0  0  0
   -8.9276   -8.5794   -1.0673 H   0  0  0  0  0  0  0  0  0  0  0  0
  -10.9475   -8.3371   -0.7434 H   0  0  0  0  0  0  0  0  0  0  0  0
  -10.5833   -8.6762    1.0565 H   0  0  0  0  0  0  0  0  0  0  0  0
  -11.6010  -10.2234   -1.0140 H   0  0  0  0  0  0  0  0  0  0  0  0
  -11.3704  -10.5805    0.6752 H   0  0  0  0  0  0  0  0  0  0  0  0
  -13.5839   -9.9302    1.2187 H   0  0  0  0  0  0  0  0  0  0  0  0
  -13.8808   -9.3092   -0.4290 H   0  0  0  0  0  0  0  0  0  0  0  0
  -13.3666  -12.3767    0.1232 H   0  0  0  0  0  0  0  0  0  0  0  0
  -13.8536  -11.6395   -1.4282 H   0  0  0  0  0  0  0  0  0  0  0  0
  -15.9931  -10.9910   -0.2661 H   0  0  0  0  0  0  0  0  0  0  0  0
  -15.4868  -11.8985    1.1085 H   0  0  0  0  0  0  0  0  0  0  0  0
  -17.0487  -12.5181   -1.0908 H   0  0  0  0  0  0  0  0  0  0  0  0
  -18.8544  -12.6123   -0.1325 H   0  0  0  0  0  0  0  0  0  0  0  0
  -18.2277  -13.7032    1.1013 H   0  0  0  0  0  0  0  0  0  0  0  0
  -19.1131  -14.0350    0.0000 H   0  0  0  0  0  0  0  0  0  0  0  0
  -15.7587  -14.1047    1.0575 H   0  0  0  0  0  0  0  0  0  0  0  0
  -15.5279  -14.0598   -0.9536 H   0  0  0  0  0  0  0  0  0  0  0  0
  -15.6025  -14.9756    0.0000 H   0  0  0  0  0  0  0  0  0  0  0  0
   -6.6659   -0.1574    1.4030 H   0  0  0  0  0  0  0  0  0  0  0  0
   -5.2916    0.9267    1.8276 H   0  0  0  0  0  0  0  0  0  0  0  0
   -5.7867    2.3914   -0.1264 H   0  0  0  0  0  0  0  0  0  0  0  0
   -7.1663    1.3422   -0.6073 H   0  0  0  0  0  0  0  0  0  0  0  0
   -8.4285    1.9999    1.4715 H   0  0  0  0  0  0  0  0  0  0  0  0
   -7.0273    2.9924    2.0274 H   0  0  0  0  0  0  0  0  0  0  0  0
   -8.6030    3.4831   -0.5865 H   0  0  0  0  0  0  0  0  0  0  0  0
   -7.2048    4.4324    0.0173 H   0  0  0  0  0  0  0  0  0  0  0  0
   -8.6540    5.3140    1.9438 H   0  0  0  0  0  0  0  0  0  0  0  0
  -10.0679    4.4125    1.2600 H   0  0  0  0  0  0  0  0  0  0  0  0
   -9.6513    5.5919   -0.9535 H   0  0  0  0  0  0  0  0  0  0  0  0
   -8.3132    6.4433   -0.2250 H   0  0  0  0  0  0  0  0  0  0  0  0
   -9.6641    7.6410    0.9988 H   0  0  0  0  0  0  0  0  0  0  0  0
  -11.0284    6.7611    0.0814 H   0  0  0  0  0  0  0  0  0  0  0  0
  -11.3573    8.5476   -0.9826 H   0  0  0  0  0  0  0  0  0  0  0  0
  -11.6081    8.5064    0.8106 H   0  0  0  0  0  0  0  0  0  0  0  0
  -10.7758   10.7064    1.0313 H   0  0  0  0  0  0  0  0  0  0  0  0
  -10.5634   10.8215   -0.7390 H   0  0  0  0  0  0  0  0  0  0  0  0
  -13.3591   10.4540    0.7099 H   0  0  0  0  0  0  0  0  0  0  0  0
  -13.1453   10.5867   -1.0591 H   0  0  0  0  0  0  0  0  0  0  0  0
  -12.3410   12.8654   -0.7752 H   0  0  0  0  0  0  0  0  0  0  0  0
  -12.5368   12.7430    0.9580 H   0  0  0  0  0  0  0  0  0  0  0  0
  -14.2243   13.6663   -1.0351 H   0  0  0  0  0  0  0  0  0  0  0  0
  -14.4786   13.3523    0.7844 H   0  0  0  0  0  0  0  0  0  0  0  0
  -14.2724   15.3500    1.0740 H   0  0  0  0  0  0  0  0  0  0  0  0
  -15.6311   14.6989    0.0467 H   0  0  0  0  0  0  0  0  0  0  0  0
  -15.7256   16.3077   -1.0551 H   0  0  0  0  0  0  0  0  0  0  0  0
  -14.2843   16.9089   -0.1198 H   0  0  0  0  0  0  0  0  0  0  0  0
  -15.4086   18.2860   -0.7788 H   0  0  0  0  0  0  0  0  0  0  0  0
  -15.5178   18.0269    0.9598 H   0  0  0  0  0  0  0  0  0  0  0  0
  -17.2072   18.7815   -1.0614 H   0  0  0  0  0  0  0  0  0  0  0  0
  -17.3046   18.5915    0.9607 H   0  0  0  0  0  0  0  0  0  0  0  0
  -17.0742   20.5866    0.9778 H   0  0  0  0  0  0  0  0  0  0  0  0
  -17.4602   22.3251   -0.1998 H   0  0  0  0  0  0  0  0  0  0  0  0
  -18.6563   21.8095    1.0780 H   0  0  0  0  0  0  0  0  0  0  0  0
  -18.8831   22.6083    0.0000 H   0  0  0  0  0  0  0  0  0  0  0  0
  -19.3050   19.8417   -1.0302 H   0  0  0  0  0  0  0  0  0  0  0  0
  -19.3604   19.8421    1.0046 H   0  0  0  0  0  0  0  0  0  0  0  0
  -19.8237   19.0977    0.0000 H   0  0  0  0  0  0  0  0  0  0  0  0
  1  2  1  0  0  0  0
  1 55  1  0  0  0  0
  1 56  1  0  0  0  0
  1 57  1  0  0  0  0
  2  3  1  0  0  0  0
  2 58  1  0  0  0  0
  2 59  1  0  0  0  0
  3  4  1  0  0  0  0
  3 60  1  0  0  0  0
  3 61  1  0  0  0  0
  4  5  1  0  0  0  0
  4 62  1  0  0  0  0
  4 63  1  0  0  0  0
  5  6  1  0  0  0  0
  5 64  1  0  0  0  0
  5 65  1  0  0  0  0
  6  7  1  0  0  0  0
  6 66  1  0  0  0  0
  6 67  1  0  0  0  0
  7  8  1  0  0  0  0
  7 68  1  0  0  0  0
  7 69  1  0  0  0  0
  8  9  1  0  0  0  0
  8 70  1  0  0  0  0
  8 71  1  0  0  0  0
  9 10  1  0  0  0  0
  9 72  1  0  0  0  0
  9 73  1  0  0  0  0
 10 11  1  0  0  0  0
 10 74  1  0  0  0  0
 10 75  1  0  0  0  0
 11 12  1  0  0  0  0
 11 76  1  0  0  0  0
 11 77  1  0  0  0  0
 12 13  1  0  0  0  0
 12 78  1  0  0  0  0
 12 79  1  0  0  0  0
 13 14  2  0  0  0  0
 13 15  1  0  0  0  0
 15 16  1  0  0  0  0
 16 80  1  0  0  0  0
 16 81  1  0  0  0  0
 17 16  1  0  0  0  0
 17 18  1  0  0  0  0
 17 33  1  0  0  0  0
 17 82  1  6  0  0  0
 18 19  1  0  0  0  0
 18 83  1  0  0  0  0
 18 84  1  0  0  0  0
 19 20  1  0  0  0  0
 20 21  2  0  0  0  0
 20 22  1  0  0  0  0
 22 23  1  0  0  0  0
 22 85  1  0  0  0  0
 22 86  1  0  0  0  0
 23 24  1  0  0  0  0
 23 87  1  0  0  0  0
 23 88  1  0  0  0  0
 24 25  1  0  0  0  0
 24 89  1  0  0  0  0
 24 90  1  0  0  0  0
 25 26  1  0  0  0  0
 25 91  1  0  0  0  0
 25 92  1  0  0  0  0
 26 27  1  0  0  0  0
 26 93  1  0  0  0  0
 26 94  1  0  0  0  0
 27 28  1  0  0  0  0
 27 95  1  0  0  0  0
 27 96  1  0  0  0  0
 28 29  1  0  0  0  0
 28 97  1  0  0  0  0
 28 98  1  0  0  0  0
 29 30  1  0  0  0  0
 29 99  1  0  0  0  0
 29100  1  0  0  0  0
 30 31  1  0  0  0  0
 30 32  1  0  0  0  0
 30101  1  0  0  0  0
 31102  1  0  0  0  0
 31103  1  0  0  0  0
 31104  1  0  0  0  0
 32105  1  0  0  0  0
 32106  1  0  0  0  0
 32107  1  0  0  0  0
 33 34  1  0  0  0  0
 34 35  2  0  0  0  0
 34 36  1  0  0  0  0
 36 37  1  0  0  0  0
 36108  1  0  0  0  0
 36109  1  0  0  0  0
 37 38  1  0  0  0  0
 37110  1  0  0  0  0
 37111  1  0  0  0  0
 38 39  1  0  0  0  0
 38112  1  0  0  0  0
 38113  1  0  0  0  0
 39 40  1  0  0  0  0
 39114  1  0  0  0  0
 39115  1  0  0  0  0
 40 41  1  0  0  0  0
 40116  1  0  0  0  0
 40117  1  0  0  0  0
 41 42  1  0  0  0  0
 41118  1  0  0  0  0
 41119  1  0  0  0  0
 42 43  1  0  0  0  0
 42120  1  0  0  0  0
 42121  1  0  0  0  0
 43 44  1  0  0  0  0
 43122  1  0  0  0  0
 43123  1  0  0  0  0
 44 45  1  0  0  0  0
 44124  1  0  0  0  0
 44125  1  0  0  0  0
 45 46  1  0  0  0  0
 45126  1  0  0  0  0
 45127  1  0  0  0  0
 46 47  1  0  0  0  0
 46128  1  0  0  0  0
 46129  1  0  0  0  0
 47 48  1  0  0  0  0
 47130  1  0  0  0  0
 47131  1  0  0  0  0
 48 49  1  0  0  0  0
 48132  1  0  0  0  0
 48133  1  0  0  0  0
 49 50  1  0  0  0  0
 49134  1  0  0  0  0
 49135  1  0  0  0  0
 50 51  1  0  0  0  0
 50136  1  0  0  0  0
 50137  1  0  0  0  0
 51 52  1  0  0  0  0
 51138  1  0  0  0  0
 51139  1  0  0  0  0
 52 53  1  0  0  0  0
 52 54  1  0  0  0  0
 52140  1  0  0  0  0
 53141  1  0  0  0  0
 53142  1  0  0  0  0
 53143  1  0  0  0  0
 54144  1  0  0  0  0
 54145  1  0  0  0  0
 54146  1  0  0  0  0
M  END
>  <IDENTIFIER>
CNP0550534.2

>  <Energy>
11511

$$$$
