
 OpenBabel09072502383D

 41 44  0  0  0  0  0  0  0  0999 V2000
    6.2623   -0.8882   -0.1668 C   0  0  0  0  0  0  0  0  0  0  0  0
    5.4317   -0.0159   -0.8398 O   0  0  0  0  0  0  0  0  0  0  0  0
    4.0871    0.0865   -0.6727 C   0  0  0  0  0  0  0  0  0  0  0  0
    3.3931    1.0234   -1.4375 C   0  0  0  0  0  0  0  0  0  0  0  0
    2.0117    1.1700   -1.3027 C   0  0  0  0  0  0  0  0  0  0  0  0
    1.2819    0.3748   -0.3919 C   0  0  0  0  0  0  0  0  0  0  0  0
   -0.1964    0.5358   -0.2388 C   0  0  0  0  0  0  0  0  0  0  0  0
   -0.8911   -0.2800    0.6076 C   0  0  0  0  0  0  0  0  0  0  0  0
   -0.2335   -1.3241    1.4816 C   0  0  0  0  0  0  0  0  0  0  0  0
    1.2951   -1.4636    1.3785 C   0  0  0  0  0  0  0  0  0  0  0  0
    1.9809   -0.5759    0.3788 C   0  0  0  0  0  0  0  0  0  0  0  0
    3.3723   -0.7119    0.2370 C   0  0  0  0  0  0  0  0  0  0  0  0
   -2.3704   -0.1367    0.6694 C   0  0  0  0  0  0  0  0  0  0  0  0
   -3.1694   -0.5224    1.6678 C   0  0  0  0  0  0  0  0  0  0  0  0
   -4.5802   -0.0839    1.4553 C   0  0  0  0  0  0  0  0  0  0  0  0
   -4.4806    0.6425    0.1555 C   0  0  0  0  0  0  0  0  0  0  0  0
   -5.4255    1.1903   -0.3906 O   0  0  0  0  0  0  0  0  0  0  0  0
   -3.1062    0.5559   -0.4246 C   0  0  2  0  0  0  0  0  0  0  0  0
   -3.1574   -0.2879   -1.7179 C   0  0  0  0  0  0  0  0  0  0  0  0
   -2.3910    1.8895   -0.6253 C   0  0  0  0  0  0  0  0  0  0  0  0
   -0.9193    1.6379   -1.0465 C   0  0  0  0  0  0  0  0  0  0  0  0
    7.3048   -0.7387   -0.5150 H   0  0  0  0  0  0  0  0  0  0  0  0
    5.9662   -1.9384   -0.3760 H   0  0  0  0  0  0  0  0  0  0  0  0
    6.2223   -0.6909    0.9257 H   0  0  0  0  0  0  0  0  0  0  0  0
    3.9286    1.6461   -2.1436 H   0  0  0  0  0  0  0  0  0  0  0  0
    1.5288    1.9114   -1.9225 H   0  0  0  0  0  0  0  0  0  0  0  0
   -0.6885   -2.3053    1.2228 H   0  0  0  0  0  0  0  0  0  0  0  0
   -0.4873   -1.1199    2.5442 H   0  0  0  0  0  0  0  0  0  0  0  0
    1.5290   -2.5234    1.1328 H   0  0  0  0  0  0  0  0  0  0  0  0
    1.7397   -1.2598    2.3775 H   0  0  0  0  0  0  0  0  0  0  0  0
    3.8894   -1.4456    0.8421 H   0  0  0  0  0  0  0  0  0  0  0  0
   -2.8352   -1.0355    2.5591 H   0  0  0  0  0  0  0  0  0  0  0  0
   -4.8945    0.6072    2.2652 H   0  0  0  0  0  0  0  0  0  0  0  0
   -5.2715   -0.9503    1.3904 H   0  0  0  0  0  0  0  0  0  0  0  0
   -3.7313    0.2495   -2.5029 H   0  0  0  0  0  0  0  0  0  0  0  0
   -3.6573   -1.2620   -1.5232 H   0  0  0  0  0  0  0  0  0  0  0  0
   -2.1473   -0.5173   -2.1126 H   0  0  0  0  0  0  0  0  0  0  0  0
   -2.3891    2.4300    0.3497 H   0  0  0  0  0  0  0  0  0  0  0  0
   -2.9025    2.5380   -1.3690 H   0  0  0  0  0  0  0  0  0  0  0  0
   -0.4000    2.6119   -0.9209 H   0  0  0  0  0  0  0  0  0  0  0  0
   -0.8644    1.3606   -2.1204 H   0  0  0  0  0  0  0  0  0  0  0  0
  1  2  1  0  0  0  0
  1 22  1  0  0  0  0
  1 23  1  0  0  0  0
  1 24  1  0  0  0  0
  2  3  1  0  0  0  0
  3  4  2  0  0  0  0
  4  5  1  0  0  0  0
  4 25  1  0  0  0  0
  5  6  2  0  0  0  0
  5 26  1  0  0  0  0
  6  7  1  0  0  0  0
  7  8  2  0  0  0  0
  8  9  1  0  0  0  0
  8 13  1  0  0  0  0
  9 10  1  0  0  0  0
  9 27  1  0  0  0  0
  9 28  1  0  0  0  0
 10 11  1  0  0  0  0
 10 29  1  0  0  0  0
 10 30  1  0  0  0  0
 11 12  2  0  0  0  0
 11  6  1  0  0  0  0
 12  3  1  0  0  0  0
 12 31  1  0  0  0  0
 13 14  2  0  0  0  0
 14 15  1  0  0  0  0
 14 32  1  0  0  0  0
 15 16  1  0  0  0  0
 15 33  1  0  0  0  0
 15 34  1  0  0  0  0
 16 17  2  0  0  0  0
 16 18  1  0  0  0  0
 18 19  1  6  0  0  0
 18 20  1  0  0  0  0
 18 13  1  0  0  0  0
 19 35  1  0  0  0  0
 19 36  1  0  0  0  0
 19 37  1  0  0  0  0
 20 21  1  0  0  0  0
 20 38  1  0  0  0  0
 20 39  1  0  0  0  0
 21  7  1  0  0  0  0
 21 40  1  0  0  0  0
 21 41  1  0  0  0  0
M  END
>  <IDENTIFIER>
CNP0215162.2

>  <Energy>
363.855

$$$$
