
 OpenBabel09072521513D

 53 56  0  0  0  0  0  0  0  0999 V2000
   -3.9895   -2.7410   -0.9868 C   0  0  0  0  0  0  0  0  0  0  0  0
   -2.8579   -1.7890   -0.7331 C   0  0  0  0  0  0  0  0  0  0  0  0
   -1.6895   -1.8288   -1.3835 C   0  0  0  0  0  0  0  0  0  0  0  0
   -0.6900   -0.8714   -0.7689 C   0  0  1  0  0  0  0  0  0  0  0  0
    0.1304   -0.1609   -1.8477 C   0  0  0  0  0  0  0  0  0  0  0  0
   -0.0597   -0.4108   -3.0302 O   0  0  0  0  0  0  0  0  0  0  0  0
    1.2220    0.8089   -1.4883 C   0  0  1  0  0  0  0  0  0  0  0  0
    0.6806    2.0998   -0.8676 C   0  0  0  0  0  0  0  0  0  0  0  0
   -0.2674    2.2955    0.1043 C   0  0  0  0  0  0  0  0  0  0  0  0
   -0.5796    3.7405    0.4676 C   0  0  0  0  0  0  0  0  0  0  0  0
   -0.2806    3.9636    1.8217 O   0  0  0  0  0  0  0  0  0  0  0  0
   -1.0699    1.1806    0.8235 C   0  0  1  0  0  0  0  0  0  0  0  0
   -2.0517    1.7302    1.6746 O   0  0  0  0  0  0  0  0  0  0  0  0
   -1.7047    0.1717   -0.1729 C   0  0  1  0  0  0  0  0  0  0  0  0
   -2.2454    0.9002   -1.2737 O   0  0  0  0  0  0  0  0  0  0  0  0
   -2.8380   -0.7375    0.3484 C   0  0  1  0  0  0  0  0  0  0  0  0
   -4.0594   -0.0486    0.4985 O   0  0  0  0  0  0  0  0  0  0  0  0
    2.3034   -0.0070   -0.7546 C   0  0  2  0  0  0  0  0  0  0  0  0
    2.1287    0.0959    0.7896 C   0  0  1  0  0  0  0  0  0  0  0  0
    1.3447   -1.1793    1.1486 C   0  0  0  0  0  0  0  0  0  0  0  0
    0.2878   -1.8005    0.1485 C   0  0  1  0  0  0  0  0  0  0  0  0
   -0.4080   -2.9265    0.9609 C   0  0  0  0  0  0  0  0  0  0  0  0
    3.4705    0.3591    0.0900 C   0  0  0  0  0  0  0  0  0  0  0  0
    4.5430   -0.7176    0.3123 C   0  0  0  0  0  0  0  0  0  0  0  0
    3.9751    1.8007   -0.0318 C   0  0  0  0  0  0  0  0  0  0  0  0
   -3.7395   -3.4496   -1.8048 H   0  0  0  0  0  0  0  0  0  0  0  0
   -4.9006   -2.1779   -1.2752 H   0  0  0  0  0  0  0  0  0  0  0  0
   -4.1956   -3.3213   -0.0634 H   0  0  0  0  0  0  0  0  0  0  0  0
   -1.4545   -2.5676   -2.1399 H   0  0  0  0  0  0  0  0  0  0  0  0
    1.7293    1.1250   -2.4287 H   0  0  0  0  0  0  0  0  0  0  0  0
    1.1083    2.9892   -1.3242 H   0  0  0  0  0  0  0  0  0  0  0  0
   -1.6453    3.9698    0.2387 H   0  0  0  0  0  0  0  0  0  0  0  0
    0.0090    4.4715   -0.1266 H   0  0  0  0  0  0  0  0  0  0  0  0
   -1.1409    4.0612    2.3063 H   0  0  0  0  0  0  0  0  0  0  0  0
   -0.4289    0.6211    1.5009 H   0  0  0  0  0  0  0  0  0  0  0  0
   -2.7480    2.1731    1.1281 H   0  0  0  0  0  0  0  0  0  0  0  0
   -2.8716    1.5951   -0.9490 H   0  0  0  0  0  0  0  0  0  0  0  0
   -2.6080   -1.2273    1.3103 H   0  0  0  0  0  0  0  0  0  0  0  0
   -4.5005    0.0238   -0.3877 H   0  0  0  0  0  0  0  0  0  0  0  0
    2.5689   -0.9701   -1.2483 H   0  0  0  0  0  0  0  0  0  0  0  0
    1.7083    1.0496    1.1459 H   0  0  0  0  0  0  0  0  0  0  0  0
    0.8545   -0.9541    2.1188 H   0  0  0  0  0  0  0  0  0  0  0  0
    2.0753   -1.9741    1.4078 H   0  0  0  0  0  0  0  0  0  0  0  0
    0.8815   -2.3576   -0.6106 H   0  0  0  0  0  0  0  0  0  0  0  0
   -0.9872   -2.5204    1.8106 H   0  0  0  0  0  0  0  0  0  0  0  0
    0.3550   -3.6083    1.3957 H   0  0  0  0  0  0  0  0  0  0  0  0
   -1.0570   -3.5715    0.3361 H   0  0  0  0  0  0  0  0  0  0  0  0
    5.1051   -0.4977    1.2437 H   0  0  0  0  0  0  0  0  0  0  0  0
    5.2506   -0.7128   -0.5431 H   0  0  0  0  0  0  0  0  0  0  0  0
    4.1142   -1.7379    0.3937 H   0  0  0  0  0  0  0  0  0  0  0  0
    4.5703    2.0609    0.8679 H   0  0  0  0  0  0  0  0  0  0  0  0
    3.1578    2.5397   -0.1226 H   0  0  0  0  0  0  0  0  0  0  0  0
    4.6276    1.8847   -0.9266 H   0  0  0  0  0  0  0  0  0  0  0  0
  1  2  1  0  0  0  0
  1 26  1  0  0  0  0
  1 27  1  0  0  0  0
  1 28  1  0  0  0  0
  2  3  2  0  0  0  0
  3 29  1  0  0  0  0
  4  3  1  6  0  0  0
  4  5  1  0  0  0  0
  5  6  2  0  0  0  0
  5  7  1  0  0  0  0
  7  8  1  0  0  0  0
  7 18  1  0  0  0  0
  7 30  1  6  0  0  0
  8  9  2  0  0  0  0
  8 31  1  0  0  0  0
  9 10  1  0  0  0  0
  9 12  1  0  0  0  0
 10 11  1  0  0  0  0
 10 32  1  0  0  0  0
 10 33  1  0  0  0  0
 11 34  1  0  0  0  0
 12 13  1  0  0  0  0
 12 14  1  0  0  0  0
 12 35  1  1  0  0  0
 13 36  1  0  0  0  0
 14 15  1  6  0  0  0
 14 16  1  0  0  0  0
 14  4  1  0  0  0  0
 15 37  1  0  0  0  0
 16 17  1  0  0  0  0
 16  2  1  0  0  0  0
 16 38  1  1  0  0  0
 17 39  1  0  0  0  0
 18 19  1  0  0  0  0
 18 23  1  0  0  0  0
 18 40  1  6  0  0  0
 19 20  1  0  0  0  0
 19 23  1  0  0  0  0
 19 41  1  1  0  0  0
 20 21  1  0  0  0  0
 20 42  1  0  0  0  0
 20 43  1  0  0  0  0
 21 22  1  0  0  0  0
 21  4  1  0  0  0  0
 21 44  1  6  0  0  0
 22 45  1  0  0  0  0
 22 46  1  0  0  0  0
 22 47  1  0  0  0  0
 23 24  1  0  0  0  0
 23 25  1  0  0  0  0
 24 48  1  0  0  0  0
 24 49  1  0  0  0  0
 24 50  1  0  0  0  0
 25 51  1  0  0  0  0
 25 52  1  0  0  0  0
 25 53  1  0  0  0  0
M  END
>  <IDENTIFIER>
CNP0182200.1

>  <Energy>
2132.2

$$$$
