
 OpenBabel09112504353D

 85 88  0  0  0  0  0  0  0  0999 V2000
    4.0101   -2.9143   -0.7499 C   0  0  0  0  0  0  0  0  0  0  0  0
    3.4879   -1.7684   -0.2643 C   0  0  0  0  0  0  0  0  0  0  0  0
    4.1159   -0.4015   -0.5315 C   0  0  0  0  0  0  0  0  0  0  0  0
    5.4120   -0.4020   -1.3613 C   0  0  0  0  0  0  0  0  0  0  0  0
    6.0074    1.0111   -1.6286 C   0  0  2  0  0  0  0  0  0  0  0  0
    7.1140    0.8887   -2.4924 O   0  0  0  0  0  0  0  0  0  0  0  0
    6.3797    1.8657   -0.3649 C   0  0  0  0  0  0  0  0  0  0  0  0
    7.3767    1.1128    0.5533 C   0  0  0  0  0  0  0  0  0  0  0  0
    7.0144    3.1964   -0.8103 C   0  0  0  0  0  0  0  0  0  0  0  0
    5.1929    2.1786    0.3311 O   0  0  0  0  0  0  0  0  0  0  0  0
    2.2310   -1.8486    0.5992 C   0  0  1  0  0  0  0  0  0  0  0  0
    2.3818   -1.2880    2.0446 C   0  0  0  0  0  0  0  0  0  0  0  0
    1.1530   -0.3718    2.2588 C   0  0  0  0  0  0  0  0  0  0  0  0
    0.0839   -0.9165    1.2820 C   0  0  2  0  0  0  0  0  0  0  0  0
   -0.4301   -2.2859    1.8877 C   0  0  0  0  0  0  0  0  0  0  0  0
    1.0003   -1.1108    0.0473 C   0  0  2  0  0  0  0  0  0  0  0  0
    0.2718   -1.7503   -1.1342 C   0  0  0  0  0  0  0  0  0  0  0  0
   -0.9236   -0.8668   -1.5468 C   0  0  0  0  0  0  0  0  0  0  0  0
   -1.9078   -0.6164   -0.3562 C   0  0  2  0  0  0  0  0  0  0  0  0
   -3.3199    0.0109   -0.7677 C   0  0  1  0  0  0  0  0  0  0  0  0
   -3.1558    1.3845   -1.4948 C   0  0  0  0  0  0  0  0  0  0  0  0
   -4.0308   -0.9504   -1.7843 C   0  0  0  0  0  0  0  0  0  0  0  0
   -5.5192   -0.6020   -2.0222 C   0  0  0  0  0  0  0  0  0  0  0  0
   -6.3289   -0.6359   -0.7133 C   0  0  1  0  0  0  0  0  0  0  0  0
   -6.4646   -1.9686   -0.2613 O   0  0  0  0  0  0  0  0  0  0  0  0
   -5.7471    0.3266    0.3847 C   0  0  0  0  0  0  0  0  0  0  0  0
   -6.0703    1.8032    0.0409 C   0  0  0  0  0  0  0  0  0  0  0  0
   -6.5074    0.0335    1.7131 C   0  0  0  0  0  0  0  0  0  0  0  0
   -4.1947    0.0422    0.5616 C   0  0  2  0  0  0  0  0  0  0  0  0
   -3.4895    0.8801    1.6663 C   0  0  0  0  0  0  0  0  0  0  0  0
   -2.1563    0.2100    2.0626 C   0  0  0  0  0  0  0  0  0  0  0  0
   -1.1484    0.0569    0.8845 C   0  0  1  0  0  0  0  0  0  0  0  0
   -0.6114    1.4963    0.5670 C   0  0  0  0  0  0  0  0  0  0  0  0
    4.9011   -2.9409   -1.3637 H   0  0  0  0  0  0  0  0  0  0  0  0
    3.5476   -3.8736   -0.5397 H   0  0  0  0  0  0  0  0  0  0  0  0
    4.3406    0.0282    0.4566 H   0  0  0  0  0  0  0  0  0  0  0  0
    3.3819    0.2438   -1.0552 H   0  0  0  0  0  0  0  0  0  0  0  0
    5.1893   -0.8556   -2.3522 H   0  0  0  0  0  0  0  0  0  0  0  0
    6.1712   -1.0341   -0.8539 H   0  0  0  0  0  0  0  0  0  0  0  0
    5.2349    1.5812   -2.1912 H   0  0  0  0  0  0  0  0  0  0  0  0
    7.7466    0.2349   -2.0971 H   0  0  0  0  0  0  0  0  0  0  0  0
    8.3182    0.8712    0.0181 H   0  0  0  0  0  0  0  0  0  0  0  0
    6.9293    0.1746    0.9405 H   0  0  0  0  0  0  0  0  0  0  0  0
    7.6443    1.7389    1.4316 H   0  0  0  0  0  0  0  0  0  0  0  0
    7.9617    3.0235   -1.3645 H   0  0  0  0  0  0  0  0  0  0  0  0
    7.2428    3.8288    0.0746 H   0  0  0  0  0  0  0  0  0  0  0  0
    6.3159    3.7585   -1.4665 H   0  0  0  0  0  0  0  0  0  0  0  0
    5.4041    2.3550    1.2848 H   0  0  0  0  0  0  0  0  0  0  0  0
    1.9305   -2.9139    0.6988 H   0  0  0  0  0  0  0  0  0  0  0  0
    3.3162   -0.7326    2.2654 H   0  0  0  0  0  0  0  0  0  0  0  0
    2.3549   -2.1496    2.7461 H   0  0  0  0  0  0  0  0  0  0  0  0
    1.5007    0.6201    1.9064 H   0  0  0  0  0  0  0  0  0  0  0  0
    0.8424   -0.2499    3.3183 H   0  0  0  0  0  0  0  0  0  0  0  0
    0.3673   -3.0059    2.1380 H   0  0  0  0  0  0  0  0  0  0  0  0
   -1.1134   -2.8513    1.2336 H   0  0  0  0  0  0  0  0  0  0  0  0
   -0.9235   -2.1278    2.8655 H   0  0  0  0  0  0  0  0  0  0  0  0
    1.3566   -0.1184   -0.2858 H   0  0  0  0  0  0  0  0  0  0  0  0
   -0.0884   -2.7629   -0.8570 H   0  0  0  0  0  0  0  0  0  0  0  0
    0.9666   -1.8591   -1.9946 H   0  0  0  0  0  0  0  0  0  0  0  0
   -1.4248   -1.3976   -2.3783 H   0  0  0  0  0  0  0  0  0  0  0  0
   -0.5436    0.0953   -1.9448 H   0  0  0  0  0  0  0  0  0  0  0  0
   -2.2026   -1.6246   -0.0230 H   0  0  0  0  0  0  0  0  0  0  0  0
   -2.3941    1.3166   -2.2954 H   0  0  0  0  0  0  0  0  0  0  0  0
   -2.9281    2.2311   -0.8461 H   0  0  0  0  0  0  0  0  0  0  0  0
   -4.0429    1.7154   -2.0413 H   0  0  0  0  0  0  0  0  0  0  0  0
   -3.9803   -1.9950   -1.4142 H   0  0  0  0  0  0  0  0  0  0  0  0
   -3.5171   -0.9380   -2.7680 H   0  0  0  0  0  0  0  0  0  0  0  0
   -5.9565   -1.3282   -2.7402 H   0  0  0  0  0  0  0  0  0  0  0  0
   -5.6238    0.3913   -2.4948 H   0  0  0  0  0  0  0  0  0  0  0  0
   -7.3655   -0.3114   -0.9486 H   0  0  0  0  0  0  0  0  0  0  0  0
   -5.5876   -2.3203    0.0251 H   0  0  0  0  0  0  0  0  0  0  0  0
   -7.1714    1.9513   -0.0023 H   0  0  0  0  0  0  0  0  0  0  0  0
   -5.7018    2.1401   -0.9315 H   0  0  0  0  0  0  0  0  0  0  0  0
   -5.6732    2.4859    0.8202 H   0  0  0  0  0  0  0  0  0  0  0  0
   -7.6034    0.1367    1.5648 H   0  0  0  0  0  0  0  0  0  0  0  0
   -6.2310    0.7355    2.5236 H   0  0  0  0  0  0  0  0  0  0  0  0
   -6.3092   -0.9976    2.0716 H   0  0  0  0  0  0  0  0  0  0  0  0
   -4.1802   -0.9980    0.9517 H   0  0  0  0  0  0  0  0  0  0  0  0
   -4.0904    0.8929    2.5940 H   0  0  0  0  0  0  0  0  0  0  0  0
   -3.3646    1.9364    1.3597 H   0  0  0  0  0  0  0  0  0  0  0  0
   -2.4652   -0.7786    2.4445 H   0  0  0  0  0  0  0  0  0  0  0  0
   -1.6824    0.7546    2.9090 H   0  0  0  0  0  0  0  0  0  0  0  0
   -1.3838    2.2464    0.4162 H   0  0  0  0  0  0  0  0  0  0  0  0
    0.0552    1.5499   -0.3099 H   0  0  0  0  0  0  0  0  0  0  0  0
   -0.0822    1.9233    1.4399 H   0  0  0  0  0  0  0  0  0  0  0  0
  1  2  2  0  0  0  0
  1 34  1  0  0  0  0
  1 35  1  0  0  0  0
  2  3  1  0  0  0  0
  3  4  1  0  0  0  0
  3 36  1  0  0  0  0
  3 37  1  0  0  0  0
  4  5  1  0  0  0  0
  4 38  1  0  0  0  0
  4 39  1  0  0  0  0
  5  6  1  0  0  0  0
  5  7  1  0  0  0  0
  5 40  1  6  0  0  0
  6 41  1  0  0  0  0
  7  8  1  0  0  0  0
  7  9  1  0  0  0  0
  7 10  1  0  0  0  0
  8 42  1  0  0  0  0
  8 43  1  0  0  0  0
  8 44  1  0  0  0  0
  9 45  1  0  0  0  0
  9 46  1  0  0  0  0
  9 47  1  0  0  0  0
 10 48  1  0  0  0  0
 11  2  1  0  0  0  0
 11 12  1  0  0  0  0
 11 49  1  1  0  0  0
 12 13  1  0  0  0  0
 12 50  1  0  0  0  0
 12 51  1  0  0  0  0
 13 14  1  0  0  0  0
 13 52  1  0  0  0  0
 13 53  1  0  0  0  0
 14 15  1  1  0  0  0
 14 16  1  0  0  0  0
 15 54  1  0  0  0  0
 15 55  1  0  0  0  0
 15 56  1  0  0  0  0
 16 17  1  0  0  0  0
 16 11  1  0  0  0  0
 16 57  1  6  0  0  0
 17 18  1  0  0  0  0
 17 58  1  0  0  0  0
 17 59  1  0  0  0  0
 18 60  1  0  0  0  0
 18 61  1  0  0  0  0
 19 18  1  0  0  0  0
 19 20  1  0  0  0  0
 19 62  1  1  0  0  0
 20 21  1  6  0  0  0
 20 22  1  0  0  0  0
 21 63  1  0  0  0  0
 21 64  1  0  0  0  0
 21 65  1  0  0  0  0
 22 23  1  0  0  0  0
 22 66  1  0  0  0  0
 22 67  1  0  0  0  0
 23 24  1  0  0  0  0
 23 68  1  0  0  0  0
 23 69  1  0  0  0  0
 24 25  1  0  0  0  0
 24 26  1  0  0  0  0
 24 70  1  6  0  0  0
 25 71  1  0  0  0  0
 26 27  1  0  0  0  0
 26 28  1  0  0  0  0
 26 29  1  0  0  0  0
 27 72  1  0  0  0  0
 27 73  1  0  0  0  0
 27 74  1  0  0  0  0
 28 75  1  0  0  0  0
 28 76  1  0  0  0  0
 28 77  1  0  0  0  0
 29 30  1  0  0  0  0
 29 20  1  0  0  0  0
 29 78  1  1  0  0  0
 30 31  1  0  0  0  0
 30 79  1  0  0  0  0
 30 80  1  0  0  0  0
 31 32  1  0  0  0  0
 31 81  1  0  0  0  0
 31 82  1  0  0  0  0
 32 33  1  6  0  0  0
 32 19  1  0  0  0  0
 32 14  1  0  0  0  0
 33 83  1  0  0  0  0
 33 84  1  0  0  0  0
 33 85  1  0  0  0  0
M  END
>  <IDENTIFIER>
CNP0104877.1

>  <Energy>
841.061

$$$$
