
 OpenBabel09102508532D

189188  0  0  0  0  0  0  0  0999 V2000
   24.6817   14.2500    0.0000 C   0  0  0  0  0  0  0  0  0  0  0  0
   23.3827   13.5000    0.0000 C   0  0  0  0  0  0  0  0  0  0  0  0
   22.0836   12.7500    0.0000 C   0  0  0  0  0  0  0  0  0  0  0  0
   20.7846   12.0000    0.0000 C   0  0  0  0  0  2  0  0  0  0  0  0
   19.4856   11.2500    0.0000 C   0  0  0  0  0  0  0  0  0  0  0  0
   18.1865   10.5000    0.0000 C   0  0  0  0  0  0  0  0  0  0  0  0
   16.8875    9.7500    0.0000 C   0  0  0  0  0  2  0  0  0  0  0  0
   15.5885    9.0000    0.0000 C   0  0  0  0  0  0  0  0  0  0  0  0
   13.9564    8.6323   -0.1630 C   0  0  0  0  0  0  0  0  0  0  0  0
   13.3285    7.0861    0.1689 C   0  0  0  0  0  0  0  0  0  0  0  0
   11.6913    6.7500    0.0000 C   0  0  0  0  0  0  0  0  0  0  0  0
   10.3923    6.0000    0.0000 C   0  0  0  0  0  0  0  0  0  0  0  0
    9.0933    5.2500    0.0000 C   0  0  0  0  0  0  0  0  0  0  0  0
    7.7942    4.5000    0.0000 C   0  0  0  0  0  0  0  0  0  0  0  0
    6.4952    3.7500    0.0000 C   0  0  0  0  0  0  0  0  0  0  0  0
    5.1962    3.0000    0.0000 C   0  0  0  0  0  0  0  0  0  0  0  0
    3.5514    2.9539   -0.3318 C   0  0  0  0  0  0  0  0  0  0  0  0
    2.6740    1.5366   -0.0205 C   0  0  0  0  0  0  0  0  0  0  0  0
    1.0322    1.2798   -0.3252 C   0  0  0  0  0  0  0  0  0  0  0  0
    0.2638   -0.1422    0.0309 C   0  0  0  0  0  0  0  0  0  0  0  0
    0.9695   -0.9901    0.5536 O   0  0  0  0  0  0  0  0  0  0  0  0
   -1.1286   -0.4977   -0.2103 O   0  0  0  0  0  0  0  0  0  0  0  0
   -1.7830   -1.7769    0.1412 C   0  0  0  0  0  0  0  0  0  0  0  0
   -3.3649   -2.2634   -0.2493 C   0  0  2  0  0  0  0  0  0  0  0  0
   -3.6860   -3.8803    0.1020 C   0  0  0  0  0  0  0  0  0  0  0  0
   -4.9696   -4.5746   -0.1410 O   0  0  0  0  0  0  0  0  0  0  0  0
   -5.1962   -6.0000    0.0000 C   0  0  0  0  0  0  0  0  0  0  0  0
   -4.1802   -6.6790    0.1502 O   0  0  0  0  0  0  0  0  0  0  0  0
   -6.4952   -6.7500    0.0000 C   0  0  0  0  0  0  0  0  0  0  0  0
   -7.7942   -7.5000    0.0000 C   0  0  0  0  0  0  0  0  0  0  0  0
   -9.0933   -8.2500    0.0000 C   0  0  0  0  0  0  0  0  0  0  0  0
  -10.3923   -9.0000    0.0000 C   0  0  0  0  0  0  0  0  0  0  0  0
  -11.6913   -9.7500    0.0000 C   0  0  0  0  0  0  0  0  0  0  0  0
  -13.3378  -10.0695   -0.0934 C   0  0  0  0  0  0  0  0  0  0  0  0
  -13.9483  -11.6460    0.1004 C   0  0  0  0  0  0  0  0  0  0  0  0
  -15.5885  -12.0000    0.0000 C   0  0  0  0  0  0  0  0  0  0  0  0
  -16.8875  -12.7500    0.0000 C   0  0  0  0  0  2  0  0  0  0  0  0
  -18.1865  -13.5000    0.0000 C   0  0  0  0  0  0  0  0  0  0  0  0
  -19.4856  -14.2500    0.0000 C   0  0  0  0  0  0  0  0  0  0  0  0
  -20.7846  -15.0000    0.0000 C   0  0  0  0  0  2  0  0  0  0  0  0
  -22.0836  -15.7500    0.0000 C   0  0  0  0  0  0  0  0  0  0  0  0
  -23.5933  -16.3416   -0.4453 C   0  0  0  0  0  0  0  0  0  0  0  0
  -24.4606  -17.4752    0.4863 C   0  0  0  0  0  0  0  0  0  0  0  0
  -25.9808  -18.0000    0.0000 C   0  0  0  0  0  0  0  0  0  0  0  0
  -27.2798  -18.7500    0.0000 C   0  0  0  0  0  0  0  0  0  0  0  0
  -28.5788  -19.5000    0.0000 C   0  0  0  0  0  0  0  0  0  0  0  0
  -29.8779  -20.2500    0.0000 C   0  0  0  0  0  0  0  0  0  0  0  0
  -31.1769  -21.0000    0.0000 C   0  0  0  0  0  0  0  0  0  0  0  0
  -29.1279  -21.5490    0.0000 C   0  0  0  0  0  0  0  0  0  0  0  0
   -4.3775   -1.4731    0.3380 O   0  0  0  0  0  0  0  0  0  0  0  0
   -4.8293   -0.2274   -0.0615 C   0  0  0  0  0  0  0  0  0  0  0  0
   -4.1920    0.4149   -0.8827 O   0  0  0  0  0  0  0  0  0  0  0  0
   -6.1760    0.3345    0.4772 C   0  0  0  0  0  0  0  0  0  0  0  0
   -6.5866    1.7629   -0.0445 C   0  0  0  0  0  0  0  0  0  0  0  0
   -8.0036    2.3060    0.4136 C   0  0  0  0  0  0  0  0  0  0  0  0
   -8.2136    3.8033   -0.0115 C   0  0  0  0  0  0  0  0  0  0  0  0
   -9.5903    4.5633    0.2695 C   0  0  0  0  0  0  0  0  0  0  0  0
   -9.3481    6.0933    0.0000 C   0  0  0  0  0  0  0  0  0  0  0  0
  -10.0981    7.3923    0.0000 C   0  0  0  0  0  0  0  0  0  0  0  0
  -10.8481    8.6913    0.0000 C   0  0  0  0  0  0  0  0  0  0  0  0
  -11.3824   10.2126   -0.4772 C   0  0  0  0  0  0  0  0  0  0  0  0
  -12.6717   10.9940    0.3211 C   0  0  0  0  0  0  0  0  0  0  0  0
  -13.0981   12.5885    0.0000 C   0  0  0  0  0  0  0  0  0  0  0  0
  -13.8481   13.8875    0.0000 C   0  0  0  0  0  0  0  0  0  0  0  0
  -14.5981   15.1865    0.0000 C   0  0  0  0  0  0  0  0  0  0  0  0
  -15.3481   16.4856    0.0000 C   0  0  0  0  0  0  0  0  0  0  0  0
  -16.0981   17.7846    0.0000 C   0  0  0  0  0  0  0  0  0  0  0  0
  -16.8481   19.0836    0.0000 C   0  0  0  0  0  0  0  0  0  0  0  0
  -16.8836   20.7956   -0.1968 C   0  0  0  0  0  0  0  0  0  0  0  0
  -18.3481   21.6817    0.0000 C   0  0  0  0  0  0  0  0  0  0  0  0
  -19.0981   22.9808    0.0000 C   0  0  0  0  0  0  0  0  0  0  0  0
   25.4331   13.4152    0.0951 H   0  0  0  0  0  0  0  0  0  0  0  0
   24.5133   14.8059    0.9527 H   0  0  0  0  0  0  0  0  0  0  0  0
   25.6083   14.7850    0.0000 H   0  0  0  0  0  0  0  0  0  0  0  0
   23.7008   12.9632   -0.9345 H   0  0  0  0  0  0  0  0  0  0  0  0
   23.6732   12.8883    0.9060 H   0  0  0  0  0  0  0  0  0  0  0  0
   21.6989   13.3101   -0.8891 H   0  0  0  0  0  0  0  0  0  0  0  0
   21.6961   13.3112    0.8889 H   0  0  0  0  0  0  0  0  0  0  0  0
   19.8547   10.6945   -0.8960 H   0  0  0  0  0  0  0  0  0  0  0  0
   19.8547   10.6944    0.8959 H   0  0  0  0  0  0  0  0  0  0  0  0
   17.8174   11.0557   -0.8959 H   0  0  0  0  0  0  0  0  0  0  0  0
   17.8175   11.0556    0.8960 H   0  0  0  0  0  0  0  0  0  0  0  0
   15.6817    8.6425    1.0467 H   0  0  0  0  0  0  0  0  0  0  0  0
   15.9560    8.1685   -0.6369 H   0  0  0  0  0  0  0  0  0  0  0  0
   13.6817    8.8670   -1.2128 H   0  0  0  0  0  0  0  0  0  0  0  0
   13.4051    9.3443    0.4864 H   0  0  0  0  0  0  0  0  0  0  0  0
   13.8737    6.3702   -0.4814 H   0  0  0  0  0  0  0  0  0  0  0  0
   13.5989    6.8484    1.2192 H   0  0  0  0  0  0  0  0  0  0  0  0
   11.3631    7.6266    0.6135 H   0  0  0  0  0  0  0  0  0  0  0  0
   11.6222    7.1467   -1.0446 H   0  0  0  0  0  0  0  0  0  0  0  0
   10.4821    5.8492    1.1104 H   0  0  0  0  0  0  0  0  0  0  0  0
   11.0089    5.2281   -0.5665 H   0  0  0  0  0  0  0  0  0  0  0  0
    9.0763    5.3206   -1.1308 H   0  0  0  0  0  0  0  0  0  0  0  0
    9.5631    4.2414    0.2593 H   0  0  0  0  0  0  0  0  0  0  0  0
    7.3209    5.5027   -0.2747 H   0  0  0  0  0  0  0  0  0  0  0  0
    7.8067    4.4406    1.1305 H   0  0  0  0  0  0  0  0  0  0  0  0
    5.8702    4.5295    0.5438 H   0  0  0  0  0  0  0  0  0  0  0  0
    6.4242    3.8571   -1.1148 H   0  0  0  0  0  0  0  0  0  0  0  0
    5.1692    2.6309    1.0555 H   0  0  0  0  0  0  0  0  0  0  0  0
    5.4917    2.0803   -0.5619 H   0  0  0  0  0  0  0  0  0  0  0  0
    3.0702    3.7732    0.2414 H   0  0  0  0  0  0  0  0  0  0  0  0
    3.4303    3.1839   -1.4111 H   0  0  0  0  0  0  0  0  0  0  0  0
    3.2038    0.7324   -0.5722 H   0  0  0  0  0  0  0  0  0  0  0  0
    2.8143    1.3331    1.0616 H   0  0  0  0  0  0  0  0  0  0  0  0
    0.4814    2.0777    0.2145 H   0  0  0  0  0  0  0  0  0  0  0  0
    0.8891    1.4512   -1.4121 H   0  0  0  0  0  0  0  0  0  0  0  0
   -1.6873   -1.9023    1.2403 H   0  0  0  0  0  0  0  0  0  0  0  0
   -1.1477   -2.5649   -0.3155 H   0  0  0  0  0  0  0  0  0  0  0  0
   -3.4686   -2.1880   -1.3531 H   0  0  0  0  0  0  0  0  0  0  0  0
   -2.9039   -4.4459   -0.4490 H   0  0  0  0  0  0  0  0  0  0  0  0
   -3.4611   -4.0090    1.1823 H   0  0  0  0  0  0  0  0  0  0  0  0
   -6.1247   -7.3961   -0.8370 H   0  0  0  0  0  0  0  0  0  0  0  0
   -6.1989   -7.0005    1.0706 H   0  0  0  0  0  0  0  0  0  0  0  0
   -7.3413   -8.4432    0.4574 H   0  0  0  0  0  0  0  0  0  0  0  0
   -8.1639   -6.8476    0.8525 H   0  0  0  0  0  0  0  0  0  0  0  0
   -9.5288   -7.3028   -0.4707 H   0  0  0  0  0  0  0  0  0  0  0  0
   -8.7365   -8.9071   -0.8503 H   0  0  0  0  0  0  0  0  0  0  0  0
  -10.7347   -8.6857   -1.0417 H   0  0  0  0  0  0  0  0  0  0  0  0
  -10.8077   -8.3074    0.7796 H   0  0  0  0  0  0  0  0  0  0  0  0
  -11.4092  -10.5615   -0.7222 H   0  0  0  0  0  0  0  0  0  0  0  0
  -11.5567  -10.2505    0.9898 H   0  0  0  0  0  0  0  0  0  0  0  0
  -13.8357   -9.4332    0.6682 H   0  0  0  0  0  0  0  0  0  0  0  0
  -13.6763   -9.7161   -1.0900 H   0  0  0  0  0  0  0  0  0  0  0  0
  -13.6082  -11.9964    1.0975 H   0  0  0  0  0  0  0  0  0  0  0  0
  -13.4416  -12.2780   -0.6589 H   0  0  0  0  0  0  0  0  0  0  0  0
  -15.7466  -11.5288   -0.9925 H   0  0  0  0  0  0  0  0  0  0  0  0
  -15.9123  -11.2458    0.7473 H   0  0  0  0  0  0  0  0  0  0  0  0
  -17.8173  -14.0559    0.8958 H   0  0  0  0  0  0  0  0  0  0  0  0
  -17.8175  -14.0554   -0.8962 H   0  0  0  0  0  0  0  0  0  0  0  0
  -19.8548  -13.6940   -0.8957 H   0  0  0  0  0  0  0  0  0  0  0  0
  -19.8546  -13.6946    0.8962 H   0  0  0  0  0  0  0  0  0  0  0  0
  -22.3888  -15.4153    1.0134 H   0  0  0  0  0  0  0  0  0  0  0  0
  -21.6143  -16.7464    0.1381 H   0  0  0  0  0  0  0  0  0  0  0  0
  -23.4723  -16.7916   -1.4531 H   0  0  0  0  0  0  0  0  0  0  0  0
  -24.2526  -15.4557   -0.5612 H   0  0  0  0  0  0  0  0  0  0  0  0
  -23.8175  -18.3739    0.5949 H   0  0  0  0  0  0  0  0  0  0  0  0
  -24.5792  -17.0328    1.4984 H   0  0  0  0  0  0  0  0  0  0  0  0
  -26.2910  -16.9153   -0.1161 H   0  0  0  0  0  0  0  0  0  0  0  0
  -25.6194  -18.3576   -0.9949 H   0  0  0  0  0  0  0  0  0  0  0  0
  -27.6775  -18.0822   -0.8405 H   0  0  0  0  0  0  0  0  0  0  0  0
  -27.5464  -18.1329    0.9229 H   0  0  0  0  0  0  0  0  0  0  0  0
  -28.0892  -19.9438    0.9652 H   0  0  0  0  0  0  0  0  0  0  0  0
  -28.2815  -19.8579   -1.0597 H   0  0  0  0  0  0  0  0  0  0  0  0
  -30.0834  -19.7254    0.9772 H   0  0  0  0  0  0  0  0  0  0  0  0
  -31.8205  -20.1123   -0.2002 H   0  0  0  0  0  0  0  0  0  0  0  0
  -31.3047  -21.3085    1.0779 H   0  0  0  0  0  0  0  0  0  0  0  0
  -32.1035  -21.5350    0.0000 H   0  0  0  0  0  0  0  0  0  0  0  0
  -29.3372  -21.9574   -1.0300 H   0  0  0  0  0  0  0  0  0  0  0  0
  -29.3364  -22.0111    1.0052 H   0  0  0  0  0  0  0  0  0  0  0  0
  -28.5929  -22.4756    0.0000 H   0  0  0  0  0  0  0  0  0  0  0  0
   -6.9736   -0.3856    0.1973 H   0  0  0  0  0  0  0  0  0  0  0  0
   -6.1192    0.3771    1.5855 H   0  0  0  0  0  0  0  0  0  0  0  0
   -5.8037    2.4716    0.3005 H   0  0  0  0  0  0  0  0  0  0  0  0
   -6.5783    1.7528   -1.1561 H   0  0  0  0  0  0  0  0  0  0  0  0
   -8.7975    1.6671   -0.0278 H   0  0  0  0  0  0  0  0  0  0  0  0
   -8.0795    2.2515    1.5209 H   0  0  0  0  0  0  0  0  0  0  0  0
   -8.0191    3.8790   -1.1037 H   0  0  0  0  0  0  0  0  0  0  0  0
   -7.4043    4.3584    0.5113 H   0  0  0  0  0  0  0  0  0  0  0  0
   -9.8908    4.4380    1.3317 H   0  0  0  0  0  0  0  0  0  0  0  0
  -10.3859    4.1535   -0.3872 H   0  0  0  0  0  0  0  0  0  0  0  0
   -8.8119    6.1143   -0.9816 H   0  0  0  0  0  0  0  0  0  0  0  0
   -8.5432    6.3226    0.7396 H   0  0  0  0  0  0  0  0  0  0  0  0
  -10.5662    7.0280    0.9576 H   0  0  0  0  0  0  0  0  0  0  0  0
  -10.6737    7.0459   -0.8967 H   0  0  0  0  0  0  0  0  0  0  0  0
  -11.9066    8.3234    0.1144 H   0  0  0  0  0  0  0  0  0  0  0  0
  -10.5162    9.0633    1.0014 H   0  0  0  0  0  0  0  0  0  0  0  0
  -10.4995   10.8857   -0.4353 H   0  0  0  0  0  0  0  0  0  0  0  0
  -11.6844   10.1406   -1.5432 H   0  0  0  0  0  0  0  0  0  0  0  0
  -12.4622   10.9472    1.4106 H   0  0  0  0  0  0  0  0  0  0  0  0
  -13.5701   10.3685    0.1363 H   0  0  0  0  0  0  0  0  0  0  0  0
  -13.0084   12.4806   -1.1095 H   0  0  0  0  0  0  0  0  0  0  0  0
  -12.0917   13.0008    0.2704 H   0  0  0  0  0  0  0  0  0  0  0  0
  -14.7445   13.3495   -0.4142 H   0  0  0  0  0  0  0  0  0  0  0  0
  -13.7947   13.7545    1.1312 H   0  0  0  0  0  0  0  0  0  0  0  0
  -13.7414   15.6574    0.5802 H   0  0  0  0  0  0  0  0  0  0  0  0
  -15.3695   14.8567    0.7738 H   0  0  0  0  0  0  0  0  0  0  0  0
  -16.1735   16.0277   -0.6215 H   0  0  0  0  0  0  0  0  0  0  0  0
  -14.5383   16.8470   -0.7231 H   0  0  0  0  0  0  0  0  0  0  0  0
  -15.2873   18.2729    0.5982 H   0  0  0  0  0  0  0  0  0  0  0  0
  -15.9972   18.0058   -1.1132 H   0  0  0  0  0  0  0  0  0  0  0  0
  -17.2604   19.0436    1.0351 H   0  0  0  0  0  0  0  0  0  0  0  0
  -17.7550   18.8387   -0.6149 H   0  0  0  0  0  0  0  0  0  0  0  0
  -16.1408   21.2205    0.5104 H   0  0  0  0  0  0  0  0  0  0  0  0
  -16.5206   21.0077   -1.2242 H   0  0  0  0  0  0  0  0  0  0  0  0
  -18.9425   21.0812   -0.7336 H   0  0  0  0  0  0  0  0  0  0  0  0
  -18.6227   21.3015    1.0102 H   0  0  0  0  0  0  0  0  0  0  0  0
  -18.8868   23.2312   -1.0634 H   0  0  0  0  0  0  0  0  0  0  0  0
  -20.1297   22.5749    0.1430 H   0  0  0  0  0  0  0  0  0  0  0  0
  -19.6331   23.9075    0.0000 H   0  0  0  0  0  0  0  0  0  0  0  0
  1  2  1  0  0  0  0
  1 72  1  0  0  0  0
  1 73  1  0  0  0  0
  1 74  1  0  0  0  0
  2  3  1  0  0  0  0
  2 75  1  0  0  0  0
  2 76  1  0  0  0  0
  3  4  1  0  0  0  0
  3 77  1  0  0  0  0
  3 78  1  0  0  0  0
  4  5  1  0  0  0  0
  5  6  1  0  0  0  0
  5 79  1  0  0  0  0
  5 80  1  0  0  0  0
  6  7  1  0  0  0  0
  6 81  1  0  0  0  0
  6 82  1  0  0  0  0
  7  8  1  0  0  0  0
  8  9  1  0  0  0  0
  8 83  1  0  0  0  0
  8 84  1  0  0  0  0
  9 10  1  0  0  0  0
  9 85  1  0  0  0  0
  9 86  1  0  0  0  0
 10 11  1  0  0  0  0
 10 87  1  0  0  0  0
 10 88  1  0  0  0  0
 11 12  1  0  0  0  0
 11 89  1  0  0  0  0
 11 90  1  0  0  0  0
 12 13  1  0  0  0  0
 12 91  1  0  0  0  0
 12 92  1  0  0  0  0
 13 14  1  0  0  0  0
 13 93  1  0  0  0  0
 13 94  1  0  0  0  0
 14 15  1  0  0  0  0
 14 95  1  0  0  0  0
 14 96  1  0  0  0  0
 15 16  1  0  0  0  0
 15 97  1  0  0  0  0
 15 98  1  0  0  0  0
 16 17  1  0  0  0  0
 16 99  1  0  0  0  0
 16100  1  0  0  0  0
 17 18  1  0  0  0  0
 17101  1  0  0  0  0
 17102  1  0  0  0  0
 18 19  1  0  0  0  0
 18103  1  0  0  0  0
 18104  1  0  0  0  0
 19 20  1  0  0  0  0
 19105  1  0  0  0  0
 19106  1  0  0  0  0
 20 21  2  0  0  0  0
 20 22  1  0  0  0  0
 22 23  1  0  0  0  0
 23107  1  0  0  0  0
 23108  1  0  0  0  0
 24 23  1  0  0  0  0
 24 25  1  0  0  0  0
 24 50  1  0  0  0  0
 24109  1  1  0  0  0
 25 26  1  0  0  0  0
 25110  1  0  0  0  0
 25111  1  0  0  0  0
 26 27  1  0  0  0  0
 27 28  2  0  0  0  0
 27 29  1  0  0  0  0
 29 30  1  0  0  0  0
 29112  1  0  0  0  0
 29113  1  0  0  0  0
 30 31  1  0  0  0  0
 30114  1  0  0  0  0
 30115  1  0  0  0  0
 31 32  1  0  0  0  0
 31116  1  0  0  0  0
 31117  1  0  0  0  0
 32 33  1  0  0  0  0
 32118  1  0  0  0  0
 32119  1  0  0  0  0
 33 34  1  0  0  0  0
 33120  1  0  0  0  0
 33121  1  0  0  0  0
 34 35  1  0  0  0  0
 34122  1  0  0  0  0
 34123  1  0  0  0  0
 35 36  1  0  0  0  0
 35124  1  0  0  0  0
 35125  1  0  0  0  0
 36 37  1  0  0  0  0
 36126  1  0  0  0  0
 36127  1  0  0  0  0
 37 38  1  0  0  0  0
 38 39  1  0  0  0  0
 38128  1  0  0  0  0
 38129  1  0  0  0  0
 39 40  1  0  0  0  0
 39130  1  0  0  0  0
 39131  1  0  0  0  0
 40 41  1  0  0  0  0
 41 42  1  0  0  0  0
 41132  1  0  0  0  0
 41133  1  0  0  0  0
 42 43  1  0  0  0  0
 42134  1  0  0  0  0
 42135  1  0  0  0  0
 43 44  1  0  0  0  0
 43136  1  0  0  0  0
 43137  1  0  0  0  0
 44 45  1  0  0  0  0
 44138  1  0  0  0  0
 44139  1  0  0  0  0
 45 46  1  0  0  0  0
 45140  1  0  0  0  0
 45141  1  0  0  0  0
 46 47  1  0  0  0  0
 46142  1  0  0  0  0
 46143  1  0  0  0  0
 47 48  1  0  0  0  0
 47 49  1  0  0  0  0
 47144  1  0  0  0  0
 48145  1  0  0  0  0
 48146  1  0  0  0  0
 48147  1  0  0  0  0
 49148  1  0  0  0  0
 49149  1  0  0  0  0
 49150  1  0  0  0  0
 50 51  1  0  0  0  0
 51 52  2  0  0  0  0
 51 53  1  0  0  0  0
 53 54  1  0  0  0  0
 53151  1  0  0  0  0
 53152  1  0  0  0  0
 54 55  1  0  0  0  0
 54153  1  0  0  0  0
 54154  1  0  0  0  0
 55 56  1  0  0  0  0
 55155  1  0  0  0  0
 55156  1  0  0  0  0
 56 57  1  0  0  0  0
 56157  1  0  0  0  0
 56158  1  0  0  0  0
 57 58  1  0  0  0  0
 57159  1  0  0  0  0
 57160  1  0  0  0  0
 58 59  1  0  0  0  0
 58161  1  0  0  0  0
 58162  1  0  0  0  0
 59 60  1  0  0  0  0
 59163  1  0  0  0  0
 59164  1  0  0  0  0
 60 61  1  0  0  0  0
 60165  1  0  0  0  0
 60166  1  0  0  0  0
 61 62  1  0  0  0  0
 61167  1  0  0  0  0
 61168  1  0  0  0  0
 62 63  1  0  0  0  0
 62169  1  0  0  0  0
 62170  1  0  0  0  0
 63 64  1  0  0  0  0
 63171  1  0  0  0  0
 63172  1  0  0  0  0
 64 65  1  0  0  0  0
 64173  1  0  0  0  0
 64174  1  0  0  0  0
 65 66  1  0  0  0  0
 65175  1  0  0  0  0
 65176  1  0  0  0  0
 66 67  1  0  0  0  0
 66177  1  0  0  0  0
 66178  1  0  0  0  0
 67 68  1  0  0  0  0
 67179  1  0  0  0  0
 67180  1  0  0  0  0
 68 69  1  0  0  0  0
 68181  1  0  0  0  0
 68182  1  0  0  0  0
 69 70  1  0  0  0  0
 69183  1  0  0  0  0
 69184  1  0  0  0  0
 70 71  1  0  0  0  0
 70185  1  0  0  0  0
 70186  1  0  0  0  0
 71187  1  0  0  0  0
 71188  1  0  0  0  0
 71189  1  0  0  0  0
M  END
>  <IDENTIFIER>
CNP0545011.1

>  <Energy>
15799.3

$$$$
