
 OpenBabel09062502433D

119121  0  0  0  0  0  0  0  0999 V2000
    9.0340   -5.4502    0.0871 C   0  0  0  0  0  0  0  0  0  0  0  0
    8.9023   -3.9864    0.4948 C   0  0  0  0  0  0  0  0  0  0  0  0
    7.9371   -3.2386   -0.4363 C   0  0  0  0  0  0  0  0  0  0  0  0
    7.7765   -1.7497   -0.0667 C   0  0  0  0  0  0  0  0  0  0  0  0
    7.2335   -1.4790    1.3533 C   0  0  0  0  0  0  0  0  0  0  0  0
    5.8490   -2.1074    1.5789 C   0  0  0  0  0  0  0  0  0  0  0  0
    5.2636   -1.8693    2.9814 C   0  0  0  0  0  0  0  0  0  0  0  0
    5.0388   -0.3905    3.3360 C   0  0  0  0  0  0  0  0  0  0  0  0
    4.3631    0.3151    2.3198 O   0  0  0  0  0  0  0  0  0  0  0  0
    2.9903   -0.0299    2.1971 C   0  0  2  0  0  0  0  0  0  0  0  0
    2.7723   -0.6978    0.9509 O   0  0  0  0  0  0  0  0  0  0  0  0
    2.8334    0.2211   -0.1226 C   0  0  1  0  0  0  0  0  0  0  0  0
    2.9247   -0.5300   -1.4482 C   0  0  0  0  0  0  0  0  0  0  0  0
    1.6196    1.1974   -0.1014 C   0  0  2  0  0  0  0  0  0  0  0  0
    2.1039    2.4510   -0.4371 O   0  0  0  0  0  0  0  0  0  0  0  0
    1.7718    3.1912   -1.5212 C   0  0  0  0  0  0  0  0  0  0  0  0
    0.9820    2.7692   -2.3546 O   0  0  0  0  0  0  0  0  0  0  0  0
    2.4242    4.5389   -1.6727 C   0  0  0  0  0  0  0  0  0  0  0  0
    2.0088    5.2726   -2.9529 C   0  0  0  0  0  0  0  0  0  0  0  0
    2.6966    6.6435   -3.0400 C   0  0  0  0  0  0  0  0  0  0  0  0
    2.3790    7.3958   -4.3419 C   0  0  0  0  0  0  0  0  0  0  0  0
    0.8987    7.7455   -4.4939 C   0  0  0  0  0  0  0  0  0  0  0  0
    0.9874    1.2591    1.3110 C   0  0  1  0  0  0  0  0  0  0  0  0
    0.1630    0.1069    1.5044 O   0  0  0  0  0  0  0  0  0  0  0  0
   -1.2241    0.4093    1.6165 C   0  0  2  0  0  0  0  0  0  0  0  0
   -1.6342    0.2366    2.9576 O   0  0  0  0  0  0  0  0  0  0  0  0
   -2.9738    0.7015    3.1745 C   0  0  1  0  0  0  0  0  0  0  0  0
   -2.9585    2.0729    3.8472 C   0  0  0  0  0  0  0  0  0  0  0  0
   -3.8837    0.6905    1.8968 C   0  0  2  0  0  0  0  0  0  0  0  0
   -5.2179    0.7379    2.2718 O   0  0  0  0  0  0  0  0  0  0  0  0
   -6.0996    1.7014    1.8850 C   0  0  0  0  0  0  0  0  0  0  0  0
   -7.4757    1.7222    2.4614 C   0  0  0  0  0  0  0  0  0  0  0  0
   -5.7823    2.5638    1.0781 O   0  0  0  0  0  0  0  0  0  0  0  0
   -3.5443   -0.6011    1.1437 C   0  0  1  0  0  0  0  0  0  0  0  0
   -4.4481   -0.8077    0.0643 O   0  0  0  0  0  0  0  0  0  0  0  0
   -4.6772   -2.1858   -0.2157 C   0  0  2  0  0  0  0  0  0  0  0  0
   -3.9528   -2.5740   -1.3927 O   0  0  0  0  0  0  0  0  0  0  0  0
   -4.7691   -2.6017   -2.5494 C   0  0  1  0  0  0  0  0  0  0  0  0
   -3.9128   -2.8332   -3.7927 C   0  0  0  0  0  0  0  0  0  0  0  0
   -5.8678   -3.7017   -2.4416 C   0  0  2  0  0  0  0  0  0  0  0  0
   -6.8857   -3.4372   -3.3772 O   0  0  0  0  0  0  0  0  0  0  0  0
   -6.4365   -3.7978   -0.9954 C   0  0  1  0  0  0  0  0  0  0  0  0
   -5.8347   -4.8415   -0.2579 O   0  0  0  0  0  0  0  0  0  0  0  0
   -6.2186   -2.4587   -0.2820 C   0  0  1  0  0  0  0  0  0  0  0  0
   -6.7698   -2.5229    0.9879 O   0  0  0  0  0  0  0  0  0  0  0  0
   -7.8410   -1.8108    1.4248 C   0  0  0  0  0  0  0  0  0  0  0  0
   -8.4325   -2.1258    2.7621 C   0  0  0  0  0  0  0  0  0  0  0  0
   -8.3580   -0.9507    0.7265 O   0  0  0  0  0  0  0  0  0  0  0  0
   -2.0623   -0.4917    0.6539 C   0  0  1  0  0  0  0  0  0  0  0  0
   -2.0174    0.1174   -0.5918 O   0  0  0  0  0  0  0  0  0  0  0  0
   -1.5134   -0.4074   -1.7351 C   0  0  0  0  0  0  0  0  0  0  0  0
   -1.4730    0.4413   -2.9675 C   0  0  0  0  0  0  0  0  0  0  0  0
   -1.0754   -1.5494   -1.7714 O   0  0  0  0  0  0  0  0  0  0  0  0
    2.1363    1.2663    2.3338 C   0  0  1  0  0  0  0  0  0  0  0  0
    1.6978    1.4670    3.6537 O   0  0  0  0  0  0  0  0  0  0  0  0
    9.7366   -5.9654    0.7757 H   0  0  0  0  0  0  0  0  0  0  0  0
    9.4238   -5.5318   -0.9494 H   0  0  0  0  0  0  0  0  0  0  0  0
    8.0458   -5.9549    0.1475 H   0  0  0  0  0  0  0  0  0  0  0  0
    9.9035   -3.5045    0.4566 H   0  0  0  0  0  0  0  0  0  0  0  0
    8.5288   -3.9593    1.5395 H   0  0  0  0  0  0  0  0  0  0  0  0
    6.9467   -3.7395   -0.4329 H   0  0  0  0  0  0  0  0  0  0  0  0
    8.3265   -3.2943   -1.4765 H   0  0  0  0  0  0  0  0  0  0  0  0
    7.0871   -1.2854   -0.8062 H   0  0  0  0  0  0  0  0  0  0  0  0
    8.7637   -1.2482   -0.1670 H   0  0  0  0  0  0  0  0  0  0  0  0
    7.1625   -0.3769    1.4728 H   0  0  0  0  0  0  0  0  0  0  0  0
    7.9471   -1.8540    2.1155 H   0  0  0  0  0  0  0  0  0  0  0  0
    5.9197   -3.2074    1.4571 H   0  0  0  0  0  0  0  0  0  0  0  0
    5.1485   -1.7200    0.8108 H   0  0  0  0  0  0  0  0  0  0  0  0
    5.9237   -2.3235    3.7518 H   0  0  0  0  0  0  0  0  0  0  0  0
    4.2883   -2.3973    3.0236 H   0  0  0  0  0  0  0  0  0  0  0  0
    6.0294    0.0951    3.4598 H   0  0  0  0  0  0  0  0  0  0  0  0
    4.5280   -0.2798    4.3193 H   0  0  0  0  0  0  0  0  0  0  0  0
    2.6293   -0.7438    2.9736 H   0  0  0  0  0  0  0  0  0  0  0  0
    3.7841    0.8000   -0.0307 H   0  0  0  0  0  0  0  0  0  0  0  0
    2.0179   -1.1543   -1.5977 H   0  0  0  0  0  0  0  0  0  0  0  0
    3.8156   -1.1940   -1.4437 H   0  0  0  0  0  0  0  0  0  0  0  0
    3.0174    0.1866   -2.2914 H   0  0  0  0  0  0  0  0  0  0  0  0
    0.8126    0.8759   -0.7952 H   0  0  0  0  0  0  0  0  0  0  0  0
    3.5262    4.3930   -1.6796 H   0  0  0  0  0  0  0  0  0  0  0  0
    2.1541    5.1554   -0.7877 H   0  0  0  0  0  0  0  0  0  0  0  0
    0.9063    5.4014   -2.9441 H   0  0  0  0  0  0  0  0  0  0  0  0
    2.2997    4.6586   -3.8341 H   0  0  0  0  0  0  0  0  0  0  0  0
    3.7978    6.4924   -2.9994 H   0  0  0  0  0  0  0  0  0  0  0  0
    2.4009    7.2688   -2.1690 H   0  0  0  0  0  0  0  0  0  0  0  0
    2.7076    6.7905   -5.2145 H   0  0  0  0  0  0  0  0  0  0  0  0
    2.9586    8.3444   -4.3409 H   0  0  0  0  0  0  0  0  0  0  0  0
    0.2755    6.8311   -4.5650 H   0  0  0  0  0  0  0  0  0  0  0  0
    0.7529    8.3274   -5.4279 H   0  0  0  0  0  0  0  0  0  0  0  0
    0.5578    8.3598   -3.6337 H   0  0  0  0  0  0  0  0  0  0  0  0
    0.4388    2.2238    1.4089 H   0  0  0  0  0  0  0  0  0  0  0  0
   -1.4493    1.4661    1.3351 H   0  0  0  0  0  0  0  0  0  0  0  0
   -3.4230   -0.0262    3.8870 H   0  0  0  0  0  0  0  0  0  0  0  0
   -2.5031    2.8275    3.1721 H   0  0  0  0  0  0  0  0  0  0  0  0
   -2.3616    2.0229    4.7824 H   0  0  0  0  0  0  0  0  0  0  0  0
   -3.9916    2.3895    4.1029 H   0  0  0  0  0  0  0  0  0  0  0  0
   -3.6394    1.5430    1.2228 H   0  0  0  0  0  0  0  0  0  0  0  0
   -7.5988    0.8942    3.1855 H   0  0  0  0  0  0  0  0  0  0  0  0
   -8.2242    1.6177    1.6487 H   0  0  0  0  0  0  0  0  0  0  0  0
   -7.6432    2.6833    2.9905 H   0  0  0  0  0  0  0  0  0  0  0  0
   -3.6400   -1.3938    1.9249 H   0  0  0  0  0  0  0  0  0  0  0  0
   -4.3024   -2.8698    0.5798 H   0  0  0  0  0  0  0  0  0  0  0  0
   -5.2354   -1.5946   -2.6606 H   0  0  0  0  0  0  0  0  0  0  0  0
   -3.4017   -3.8175   -3.7305 H   0  0  0  0  0  0  0  0  0  0  0  0
   -3.1429   -2.0436   -3.8771 H   0  0  0  0  0  0  0  0  0  0  0  0
   -4.5445   -2.8098   -4.7063 H   0  0  0  0  0  0  0  0  0  0  0  0
   -5.4632   -4.7083   -2.6879 H   0  0  0  0  0  0  0  0  0  0  0  0
   -7.3483   -2.6054   -3.0949 H   0  0  0  0  0  0  0  0  0  0  0  0
   -7.5180   -4.0513   -1.0575 H   0  0  0  0  0  0  0  0  0  0  0  0
   -4.8680   -4.8826   -0.4757 H   0  0  0  0  0  0  0  0  0  0  0  0
   -6.7150   -1.6744   -0.8978 H   0  0  0  0  0  0  0  0  0  0  0  0
   -7.8606   -2.9404    3.2537 H   0  0  0  0  0  0  0  0  0  0  0  0
   -9.4850   -2.4558    2.6325 H   0  0  0  0  0  0  0  0  0  0  0  0
   -8.4143   -1.2319    3.4150 H   0  0  0  0  0  0  0  0  0  0  0  0
   -1.6632   -1.5304    0.6161 H   0  0  0  0  0  0  0  0  0  0  0  0
   -1.8946    1.4463   -2.7522 H   0  0  0  0  0  0  0  0  0  0  0  0
   -2.0688   -0.0236   -3.7775 H   0  0  0  0  0  0  0  0  0  0  0  0
   -0.4243    0.5563   -3.3080 H   0  0  0  0  0  0  0  0  0  0  0  0
    2.7666    2.1422    2.0583 H   0  0  0  0  0  0  0  0  0  0  0  0
    1.0524    0.7435    3.8670 H   0  0  0  0  0  0  0  0  0  0  0  0
  1  2  1  0  0  0  0
  1 56  1  0  0  0  0
  1 57  1  0  0  0  0
  1 58  1  0  0  0  0
  2  3  1  0  0  0  0
  2 59  1  0  0  0  0
  2 60  1  0  0  0  0
  3  4  1  0  0  0  0
  3 61  1  0  0  0  0
  3 62  1  0  0  0  0
  4  5  1  0  0  0  0
  4 63  1  0  0  0  0
  4 64  1  0  0  0  0
  5  6  1  0  0  0  0
  5 65  1  0  0  0  0
  5 66  1  0  0  0  0
  6  7  1  0  0  0  0
  6 67  1  0  0  0  0
  6 68  1  0  0  0  0
  7  8  1  0  0  0  0
  7 69  1  0  0  0  0
  7 70  1  0  0  0  0
  8  9  1  0  0  0  0
  8 71  1  0  0  0  0
  8 72  1  0  0  0  0
 10  9  1  0  0  0  0
 10 11  1  0  0  0  0
 10 73  1  1  0  0  0
 11 12  1  0  0  0  0
 12 13  1  0  0  0  0
 12 14  1  0  0  0  0
 12 74  1  1  0  0  0
 13 75  1  0  0  0  0
 13 76  1  0  0  0  0
 13 77  1  0  0  0  0
 14 15  1  0  0  0  0
 14 23  1  0  0  0  0
 14 78  1  6  0  0  0
 15 16  1  0  0  0  0
 16 17  2  0  0  0  0
 16 18  1  0  0  0  0
 18 19  1  0  0  0  0
 18 79  1  0  0  0  0
 18 80  1  0  0  0  0
 19 20  1  0  0  0  0
 19 81  1  0  0  0  0
 19 82  1  0  0  0  0
 20 21  1  0  0  0  0
 20 83  1  0  0  0  0
 20 84  1  0  0  0  0
 21 22  1  0  0  0  0
 21 85  1  0  0  0  0
 21 86  1  0  0  0  0
 22 87  1  0  0  0  0
 22 88  1  0  0  0  0
 22 89  1  0  0  0  0
 23 24  1  0  0  0  0
 23 54  1  0  0  0  0
 23 90  1  1  0  0  0
 25 24  1  0  0  0  0
 25 26  1  0  0  0  0
 25 91  1  6  0  0  0
 26 27  1  0  0  0  0
 27 28  1  0  0  0  0
 27 29  1  0  0  0  0
 27 92  1  1  0  0  0
 28 93  1  0  0  0  0
 28 94  1  0  0  0  0
 28 95  1  0  0  0  0
 29 30  1  0  0  0  0
 29 34  1  0  0  0  0
 29 96  1  6  0  0  0
 30 31  1  0  0  0  0
 31 32  1  0  0  0  0
 31 33  2  0  0  0  0
 32 97  1  0  0  0  0
 32 98  1  0  0  0  0
 32 99  1  0  0  0  0
 34 35  1  0  0  0  0
 34 49  1  0  0  0  0
 34100  1  1  0  0  0
 36 35  1  0  0  0  0
 36 37  1  0  0  0  0
 36101  1  1  0  0  0
 37 38  1  0  0  0  0
 38 39  1  0  0  0  0
 38 40  1  0  0  0  0
 38102  1  6  0  0  0
 39103  1  0  0  0  0
 39104  1  0  0  0  0
 39105  1  0  0  0  0
 40 41  1  0  0  0  0
 40 42  1  0  0  0  0
 40106  1  6  0  0  0
 41107  1  0  0  0  0
 42 43  1  0  0  0  0
 42 44  1  0  0  0  0
 42108  1  6  0  0  0
 43109  1  0  0  0  0
 44 45  1  0  0  0  0
 44 36  1  0  0  0  0
 44110  1  6  0  0  0
 45 46  1  0  0  0  0
 46 47  1  0  0  0  0
 46 48  2  0  0  0  0
 47111  1  0  0  0  0
 47112  1  0  0  0  0
 47113  1  0  0  0  0
 49 50  1  0  0  0  0
 49 25  1  0  0  0  0
 49114  1  6  0  0  0
 50 51  1  0  0  0  0
 51 52  1  0  0  0  0
 51 53  2  0  0  0  0
 52115  1  0  0  0  0
 52116  1  0  0  0  0
 52117  1  0  0  0  0
 54 55  1  0  0  0  0
 54 10  1  0  0  0  0
 54118  1  6  0  0  0
 55119  1  0  0  0  0
M  END
>  <IDENTIFIER>
CNP0330909.1

>  <Energy>
1016.8

$$$$
