
 OpenBabel09052507303D

 44 47  0  0  0  0  0  0  0  0999 V2000
    1.0715    0.5055    2.2627 C   0  0  0  0  0  0  0  0  0  0  0  0
    1.0849   -0.1723    0.9605 N   0  0  0  0  0  0  0  0  0  0  0  0
    2.1029   -0.8056    0.2947 C   0  0  0  0  0  0  0  0  0  0  0  0
    3.5478   -0.8891    0.6928 C   0  0  0  0  0  0  0  0  0  0  0  0
    4.2079   -1.8246    0.2653 O   0  0  0  0  0  0  0  0  0  0  0  0
    4.1586    0.0548    1.4685 N   0  0  0  0  0  0  0  0  0  0  0  0
    5.5579   -0.0248    1.8573 C   0  0  0  0  0  0  0  0  0  0  0  0
    6.4994    0.1333    0.6558 C   0  0  0  0  0  0  0  0  0  0  0  0
    6.3301    1.3912    0.0596 O   0  0  0  0  0  0  0  0  0  0  0  0
    1.5972   -1.3987   -0.8744 C   0  0  0  0  0  0  0  0  0  0  0  0
    2.5909   -2.4062   -2.1703 Br  0  0  0  0  0  0  0  0  0  0  0  0
    0.2518   -1.0816   -0.9208 C   0  0  0  0  0  0  0  0  0  0  0  0
   -0.7773   -1.3703   -1.8271 C   0  0  0  0  0  0  0  0  0  0  0  0
   -0.8726   -2.1181   -3.0888 C   0  0  0  0  0  0  0  0  0  0  0  0
    0.0317   -2.6995   -3.6627 O   0  0  0  0  0  0  0  0  0  0  0  0
   -2.1421   -2.0840   -3.5497 N   0  0  0  0  0  0  0  0  0  0  0  0
   -2.8891   -1.3676   -2.6841 C   0  0  0  0  0  0  0  0  0  0  0  0
   -4.0839   -1.1621   -2.8265 O   0  0  0  0  0  0  0  0  0  0  0  0
   -2.0560   -0.8979   -1.5757 C   0  0  0  0  0  0  0  0  0  0  0  0
   -2.3643   -0.1373   -0.4327 C   0  0  0  0  0  0  0  0  0  0  0  0
   -3.7303    0.3458   -0.1799 C   0  0  0  0  0  0  0  0  0  0  0  0
   -4.1471    1.5606   -0.7455 C   0  0  0  0  0  0  0  0  0  0  0  0
   -5.4409    2.0362   -0.5160 C   0  0  0  0  0  0  0  0  0  0  0  0
   -6.3272    1.3003    0.2745 C   0  0  0  0  0  0  0  0  0  0  0  0
   -5.9210    0.0880    0.8389 C   0  0  0  0  0  0  0  0  0  0  0  0
   -4.6249   -0.3935    0.6180 C   0  0  0  0  0  0  0  0  0  0  0  0
   -4.1526   -1.9273    1.3414 Cl  0  0  0  0  0  0  0  0  0  0  0  0
   -1.3232    0.1463    0.4803 C   0  0  0  0  0  0  0  0  0  0  0  0
   -0.0243   -0.3343    0.2051 C   0  0  0  0  0  0  0  0  0  0  0  0
    1.9946    0.3616    2.8420 H   0  0  0  0  0  0  0  0  0  0  0  0
    0.2822    0.0524    2.8990 H   0  0  0  0  0  0  0  0  0  0  0  0
    0.8484    1.5850    2.1284 H   0  0  0  0  0  0  0  0  0  0  0  0
    3.6473    0.8858    1.7822 H   0  0  0  0  0  0  0  0  0  0  0  0
    5.7468   -0.9882    2.3793 H   0  0  0  0  0  0  0  0  0  0  0  0
    5.7862    0.7984    2.5696 H   0  0  0  0  0  0  0  0  0  0  0  0
    6.3684   -0.6745   -0.0965 H   0  0  0  0  0  0  0  0  0  0  0  0
    7.5480    0.0589    1.0136 H   0  0  0  0  0  0  0  0  0  0  0  0
    5.5183    1.3315   -0.5082 H   0  0  0  0  0  0  0  0  0  0  0  0
   -2.4829   -2.5315   -4.4136 H   0  0  0  0  0  0  0  0  0  0  0  0
   -3.4681    2.1395   -1.3600 H   0  0  0  0  0  0  0  0  0  0  0  0
   -5.7571    2.9754   -0.9512 H   0  0  0  0  0  0  0  0  0  0  0  0
   -7.3296    1.6692    0.4496 H   0  0  0  0  0  0  0  0  0  0  0  0
   -6.6150   -0.4771    1.4480 H   0  0  0  0  0  0  0  0  0  0  0  0
   -1.5265    0.7268    1.3717 H   0  0  0  0  0  0  0  0  0  0  0  0
  1  2  1  0  0  0  0
  1 30  1  0  0  0  0
  1 31  1  0  0  0  0
  1 32  1  0  0  0  0
  2  3  1  0  0  0  0
  3  4  1  0  0  0  0
  3 10  2  0  0  0  0
  4  5  2  0  0  0  0
  4  6  1  0  0  0  0
  6  7  1  0  0  0  0
  6 33  1  0  0  0  0
  7  8  1  0  0  0  0
  7 34  1  0  0  0  0
  7 35  1  0  0  0  0
  8  9  1  0  0  0  0
  8 36  1  0  0  0  0
  8 37  1  0  0  0  0
  9 38  1  0  0  0  0
 10 11  1  0  0  0  0
 10 12  1  0  0  0  0
 12 13  2  0  0  0  0
 13 14  1  0  0  0  0
 14 15  2  0  0  0  0
 14 16  1  0  0  0  0
 16 17  1  0  0  0  0
 16 39  1  0  0  0  0
 17 18  2  0  0  0  0
 17 19  1  0  0  0  0
 19 20  2  0  0  0  0
 19 13  1  0  0  0  0
 20 21  1  0  0  0  0
 20 28  1  0  0  0  0
 21 22  2  0  0  0  0
 22 23  1  0  0  0  0
 22 40  1  0  0  0  0
 23 24  2  0  0  0  0
 23 41  1  0  0  0  0
 24 25  1  0  0  0  0
 24 42  1  0  0  0  0
 25 26  2  0  0  0  0
 25 43  1  0  0  0  0
 26 27  1  0  0  0  0
 26 21  1  0  0  0  0
 28 29  2  0  0  0  0
 28 44  1  0  0  0  0
 29  2  1  0  0  0  0
 29 12  1  0  0  0  0
M  END
>  <IDENTIFIER>
CNP0492307.0

>  <Energy>
745.854

$$$$
