
 OpenBabel09052502543D

 59 64  0  0  0  0  0  0  0  0999 V2000
    5.9693   -0.9649   -1.4107 C   0  0  0  0  0  0  0  0  0  0  0  0
    4.5388   -0.5783   -1.6166 C   0  0  0  0  0  0  0  0  0  0  0  0
    4.2071    0.0484   -2.6136 O   0  0  0  0  0  0  0  0  0  0  0  0
    3.6302   -0.9388   -0.6778 O   0  0  0  0  0  0  0  0  0  0  0  0
    2.2707   -0.6636   -0.6669 C   0  0  1  0  0  0  0  0  0  0  0  0
    1.5386   -1.9689   -0.7873 C   0  0  0  0  0  0  0  0  0  0  0  0
    1.7663   -2.6917   -1.7444 O   0  0  0  0  0  0  0  0  0  0  0  0
    0.6235   -2.3667    0.1253 O   0  0  0  0  0  0  0  0  0  0  0  0
    0.0958   -1.6180    1.1655 C   0  0  2  0  0  0  0  0  0  0  0  0
   -1.3984   -1.9489    1.2552 C   0  0  0  0  0  0  0  0  0  0  0  0
   -2.1749   -1.3790    0.0433 C   0  0  1  0  0  0  0  0  0  0  0  0
   -3.6409   -1.8525   -0.0362 C   0  0  0  0  0  0  0  0  0  0  0  0
   -4.2421   -2.9377    0.8326 C   0  0  0  0  0  0  0  0  0  0  0  0
   -4.4520   -1.2844   -0.9482 C   0  0  0  0  0  0  0  0  0  0  0  0
   -3.9925   -0.1534   -1.7736 C   0  0  0  0  0  0  0  0  0  0  0  0
   -4.6538    0.1868   -2.7425 O   0  0  0  0  0  0  0  0  0  0  0  0
   -2.7142    0.5967   -1.4300 C   0  0  1  0  0  0  0  0  0  0  0  0
   -2.9233    1.9829   -1.5390 O   0  0  0  0  0  0  0  0  0  0  0  0
   -2.0891    0.1859   -0.0248 C   0  0  1  0  0  0  0  0  0  0  0  0
   -2.9789    0.7986    1.1161 C   0  0  0  0  0  0  0  0  0  0  0  0
   -0.5333    0.6220   -0.0067 C   0  0  1  0  0  0  0  0  0  0  0  0
   -0.2194    2.0880    0.4403 C   0  0  1  0  0  0  0  0  0  0  0  0
   -1.1531    3.0047   -0.0607 O   0  0  0  0  0  0  0  0  0  0  0  0
   -0.2464    2.0715    1.8648 O   0  0  0  0  0  0  0  0  0  0  0  0
    0.0268    0.7393    2.2773 C   0  0  0  0  0  0  0  0  0  0  0  0
    0.3722   -0.0871    1.0207 C   0  0  1  0  0  0  0  0  0  0  0  0
    1.9174    0.0821    0.6615 C   0  0  1  0  0  0  0  0  0  0  0  0
    2.6847   -0.5447    1.6759 O   0  0  0  0  0  0  0  0  0  0  0  0
    2.2721    1.6078    0.5438 C   0  0  1  0  0  0  0  0  0  0  0  0
    3.5248    2.1918    1.1445 C   0  0  0  0  0  0  0  0  0  0  0  0
    3.4705    1.8022   -0.1882 O   0  0  0  0  0  0  0  0  0  0  0  0
    1.1939    2.5595   -0.0047 C   0  0  1  0  0  0  0  0  0  0  0  0
    1.2833    2.7473   -1.3987 O   0  0  0  0  0  0  0  0  0  0  0  0
    6.6048   -0.6110   -2.2494 H   0  0  0  0  0  0  0  0  0  0  0  0
    6.0470   -2.0701   -1.3395 H   0  0  0  0  0  0  0  0  0  0  0  0
    6.3395   -0.5173   -0.4637 H   0  0  0  0  0  0  0  0  0  0  0  0
    1.9703   -0.0768   -1.5562 H   0  0  0  0  0  0  0  0  0  0  0  0
    0.5791   -1.9951    2.0936 H   0  0  0  0  0  0  0  0  0  0  0  0
   -1.8335   -1.5820    2.2040 H   0  0  0  0  0  0  0  0  0  0  0  0
   -1.4597   -3.0577    1.2701 H   0  0  0  0  0  0  0  0  0  0  0  0
   -1.6795   -1.7701   -0.8750 H   0  0  0  0  0  0  0  0  0  0  0  0
   -3.5494   -3.3709    1.5729 H   0  0  0  0  0  0  0  0  0  0  0  0
   -4.6054   -3.7669    0.1887 H   0  0  0  0  0  0  0  0  0  0  0  0
   -5.1022   -2.5217    1.3984 H   0  0  0  0  0  0  0  0  0  0  0  0
   -5.4724   -1.6386   -1.0739 H   0  0  0  0  0  0  0  0  0  0  0  0
   -2.0236    0.3111   -2.2518 H   0  0  0  0  0  0  0  0  0  0  0  0
   -3.7568    2.2133   -1.0509 H   0  0  0  0  0  0  0  0  0  0  0  0
   -2.9294    1.9021    1.1442 H   0  0  0  0  0  0  0  0  0  0  0  0
   -2.7687    0.4285    2.1252 H   0  0  0  0  0  0  0  0  0  0  0  0
   -4.0491    0.5534    0.9645 H   0  0  0  0  0  0  0  0  0  0  0  0
   -0.1802    0.3694   -1.0218 H   0  0  0  0  0  0  0  0  0  0  0  0
   -1.1242    3.8093    0.5205 H   0  0  0  0  0  0  0  0  0  0  0  0
   -0.8554    0.3541    2.7966 H   0  0  0  0  0  0  0  0  0  0  0  0
    0.8098    0.7114    3.0561 H   0  0  0  0  0  0  0  0  0  0  0  0
    2.7391    0.0434    2.4701 H   0  0  0  0  0  0  0  0  0  0  0  0
    4.2680    1.5367    1.6428 H   0  0  0  0  0  0  0  0  0  0  0  0
    3.6315    3.2965    1.1715 H   0  0  0  0  0  0  0  0  0  0  0  0
    1.3610    3.5636    0.4446 H   0  0  0  0  0  0  0  0  0  0  0  0
    1.0951    1.8948   -1.8561 H   0  0  0  0  0  0  0  0  0  0  0  0
  1  2  1  0  0  0  0
  1 34  1  0  0  0  0
  1 35  1  0  0  0  0
  1 36  1  0  0  0  0
  2  3  2  0  0  0  0
  2  4  1  0  0  0  0
  5  4  1  0  0  0  0
  5  6  1  0  0  0  0
  5 37  1  6  0  0  0
  6  7  2  0  0  0  0
  6  8  1  0  0  0  0
  8  9  1  0  0  0  0
  9 10  1  0  0  0  0
  9 38  1  1  0  0  0
 10 39  1  0  0  0  0
 10 40  1  0  0  0  0
 11 10  1  0  0  0  0
 11 12  1  0  0  0  0
 11 41  1  6  0  0  0
 12 13  1  0  0  0  0
 12 14  2  0  0  0  0
 13 42  1  0  0  0  0
 13 43  1  0  0  0  0
 13 44  1  0  0  0  0
 14 15  1  0  0  0  0
 14 45  1  0  0  0  0
 15 16  2  0  0  0  0
 15 17  1  0  0  0  0
 17 18  1  0  0  0  0
 17 19  1  0  0  0  0
 17 46  1  6  0  0  0
 18 47  1  0  0  0  0
 19 20  1  1  0  0  0
 19 21  1  0  0  0  0
 19 11  1  0  0  0  0
 20 48  1  0  0  0  0
 20 49  1  0  0  0  0
 20 50  1  0  0  0  0
 21 22  1  0  0  0  0
 21 51  1  6  0  0  0
 22 23  1  6  0  0  0
 22 24  1  0  0  0  0
 23 52  1  0  0  0  0
 24 25  1  0  0  0  0
 25 53  1  0  0  0  0
 25 54  1  0  0  0  0
 26 25  1  1  0  0  0
 26 27  1  0  0  0  0
 26  9  1  0  0  0  0
 26 21  1  0  0  0  0
 27 28  1  1  0  0  0
 27 29  1  0  0  0  0
 27  5  1  0  0  0  0
 28 55  1  0  0  0  0
 29 30  1  0  0  0  0
 29 32  1  0  0  0  0
 29 31  1  6  0  0  0
 30 31  1  0  0  0  0
 30 56  1  0  0  0  0
 30 57  1  0  0  0  0
 32 33  1  0  0  0  0
 32 22  1  0  0  0  0
 32 58  1  1  0  0  0
 33 59  1  0  0  0  0
M  END
>  <IDENTIFIER>
CNP0288333.1

>  <Energy>
2230.08

$$$$
