
 OpenBabel09102514373D

 80 86  0  0  0  0  0  0  0  0999 V2000
   -4.1417    2.3424   -1.6051 C   0  0  0  0  0  0  0  0  0  0  0  0
   -4.2392    2.0037   -0.2725 O   0  0  0  0  0  0  0  0  0  0  0  0
   -5.2038    1.1707    0.1780 C   0  0  0  0  0  0  0  0  0  0  0  0
   -6.3221    1.7093    0.7918 C   0  0  0  0  0  0  0  0  0  0  0  0
   -6.5738    2.9925    1.0550 O   0  0  0  0  0  0  0  0  0  0  0  0
   -7.7700    3.0448    1.7604 C   0  0  0  0  0  0  0  0  0  0  0  0
   -8.2400    1.7348    1.8337 O   0  0  0  0  0  0  0  0  0  0  0  0
   -7.3260    0.9483    1.2610 C   0  0  0  0  0  0  0  0  0  0  0  0
   -7.3205   -0.4372    1.1506 C   0  0  0  0  0  0  0  0  0  0  0  0
   -6.1915   -1.0544    0.5713 C   0  0  0  0  0  0  0  0  0  0  0  0
   -5.1004   -0.2539    0.1114 C   0  0  0  0  0  0  0  0  0  0  0  0
   -3.8197   -0.9253   -0.3678 C   0  0  1  0  0  0  0  0  0  0  0  0
   -2.6496   -0.1655    0.0689 C   0  0  0  0  0  0  0  0  0  0  0  0
   -1.6945    0.4597    0.4291 C   0  0  0  0  0  0  0  0  0  0  0  0
   -0.5253    1.2337    0.8326 C   0  0  1  0  0  0  0  0  0  0  0  0
   -0.8690    2.1572    1.8244 O   0  0  0  0  0  0  0  0  0  0  0  0
    0.6083    0.2654    1.2909 C   0  0  0  0  0  0  0  0  0  0  0  0
    1.8064    0.7483    0.4999 C   0  0  1  0  0  0  0  0  0  0  0  0
    3.0850   -0.1036    0.4981 C   0  0  1  0  0  0  0  0  0  0  0  0
    2.9634   -1.6144    0.2637 C   0  0  0  0  0  0  0  0  0  0  0  0
    4.3060   -2.2955    0.6133 C   0  0  0  0  0  0  0  0  0  0  0  0
    5.4951   -1.3471    0.4622 C   0  0  0  0  0  0  0  0  0  0  0  0
    6.4912   -1.3671    1.3707 C   0  0  0  0  0  0  0  0  0  0  0  0
    7.6607   -0.4943    1.2023 C   0  0  0  0  0  0  0  0  0  0  0  0
    8.3944   -0.2465    2.1462 O   0  0  0  0  0  0  0  0  0  0  0  0
    7.9391    0.0536   -0.1680 C   0  0  0  0  0  0  0  0  0  0  0  0
    6.6581    0.6901   -0.6741 C   0  0  0  0  0  0  0  0  0  0  0  0
    5.4511   -0.3203   -0.6812 C   0  0  1  0  0  0  0  0  0  0  0  0
    5.4739   -1.1516   -1.9969 C   0  0  0  0  0  0  0  0  0  0  0  0
    4.1308    0.5485   -0.4896 C   0  0  1  0  0  0  0  0  0  0  0  0
    3.5427    1.0351   -1.8517 C   0  0  0  0  0  0  0  0  0  0  0  0
    2.2849    1.8997   -1.6668 C   0  0  0  0  0  0  0  0  0  0  0  0
    1.2164    1.1151   -0.8757 C   0  0  1  0  0  0  0  0  0  0  0  0
    0.6656   -0.0616   -1.7449 C   0  0  0  0  0  0  0  0  0  0  0  0
    0.0471    1.9843   -0.4050 C   0  0  0  0  0  0  0  0  0  0  0  0
   -3.7017   -2.3356    0.1219 N   0  0  0  0  0  0  0  0  0  0  0  0
   -3.4180   -2.4462    1.5725 C   0  0  0  0  0  0  0  0  0  0  0  0
   -4.9152   -3.0729   -0.2618 C   0  0  0  0  0  0  0  0  0  0  0  0
   -6.1490   -2.5645    0.5017 C   0  0  0  0  0  0  0  0  0  0  0  0
   -3.2595    2.9982   -1.7537 H   0  0  0  0  0  0  0  0  0  0  0  0
   -5.0542    2.8925   -1.9205 H   0  0  0  0  0  0  0  0  0  0  0  0
   -4.0235    1.4353   -2.2347 H   0  0  0  0  0  0  0  0  0  0  0  0
   -8.4968    3.6917    1.2300 H   0  0  0  0  0  0  0  0  0  0  0  0
   -7.5815    3.4350    2.7850 H   0  0  0  0  0  0  0  0  0  0  0  0
   -8.1475   -1.0227    1.5312 H   0  0  0  0  0  0  0  0  0  0  0  0
   -3.7981   -0.9070   -1.4770 H   0  0  0  0  0  0  0  0  0  0  0  0
   -1.1263    1.6409    2.6377 H   0  0  0  0  0  0  0  0  0  0  0  0
    0.3852   -0.7628    0.9339 H   0  0  0  0  0  0  0  0  0  0  0  0
    0.7589    0.1928    2.3905 H   0  0  0  0  0  0  0  0  0  0  0  0
    2.1233    1.7107    0.9793 H   0  0  0  0  0  0  0  0  0  0  0  0
    3.4719   -0.0352    1.5445 H   0  0  0  0  0  0  0  0  0  0  0  0
    2.7148   -1.8016   -0.7889 H   0  0  0  0  0  0  0  0  0  0  0  0
    2.1805   -2.0931    0.8904 H   0  0  0  0  0  0  0  0  0  0  0  0
    4.4148   -3.1919   -0.0364 H   0  0  0  0  0  0  0  0  0  0  0  0
    4.2812   -2.6660    1.6612 H   0  0  0  0  0  0  0  0  0  0  0  0
    6.4397   -2.0256    2.2331 H   0  0  0  0  0  0  0  0  0  0  0  0
    8.2231   -0.7805   -0.8408 H   0  0  0  0  0  0  0  0  0  0  0  0
    8.7694    0.7922   -0.1359 H   0  0  0  0  0  0  0  0  0  0  0  0
    6.7882    1.1555   -1.6765 H   0  0  0  0  0  0  0  0  0  0  0  0
    6.4805    1.5232    0.0399 H   0  0  0  0  0  0  0  0  0  0  0  0
    5.4741   -0.4942   -2.8917 H   0  0  0  0  0  0  0  0  0  0  0  0
    4.5923   -1.8199   -2.0819 H   0  0  0  0  0  0  0  0  0  0  0  0
    6.3831   -1.7837   -2.0555 H   0  0  0  0  0  0  0  0  0  0  0  0
    4.3699    1.4835    0.0641 H   0  0  0  0  0  0  0  0  0  0  0  0
    3.2876    0.1761   -2.4962 H   0  0  0  0  0  0  0  0  0  0  0  0
    4.3075    1.6324   -2.3927 H   0  0  0  0  0  0  0  0  0  0  0  0
    1.8864    2.2257   -2.6516 H   0  0  0  0  0  0  0  0  0  0  0  0
    2.5822    2.8140   -1.1056 H   0  0  0  0  0  0  0  0  0  0  0  0
    0.2049    0.3532   -2.6658 H   0  0  0  0  0  0  0  0  0  0  0  0
   -0.1054   -0.6689   -1.2412 H   0  0  0  0  0  0  0  0  0  0  0  0
    1.4309   -0.7706   -2.0851 H   0  0  0  0  0  0  0  0  0  0  0  0
   -0.6901    2.2940   -1.1768 H   0  0  0  0  0  0  0  0  0  0  0  0
    0.4894    2.9314   -0.0150 H   0  0  0  0  0  0  0  0  0  0  0  0
   -2.4228   -2.0197    1.8184 H   0  0  0  0  0  0  0  0  0  0  0  0
   -3.3912   -3.5108    1.8852 H   0  0  0  0  0  0  0  0  0  0  0  0
   -4.1656   -1.9018    2.1907 H   0  0  0  0  0  0  0  0  0  0  0  0
   -4.7821   -4.1647   -0.0993 H   0  0  0  0  0  0  0  0  0  0  0  0
   -5.0807   -2.9324   -1.3538 H   0  0  0  0  0  0  0  0  0  0  0  0
   -6.1369   -2.9457    1.5445 H   0  0  0  0  0  0  0  0  0  0  0  0
   -7.0528   -2.9726    0.0005 H   0  0  0  0  0  0  0  0  0  0  0  0
  1  2  1  0  0  0  0
  1 40  1  0  0  0  0
  1 41  1  0  0  0  0
  1 42  1  0  0  0  0
  2  3  1  0  0  0  0
  3  4  2  0  0  0  0
  4  5  1  0  0  0  0
  5  6  1  0  0  0  0
  6  7  1  0  0  0  0
  6 43  1  0  0  0  0
  6 44  1  0  0  0  0
  7  8  1  0  0  0  0
  8  9  2  0  0  0  0
  8  4  1  0  0  0  0
  9 10  1  0  0  0  0
  9 45  1  0  0  0  0
 10 11  2  0  0  0  0
 11 12  1  0  0  0  0
 11  3  1  0  0  0  0
 12 13  1  0  0  0  0
 12 36  1  0  0  0  0
 12 46  1  6  0  0  0
 13 14  3  0  0  0  0
 15 14  1  6  0  0  0
 15 16  1  0  0  0  0
 15 17  1  0  0  0  0
 16 47  1  0  0  0  0
 17 48  1  0  0  0  0
 17 49  1  0  0  0  0
 18 17  1  0  0  0  0
 18 19  1  0  0  0  0
 18 50  1  1  0  0  0
 19 20  1  0  0  0  0
 19 51  1  1  0  0  0
 20 21  1  0  0  0  0
 20 52  1  0  0  0  0
 20 53  1  0  0  0  0
 21 22  1  0  0  0  0
 21 54  1  0  0  0  0
 21 55  1  0  0  0  0
 22 23  2  0  0  0  0
 23 24  1  0  0  0  0
 23 56  1  0  0  0  0
 24 25  2  0  0  0  0
 24 26  1  0  0  0  0
 26 27  1  0  0  0  0
 26 57  1  0  0  0  0
 26 58  1  0  0  0  0
 27 28  1  0  0  0  0
 27 59  1  0  0  0  0
 27 60  1  0  0  0  0
 28 29  1  6  0  0  0
 28 30  1  0  0  0  0
 28 22  1  0  0  0  0
 29 61  1  0  0  0  0
 29 62  1  0  0  0  0
 29 63  1  0  0  0  0
 30 31  1  0  0  0  0
 30 19  1  0  0  0  0
 30 64  1  1  0  0  0
 31 32  1  0  0  0  0
 31 65  1  0  0  0  0
 31 66  1  0  0  0  0
 32 33  1  0  0  0  0
 32 67  1  0  0  0  0
 32 68  1  0  0  0  0
 33 34  1  6  0  0  0
 33 35  1  0  0  0  0
 33 18  1  0  0  0  0
 34 69  1  0  0  0  0
 34 70  1  0  0  0  0
 34 71  1  0  0  0  0
 35 15  1  0  0  0  0
 35 72  1  0  0  0  0
 35 73  1  0  0  0  0
 36 37  1  0  0  0  0
 36 38  1  0  0  0  0
 37 74  1  0  0  0  0
 37 75  1  0  0  0  0
 37 76  1  0  0  0  0
 38 39  1  0  0  0  0
 38 77  1  0  0  0  0
 38 78  1  0  0  0  0
 39 10  1  0  0  0  0
 39 79  1  0  0  0  0
 39 80  1  0  0  0  0
M  END
>  <IDENTIFIER>
CNP0055844.6

>  <Energy>
1111.48

$$$$
