
 OpenBabel09092511072D

148147  0  0  0  0  0  0  0  0999 V2000
   -3.7500   -6.4952    0.0000 C   0  0  0  0  0  0  0  0  0  0  0  0
   -3.0000   -5.1962    0.0000 C   0  0  0  0  0  0  0  0  0  0  0  0
   -3.4814   -3.7621   -0.2510 C   0  0  0  0  0  0  0  0  0  0  0  0
   -2.2031   -2.8358   -0.2033 C   0  0  0  0  0  0  0  0  0  0  0  0
   -2.5034   -1.3686   -0.5010 C   0  0  0  0  0  0  0  0  0  0  0  0
   -1.3654   -0.3365   -0.5569 C   0  0  0  0  0  0  0  0  0  0  0  0
   -0.0124   -0.3454   -0.3623 C   0  0  0  0  0  0  0  0  0  0  0  0
    0.9624   -1.4380    0.0310 C   0  0  0  0  0  0  0  0  0  0  0  0
    2.0026   -1.6323   -1.0637 C   0  0  0  0  0  0  0  0  0  0  0  0
    3.3522   -1.4257   -1.0304 C   0  0  0  0  0  0  0  0  0  0  0  0
    4.2363   -0.8957    0.0941 C   0  0  0  0  0  0  0  0  0  0  0  0
    5.0499    0.3021   -0.4056 C   0  0  0  0  0  0  0  0  0  0  0  0
    6.4085    0.3859   -0.5250 C   0  0  0  0  0  0  0  0  0  0  0  0
    7.3773   -0.7144   -0.1500 C   0  0  0  0  0  0  0  0  0  0  0  0
    8.8077   -0.5736   -0.6810 C   0  0  0  0  0  0  0  0  0  0  0  0
    9.8129    0.2782   -0.3417 C   0  0  0  0  0  0  0  0  0  0  0  0
    9.7941    1.3890    0.6813 C   0  0  0  0  0  0  0  0  0  0  0  0
   10.5728    2.6557    0.2169 C   0  0  0  0  0  2  0  0  0  0  0  0
   12.1257    2.5229    0.2278 C   0  0  0  0  0  0  0  0  0  0  0  0
   12.8415    3.8851   -0.0080 C   0  0  0  0  0  0  0  0  0  0  0  0
   14.4007    3.7903    0.0636 C   0  0  0  0  0  0  0  0  0  0  0  0
   15.1318    5.1294   -0.0897 C   0  0  0  0  0  0  0  0  0  0  0  0
   14.4874    6.1545   -0.2621 O   0  0  0  0  0  0  0  0  0  0  0  0
   16.5000    5.1962    0.0000 O   0  0  0  0  0  0  0  0  0  0  0  0
   17.2500    6.4952    0.0000 C   0  0  0  0  0  0  0  0  0  0  0  0
   18.0000    7.7942    0.0000 C   0  0  2  0  0  0  0  0  0  0  0  0
   17.1391    8.9514    0.8971 C   0  0  0  0  0  0  0  0  0  0  0  0
   15.7393    9.3913    0.6627 O   0  0  0  0  0  0  0  0  0  0  0  0
   15.2127   10.7433    0.5843 C   0  0  0  0  0  0  0  0  0  0  0  0
   16.0098   11.6248    0.3107 O   0  0  0  0  0  0  0  0  0  0  0  0
   13.6960   11.2935    0.9959 C   0  0  0  0  0  0  0  0  0  0  0  0
   12.8038   12.2942    0.0000 C   0  0  0  0  0  0  0  0  0  0  0  0
   11.5048   13.0442    0.0000 C   0  0  0  0  0  0  0  0  0  0  0  0
   10.2058   13.7942    0.0000 C   0  0  0  0  0  0  0  0  0  0  0  0
    8.5321   13.9170   -0.1295 C   0  0  0  0  0  0  0  0  0  0  0  0
    7.7822   15.4262    0.0635 C   0  0  0  0  0  2  0  0  0  0  0  0
    6.4713   16.4288    0.5127 C   0  0  0  0  0  0  0  0  0  0  0  0
    4.9257   16.7665   -0.0556 C   0  0  0  0  0  0  0  0  0  0  0  0
    3.9931   18.0708    0.5180 C   0  0  0  0  0  0  0  0  0  0  0  0
    2.4115   18.2942    0.0000 C   0  0  0  0  0  0  0  0  0  0  0  0
    1.1125   19.0442    0.0000 C   0  0  0  0  0  0  0  0  0  0  0  0
   19.1364    8.4956   -0.6440 O   0  0  0  0  0  0  0  0  0  0  0  0
   20.2500    9.0933    0.0000 C   0  0  0  0  0  0  0  0  0  0  0  0
   20.6840    8.3878    0.9016 O   0  0  0  0  0  0  0  0  0  0  0  0
   21.0000   10.3923    0.0000 C   0  0  0  0  0  0  0  0  0  0  0  0
   21.7500   11.6913    0.0000 C   0  0  0  0  0  0  0  0  0  0  0  0
   22.0685   13.3404    0.0290 C   0  0  0  0  0  0  0  0  0  0  0  0
   23.6579   13.9432   -0.0303 C   0  0  0  0  0  0  0  0  0  0  0  0
   24.0000   15.5885    0.0000 C   0  0  0  0  0  0  0  0  0  0  0  0
   24.7500   16.8875    0.0000 C   0  0  0  0  0  2  0  0  0  0  0  0
   25.5000   18.1865    0.0000 C   0  0  0  0  0  0  0  0  0  0  0  0
   26.2500   19.4856    0.0000 C   0  0  0  0  0  0  0  0  0  0  0  0
   27.0000   20.7846    0.0000 C   0  0  0  0  0  2  0  0  0  0  0  0
   27.7500   22.0836    0.0000 C   0  0  0  0  0  0  0  0  0  0  0  0
   28.3361   23.5945    0.4483 C   0  0  0  0  0  0  0  0  0  0  0  0
   29.4661   24.4633   -0.4846 C   0  0  0  0  0  0  0  0  0  0  0  0
   30.0000   25.9808    0.0000 C   0  0  0  0  0  0  0  0  0  0  0  0
   30.7500   27.2798    0.0000 C   0  0  0  0  0  0  0  0  0  0  0  0
   31.5000   28.5788    0.0000 C   0  0  0  0  0  0  0  0  0  0  0  0
   32.2500   29.8779    0.0000 C   0  0  0  0  0  0  0  0  0  0  0  0
   -4.3937   -6.2474    0.8723 H   0  0  0  0  0  0  0  0  0  0  0  0
   -2.8962   -7.1505    0.2924 H   0  0  0  0  0  0  0  0  0  0  0  0
   -4.2850   -7.4218    0.0000 H   0  0  0  0  0  0  0  0  0  0  0  0
   -2.2293   -5.3623   -0.7887 H   0  0  0  0  0  0  0  0  0  0  0  0
   -2.4548   -5.1531    0.9760 H   0  0  0  0  0  0  0  0  0  0  0  0
   -3.9603   -3.7018   -1.2518 H   0  0  0  0  0  0  0  0  0  0  0  0
   -4.2136   -3.4583    0.5274 H   0  0  0  0  0  0  0  0  0  0  0  0
   -1.7380   -2.9036    0.8041 H   0  0  0  0  0  0  0  0  0  0  0  0
   -1.4737   -3.1861   -0.9663 H   0  0  0  0  0  0  0  0  0  0  0  0
   -2.9988   -1.3367   -1.4953 H   0  0  0  0  0  0  0  0  0  0  0  0
   -3.2358   -1.0111    0.2543 H   0  0  0  0  0  0  0  0  0  0  0  0
   -1.7522    0.6447   -0.8218 H   0  0  0  0  0  0  0  0  0  0  0  0
    0.4753    0.6169   -0.5026 H   0  0  0  0  0  0  0  0  0  0  0  0
    1.4456   -1.1341    0.9808 H   0  0  0  0  0  0  0  0  0  0  0  0
    0.4525   -2.4025    0.2066 H   0  0  0  0  0  0  0  0  0  0  0  0
    1.6016   -2.0053   -2.0023 H   0  0  0  0  0  0  0  0  0  0  0  0
    3.8895   -1.6779   -1.9412 H   0  0  0  0  0  0  0  0  0  0  0  0
    3.6379   -0.5961    0.9768 H   0  0  0  0  0  0  0  0  0  0  0  0
    4.9150   -1.7148    0.4065 H   0  0  0  0  0  0  0  0  0  0  0  0
    4.4738    1.1640   -0.7293 H   0  0  0  0  0  0  0  0  0  0  0  0
    6.8223    1.2948   -0.9526 H   0  0  0  0  0  0  0  0  0  0  0  0
    6.9901   -1.6379   -0.6325 H   0  0  0  0  0  0  0  0  0  0  0  0
    7.3759   -0.8795    0.9482 H   0  0  0  0  0  0  0  0  0  0  0  0
    9.0813   -1.3271   -1.4164 H   0  0  0  0  0  0  0  0  0  0  0  0
   10.7700    0.0962   -0.8229 H   0  0  0  0  0  0  0  0  0  0  0  0
   10.2855    1.0216    1.6068 H   0  0  0  0  0  0  0  0  0  0  0  0
    8.7467    1.6469    0.9413 H   0  0  0  0  0  0  0  0  0  0  0  0
   12.4379    2.1377    1.2224 H   0  0  0  0  0  0  0  0  0  0  0  0
   12.4438    1.7958   -0.5485 H   0  0  0  0  0  0  0  0  0  0  0  0
   12.5451    4.2843   -1.0022 H   0  0  0  0  0  0  0  0  0  0  0  0
   12.4972    4.5950    0.7755 H   0  0  0  0  0  0  0  0  0  0  0  0
   14.6801    3.3687    1.0527 H   0  0  0  0  0  0  0  0  0  0  0  0
   14.7587    3.0978   -0.7278 H   0  0  0  0  0  0  0  0  0  0  0  0
   18.0122    6.0887   -0.7120 H   0  0  0  0  0  0  0  0  0  0  0  0
   17.6535    6.3291    1.0219 H   0  0  0  0  0  0  0  0  0  0  0  0
   17.3991    8.0366   -0.9126 H   0  0  0  0  0  0  0  0  0  0  0  0
   17.1751    8.5755    1.9413 H   0  0  0  0  0  0  0  0  0  0  0  0
   17.7666    9.8664    0.9308 H   0  0  0  0  0  0  0  0  0  0  0  0
   13.0717   10.4167    1.2676 H   0  0  0  0  0  0  0  0  0  0  0  0
   13.8451   11.8853    1.9235 H   0  0  0  0  0  0  0  0  0  0  0  0
   13.5371   13.0597   -0.3376 H   0  0  0  0  0  0  0  0  0  0  0  0
   12.7488   11.5545   -0.8452 H   0  0  0  0  0  0  0  0  0  0  0  0
   10.9980   12.1676    0.4655 H   0  0  0  0  0  0  0  0  0  0  0  0
   11.4210   12.9899   -1.1189 H   0  0  0  0  0  0  0  0  0  0  0  0
   10.2813   14.1966    1.0359 H   0  0  0  0  0  0  0  0  0  0  0  0
   10.4599   14.6911   -0.6227 H   0  0  0  0  0  0  0  0  0  0  0  0
    8.2262   13.5274   -1.1223 H   0  0  0  0  0  0  0  0  0  0  0  0
    8.1029   13.2354    0.6344 H   0  0  0  0  0  0  0  0  0  0  0  0
    6.3379   16.2415    1.5981 H   0  0  0  0  0  0  0  0  0  0  0  0
    6.9501   17.4278    0.4454 H   0  0  0  0  0  0  0  0  0  0  0  0
    5.0148   16.9199   -1.1513 H   0  0  0  0  0  0  0  0  0  0  0  0
    4.3317   15.8418    0.0991 H   0  0  0  0  0  0  0  0  0  0  0  0
    3.9558   17.9863    1.6243 H   0  0  0  0  0  0  0  0  0  0  0  0
    4.5567   18.9963    0.2759 H   0  0  0  0  0  0  0  0  0  0  0  0
    2.6149   18.1886   -1.0951 H   0  0  0  0  0  0  0  0  0  0  0  0
    2.0333   17.3017    0.3371 H   0  0  0  0  0  0  0  0  0  0  0  0
    1.5246   19.9749   -0.4490 H   0  0  0  0  0  0  0  0  0  0  0  0
    0.5611   18.4238   -0.7492 H   0  0  0  0  0  0  0  0  0  0  0  0
    0.1859   19.5792    0.0000 H   0  0  0  0  0  0  0  0  0  0  0  0
   20.4871   10.6980    0.9476 H   0  0  0  0  0  0  0  0  0  0  0  0
   20.3686   10.7411   -0.8501 H   0  0  0  0  0  0  0  0  0  0  0  0
   22.4447   11.4475    0.8400 H   0  0  0  0  0  0  0  0  0  0  0  0
   22.3520   11.4938   -0.9188 H   0  0  0  0  0  0  0  0  0  0  0  0
   21.6089   13.7398    0.9574 H   0  0  0  0  0  0  0  0  0  0  0  0
   21.5225   13.7888   -0.8274 H   0  0  0  0  0  0  0  0  0  0  0  0
   24.1153   13.5406   -0.9585 H   0  0  0  0  0  0  0  0  0  0  0  0
   24.2012   13.4902    0.8255 H   0  0  0  0  0  0  0  0  0  0  0  0
   23.4208   15.8089    0.9209 H   0  0  0  0  0  0  0  0  0  0  0  0
   23.3349   15.8590   -0.8465 H   0  0  0  0  0  0  0  0  0  0  0  0
   26.0558   17.8173   -0.8958 H   0  0  0  0  0  0  0  0  0  0  0  0
   26.0554   17.8175    0.8961 H   0  0  0  0  0  0  0  0  0  0  0  0
   25.6941   19.8548    0.8957 H   0  0  0  0  0  0  0  0  0  0  0  0
   25.6946   19.8546   -0.8962 H   0  0  0  0  0  0  0  0  0  0  0  0
   27.4166   22.3884   -1.0140 H   0  0  0  0  0  0  0  0  0  0  0  0
   28.7473   21.6159   -0.1369 H   0  0  0  0  0  0  0  0  0  0  0  0
   28.7870   23.4732    1.4556 H   0  0  0  0  0  0  0  0  0  0  0  0
   27.4492   24.2522    0.5649 H   0  0  0  0  0  0  0  0  0  0  0  0
   30.3629   23.8182   -0.5973 H   0  0  0  0  0  0  0  0  0  0  0  0
   29.0204   24.5846   -1.4947 H   0  0  0  0  0  0  0  0  0  0  0  0
   28.9313   26.3257    0.1160 H   0  0  0  0  0  0  0  0  0  0  0  0
   30.3548   25.6170    0.9948 H   0  0  0  0  0  0  0  0  0  0  0  0
   30.1612   27.6842    0.8813 H   0  0  0  0  0  0  0  0  0  0  0  0
   30.2037   27.5677   -0.9430 H   0  0  0  0  0  0  0  0  0  0  0  0
   32.0533   28.2837    0.9378 H   0  0  0  0  0  0  0  0  0  0  0  0
   32.0984   28.1807   -0.8759 H   0  0  0  0  0  0  0  0  0  0  0  0
   33.3242   29.5408   -0.0760 H   0  0  0  0  0  0  0  0  0  0  0  0
   31.8393   30.2645   -0.9626 H   0  0  0  0  0  0  0  0  0  0  0  0
   32.7850   30.8046    0.0000 H   0  0  0  0  0  0  0  0  0  0  0  0
  1  2  1  0  0  0  0
  1 61  1  0  0  0  0
  1 62  1  0  0  0  0
  1 63  1  0  0  0  0
  2  3  1  0  0  0  0
  2 64  1  0  0  0  0
  2 65  1  0  0  0  0
  3  4  1  0  0  0  0
  3 66  1  0  0  0  0
  3 67  1  0  0  0  0
  4  5  1  0  0  0  0
  4 68  1  0  0  0  0
  4 69  1  0  0  0  0
  5  6  1  0  0  0  0
  5 70  1  0  0  0  0
  5 71  1  0  0  0  0
  6  7  2  0  0  0  0
  6 72  1  0  0  0  0
  7  8  1  0  0  0  0
  7 73  1  0  0  0  0
  8  9  1  0  0  0  0
  8 74  1  0  0  0  0
  8 75  1  0  0  0  0
  9 10  2  0  0  0  0
  9 76  1  0  0  0  0
 10 11  1  0  0  0  0
 10 77  1  0  0  0  0
 11 12  1  0  0  0  0
 11 78  1  0  0  0  0
 11 79  1  0  0  0  0
 12 13  2  0  0  0  0
 12 80  1  0  0  0  0
 13 14  1  0  0  0  0
 13 81  1  0  0  0  0
 14 15  1  0  0  0  0
 14 82  1  0  0  0  0
 14 83  1  0  0  0  0
 15 16  2  0  0  0  0
 15 84  1  0  0  0  0
 16 17  1  0  0  0  0
 16 85  1  0  0  0  0
 17 18  1  0  0  0  0
 17 86  1  0  0  0  0
 17 87  1  0  0  0  0
 18 19  1  0  0  0  0
 19 20  1  0  0  0  0
 19 88  1  0  0  0  0
 19 89  1  0  0  0  0
 20 21  1  0  0  0  0
 20 90  1  0  0  0  0
 20 91  1  0  0  0  0
 21 22  1  0  0  0  0
 21 92  1  0  0  0  0
 21 93  1  0  0  0  0
 22 23  2  0  0  0  0
 22 24  1  0  0  0  0
 24 25  1  0  0  0  0
 25 94  1  0  0  0  0
 25 95  1  0  0  0  0
 26 25  1  0  0  0  0
 26 27  1  0  0  0  0
 26 42  1  0  0  0  0
 26 96  1  1  0  0  0
 27 28  1  0  0  0  0
 27 97  1  0  0  0  0
 27 98  1  0  0  0  0
 28 29  1  0  0  0  0
 29 30  2  0  0  0  0
 29 31  1  0  0  0  0
 31 32  1  0  0  0  0
 31 99  1  0  0  0  0
 31100  1  0  0  0  0
 32 33  1  0  0  0  0
 32101  1  0  0  0  0
 32102  1  0  0  0  0
 33 34  1  0  0  0  0
 33103  1  0  0  0  0
 33104  1  0  0  0  0
 34 35  1  0  0  0  0
 34105  1  0  0  0  0
 34106  1  0  0  0  0
 35 36  1  0  0  0  0
 35107  1  0  0  0  0
 35108  1  0  0  0  0
 36 37  1  0  0  0  0
 37 38  1  0  0  0  0
 37109  1  0  0  0  0
 37110  1  0  0  0  0
 38 39  1  0  0  0  0
 38111  1  0  0  0  0
 38112  1  0  0  0  0
 39 40  1  0  0  0  0
 39113  1  0  0  0  0
 39114  1  0  0  0  0
 40 41  1  0  0  0  0
 40115  1  0  0  0  0
 40116  1  0  0  0  0
 41117  1  0  0  0  0
 41118  1  0  0  0  0
 41119  1  0  0  0  0
 42 43  1  0  0  0  0
 43 44  2  0  0  0  0
 43 45  1  0  0  0  0
 45 46  1  0  0  0  0
 45120  1  0  0  0  0
 45121  1  0  0  0  0
 46 47  1  0  0  0  0
 46122  1  0  0  0  0
 46123  1  0  0  0  0
 47 48  1  0  0  0  0
 47124  1  0  0  0  0
 47125  1  0  0  0  0
 48 49  1  0  0  0  0
 48126  1  0  0  0  0
 48127  1  0  0  0  0
 49 50  1  0  0  0  0
 49128  1  0  0  0  0
 49129  1  0  0  0  0
 50 51  1  0  0  0  0
 51 52  1  0  0  0  0
 51130  1  0  0  0  0
 51131  1  0  0  0  0
 52 53  1  0  0  0  0
 52132  1  0  0  0  0
 52133  1  0  0  0  0
 53 54  1  0  0  0  0
 54 55  1  0  0  0  0
 54134  1  0  0  0  0
 54135  1  0  0  0  0
 55 56  1  0  0  0  0
 55136  1  0  0  0  0
 55137  1  0  0  0  0
 56 57  1  0  0  0  0
 56138  1  0  0  0  0
 56139  1  0  0  0  0
 57 58  1  0  0  0  0
 57140  1  0  0  0  0
 57141  1  0  0  0  0
 58 59  1  0  0  0  0
 58142  1  0  0  0  0
 58143  1  0  0  0  0
 59 60  1  0  0  0  0
 59144  1  0  0  0  0
 59145  1  0  0  0  0
 60146  1  0  0  0  0
 60147  1  0  0  0  0
 60148  1  0  0  0  0
M  END
>  <IDENTIFIER>
CNP0587924.1

>  <Energy>
8012.86

$$$$
