
 OpenBabel09052500362D

160159  0  0  0  0  0  0  0  0999 V2000
    9.0933    5.2500    0.0000 C   0  0  0  0  0  0  0  0  0  0  0  0
    7.7942    4.5000    0.0000 C   0  0  0  0  0  0  0  0  0  0  0  0
    6.4952    3.7500    0.0000 C   0  0  0  0  0  0  0  0  0  0  0  0
    5.1962    3.0000    0.0000 C   0  0  0  0  0  0  0  0  0  0  0  0
    3.5295    2.9800    0.1687 C   0  0  0  0  0  0  0  0  0  0  0  0
    2.7019    1.5122    0.0135 C   0  0  0  0  0  0  0  0  0  0  0  0
    1.0483    1.2673    0.2334 C   0  0  0  0  0  0  0  0  0  0  0  0
    0.3285   -0.2039    0.0186 C   0  0  0  0  0  0  0  0  0  0  0  0
    1.0761   -1.0957   -0.3543 O   0  0  0  0  0  0  0  0  0  0  0  0
   -1.0677   -0.5559    0.2242 O   0  0  0  0  0  0  0  0  0  0  0  0
   -1.7055   -1.8571   -0.0620 C   0  0  0  0  0  0  0  0  0  0  0  0
   -3.3024   -2.2823    0.3104 C   0  0  2  0  0  0  0  0  0  0  0  0
   -3.6769   -3.8876   -0.0648 C   0  0  0  0  0  0  0  0  0  0  0  0
   -4.9652   -4.5766    0.1747 O   0  0  0  0  0  0  0  0  0  0  0  0
   -5.1962   -6.0000    0.0000 C   0  0  0  0  0  0  0  0  0  0  0  0
   -4.1873   -6.6691   -0.2252 O   0  0  0  0  0  0  0  0  0  0  0  0
   -6.4952   -6.7500    0.0000 C   0  0  0  0  0  0  0  0  0  0  0  0
   -7.7942   -7.5000    0.0000 C   0  0  0  0  0  0  0  0  0  0  0  0
   -9.0933   -8.2500    0.0000 C   0  0  0  0  0  0  0  0  0  0  0  0
  -10.3923   -9.0000    0.0000 C   0  0  0  0  0  0  0  0  0  0  0  0
  -11.6913   -9.7500    0.0000 C   0  0  0  0  0  0  0  0  0  0  0  0
  -13.3399  -10.0663    0.0634 C   0  0  0  0  0  0  0  0  0  0  0  0
  -13.9453  -11.6515   -0.0618 C   0  0  0  0  0  0  0  0  0  0  0  0
  -15.5885  -12.0000    0.0000 C   0  0  0  0  0  0  0  0  0  0  0  0
  -16.8875  -12.7500    0.0000 C   0  0  0  0  0  2  0  0  0  0  0  0
  -18.1865  -13.5000    0.0000 C   0  0  0  0  0  0  0  0  0  0  0  0
  -19.4856  -14.2500    0.0000 C   0  0  0  0  0  0  0  0  0  0  0  0
  -20.7846  -15.0000    0.0000 C   0  0  0  0  0  2  0  0  0  0  0  0
  -22.0836  -15.7500    0.0000 C   0  0  0  0  0  0  0  0  0  0  0  0
  -23.6254  -16.2293   -0.3868 C   0  0  0  0  0  0  0  0  0  0  0  0
  -24.3916  -17.5450    0.3785 C   0  0  0  0  0  0  0  0  0  0  0  0
  -25.9808  -18.0000    0.0000 C   0  0  0  0  0  0  0  0  0  0  0  0
  -27.2798  -18.7500    0.0000 C   0  0  0  0  0  0  0  0  0  0  0  0
  -26.7308  -16.7010    0.0000 C   0  0  0  0  0  0  0  0  0  0  0  0
   -4.2087   -1.3967   -0.3122 O   0  0  0  0  0  0  0  0  0  0  0  0
   -5.0723   -0.5002    0.3025 C   0  0  0  0  0  0  0  0  0  0  0  0
   -5.1210   -0.4279    1.5212 O   0  0  0  0  0  0  0  0  0  0  0  0
   -5.9408    0.4513   -0.5476 C   0  0  0  0  0  0  0  0  0  0  0  0
   -6.7994    1.5582    0.1995 C   0  0  0  0  0  0  0  0  0  0  0  0
   -7.4665    2.5555   -0.8197 C   0  0  0  0  0  0  0  0  0  0  0  0
   -7.9086    4.0019   -0.3527 C   0  0  0  0  0  0  0  0  0  0  0  0
   -9.4083    4.5105   -0.0950 C   0  0  0  0  0  0  0  0  0  0  0  0
   -9.3481    6.0933    0.0000 C   0  0  0  0  0  0  0  0  0  0  0  0
  -10.0981    7.3923    0.0000 C   0  0  0  0  0  0  0  0  0  0  0  0
  -10.8481    8.6913    0.0000 C   0  0  0  0  0  0  0  0  0  0  0  0
  -11.3226   10.2480    0.4229 C   0  0  0  0  0  0  0  0  0  0  0  0
  -12.7127   10.9712   -0.2514 C   0  0  0  0  0  0  0  0  0  0  0  0
  -13.0981   12.5885    0.0000 C   0  0  0  0  0  0  0  0  0  0  0  0
  -13.8481   13.8875    0.0000 C   0  0  0  0  0  0  0  0  0  0  0  0
  -14.5981   15.1865    0.0000 C   0  0  0  0  0  0  0  0  0  0  0  0
  -15.3481   16.4856    0.0000 C   0  0  0  0  0  0  0  0  0  0  0  0
  -16.0981   17.7846    0.0000 C   0  0  0  0  0  0  0  0  0  0  0  0
  -16.8481   19.0836    0.0000 C   0  0  0  0  0  0  0  0  0  0  0  0
  -17.1890   20.7296    0.0387 C   0  0  0  0  0  0  0  0  0  0  0  0
  -18.7821   21.3350    0.1305 C   0  0  0  0  0  0  0  0  0  0  0  0
  -19.0981   22.9808    0.0000 C   0  0  0  0  0  0  0  0  0  0  0  0
  -19.8481   24.2798    0.0000 C   0  0  0  0  0  0  0  0  0  0  0  0
  -20.5981   25.5788    0.0000 C   0  0  0  0  0  0  0  0  0  0  0  0
  -21.3481   26.8779    0.0000 C   0  0  0  0  0  0  0  0  0  0  0  0
  -21.8971   24.8288    0.0000 C   0  0  0  0  0  0  0  0  0  0  0  0
    9.7290    4.3982   -0.3454 H   0  0  0  0  0  0  0  0  0  0  0  0
    8.9102    5.8534   -0.9269 H   0  0  0  0  0  0  0  0  0  0  0  0
   10.0200    5.7850    0.0000 H   0  0  0  0  0  0  0  0  0  0  0  0
    8.1445    3.9329    0.9050 H   0  0  0  0  0  0  0  0  0  0  0  0
    7.3396    5.4998    0.2967 H   0  0  0  0  0  0  0  0  0  0  0  0
    6.1342    4.1307    1.0075 H   0  0  0  0  0  0  0  0  0  0  0  0
    6.1030    4.3773   -0.8444 H   0  0  0  0  0  0  0  0  0  0  0  0
    5.4298    2.2002    0.7471 H   0  0  0  0  0  0  0  0  0  0  0  0
    5.2746    2.4523   -0.9703 H   0  0  0  0  0  0  0  0  0  0  0  0
    3.3025    3.3797    1.1789 H   0  0  0  0  0  0  0  0  0  0  0  0
    3.1029    3.6844   -0.5755 H   0  0  0  0  0  0  0  0  0  0  0  0
    3.1949    0.8137    0.7214 H   0  0  0  0  0  0  0  0  0  0  0  0
    2.9299    1.1496   -1.0106 H   0  0  0  0  0  0  0  0  0  0  0  0
    0.8266    1.5803    1.2748 H   0  0  0  0  0  0  0  0  0  0  0  0
    0.5273    1.9726   -0.4461 H   0  0  0  0  0  0  0  0  0  0  0  0
   -1.5877   -2.0385   -1.1511 H   0  0  0  0  0  0  0  0  0  0  0  0
   -1.0871   -2.6238    0.4509 H   0  0  0  0  0  0  0  0  0  0  0  0
   -3.3974   -2.1916    1.4137 H   0  0  0  0  0  0  0  0  0  0  0  0
   -3.4558   -4.0038   -1.1471 H   0  0  0  0  0  0  0  0  0  0  0  0
   -2.9034   -4.4741    0.4738 H   0  0  0  0  0  0  0  0  0  0  0  0
   -6.3071   -7.0724   -1.0561 H   0  0  0  0  0  0  0  0  0  0  0  0
   -6.0156   -7.3282    0.8562 H   0  0  0  0  0  0  0  0  0  0  0  0
   -7.9793   -7.1712    1.0708 H   0  0  0  0  0  0  0  0  0  0  0  0
   -7.2938   -8.5261    0.0302 H   0  0  0  0  0  0  0  0  0  0  0  0
   -9.5798   -7.2164   -0.0541 H   0  0  0  0  0  0  0  0  0  0  0  0
   -8.9240   -8.5860   -1.0679 H   0  0  0  0  0  0  0  0  0  0  0  0
  -10.9180   -8.3825   -0.8007 H   0  0  0  0  0  0  0  0  0  0  0  0
  -10.6266   -8.6057    1.0255 H   0  0  0  0  0  0  0  0  0  0  0  0
  -11.5257  -10.3320   -0.9434 H   0  0  0  0  0  0  0  0  0  0  0  0
  -11.4306  -10.4922    0.7949 H   0  0  0  0  0  0  0  0  0  0  0  0
  -13.7102   -9.6549    1.0259 H   0  0  0  0  0  0  0  0  0  0  0  0
  -13.8125   -9.4769   -0.7502 H   0  0  0  0  0  0  0  0  0  0  0  0
  -13.4660  -12.2391    0.7492 H   0  0  0  0  0  0  0  0  0  0  0  0
  -13.5712  -12.0579   -1.0250 H   0  0  0  0  0  0  0  0  0  0  0  0
  -15.8852  -11.2905   -0.8005 H   0  0  0  0  0  0  0  0  0  0  0  0
  -15.7803  -11.4723    0.9575 H   0  0  0  0  0  0  0  0  0  0  0  0
  -17.8174  -14.0557    0.8959 H   0  0  0  0  0  0  0  0  0  0  0  0
  -17.8175  -14.0555   -0.8961 H   0  0  0  0  0  0  0  0  0  0  0  0
  -19.8548  -13.6942   -0.8958 H   0  0  0  0  0  0  0  0  0  0  0  0
  -19.8546  -13.6945    0.8961 H   0  0  0  0  0  0  0  0  0  0  0  0
  -22.2580  -15.6517    1.0921 H   0  0  0  0  0  0  0  0  0  0  0  0
  -21.6175  -16.7476   -0.1405 H   0  0  0  0  0  0  0  0  0  0  0  0
  -24.2419  -15.3245   -0.2116 H   0  0  0  0  0  0  0  0  0  0  0  0
  -23.6356  -16.4418   -1.4766 H   0  0  0  0  0  0  0  0  0  0  0  0
  -23.7510  -18.4376    0.2185 H   0  0  0  0  0  0  0  0  0  0  0  0
  -24.3698  -17.3252    1.4668 H   0  0  0  0  0  0  0  0  0  0  0  0
  -25.7723  -18.2056   -1.0816 H   0  0  0  0  0  0  0  0  0  0  0  0
  -27.4600  -18.7066    1.1045 H   0  0  0  0  0  0  0  0  0  0  0  0
  -26.8411  -19.7585   -0.1900 H   0  0  0  0  0  0  0  0  0  0  0  0
  -28.2064  -19.2850    0.0000 H   0  0  0  0  0  0  0  0  0  0  0  0
  -26.1537  -16.1397   -0.7603 H   0  0  0  0  0  0  0  0  0  0  0  0
  -26.5406  -16.4222    1.0628 H   0  0  0  0  0  0  0  0  0  0  0  0
  -27.2658  -15.7744    0.0000 H   0  0  0  0  0  0  0  0  0  0  0  0
   -6.6125   -0.1571   -1.1891 H   0  0  0  0  0  0  0  0  0  0  0  0
   -5.2236    0.9830   -1.2094 H   0  0  0  0  0  0  0  0  0  0  0  0
   -7.5682    1.1064    0.8607 H   0  0  0  0  0  0  0  0  0  0  0  0
   -6.0901    2.1388    0.8285 H   0  0  0  0  0  0  0  0  0  0  0  0
   -8.2261    2.0798   -1.4740 H   0  0  0  0  0  0  0  0  0  0  0  0
   -6.6035    2.7755   -1.4906 H   0  0  0  0  0  0  0  0  0  0  0  0
   -7.2312    4.3366    0.4626 H   0  0  0  0  0  0  0  0  0  0  0  0
   -7.6110    4.6003   -1.2424 H   0  0  0  0  0  0  0  0  0  0  0  0
  -10.0278    4.2320   -0.9738 H   0  0  0  0  0  0  0  0  0  0  0  0
   -9.8446    4.0601    0.8206 H   0  0  0  0  0  0  0  0  0  0  0  0
   -8.6318    6.2371    0.8464 H   0  0  0  0  0  0  0  0  0  0  0  0
   -8.7371    6.3303   -0.9038 H   0  0  0  0  0  0  0  0  0  0  0  0
  -10.7243    6.9432   -0.8254 H   0  0  0  0  0  0  0  0  0  0  0  0
  -10.5193    7.1358    1.0055 H   0  0  0  0  0  0  0  0  0  0  0  0
  -10.6538    8.9773   -1.0634 H   0  0  0  0  0  0  0  0  0  0  0  0
  -11.9112    8.3236    0.0636 H   0  0  0  0  0  0  0  0  0  0  0  0
  -11.4764   10.2624    1.5225 H   0  0  0  0  0  0  0  0  0  0  0  0
  -10.4575   10.9111    0.2083 H   0  0  0  0  0  0  0  0  0  0  0  0
  -13.5729   10.3683    0.1075 H   0  0  0  0  0  0  0  0  0  0  0  0
  -12.6583   10.8354   -1.3523 H   0  0  0  0  0  0  0  0  0  0  0  0
  -12.1592   12.9729   -0.4692 H   0  0  0  0  0  0  0  0  0  0  0  0
  -12.8214   12.5722    1.0874 H   0  0  0  0  0  0  0  0  0  0  0  0
  -14.6392   13.2584    0.5270 H   0  0  0  0  0  0  0  0  0  0  0  0
  -13.9489   13.8278   -1.1155 H   0  0  0  0  0  0  0  0  0  0  0  0
  -14.4898   15.2275    1.1231 H   0  0  0  0  0  0  0  0  0  0  0  0
  -15.6137   14.7090   -0.2222 H   0  0  0  0  0  0  0  0  0  0  0  0
  -15.5115   16.4192   -1.1228 H   0  0  0  0  0  0  0  0  0  0  0  0
  -14.3200   16.9598    0.1426 H   0  0  0  0  0  0  0  0  0  0  0  0
  -15.7962   17.9623    1.0699 H   0  0  0  0  0  0  0  0  0  0  0  0
  -15.4060   18.3578   -0.6989 H   0  0  0  0  0  0  0  0  0  0  0  0
  -17.5968   18.8354    0.7953 H   0  0  0  0  0  0  0  0  0  0  0  0
  -17.4235   18.8965   -0.9405 H   0  0  0  0  0  0  0  0  0  0  0  0
  -16.7218   21.1632   -0.8708 H   0  0  0  0  0  0  0  0  0  0  0  0
  -16.6514   21.1531    0.9129 H   0  0  0  0  0  0  0  0  0  0  0  0
  -19.3836   20.8312   -0.6559 H   0  0  0  0  0  0  0  0  0  0  0  0
  -19.1804   20.9971    1.1104 H   0  0  0  0  0  0  0  0  0  0  0  0
  -18.2148   23.1972    0.6732 H   0  0  0  0  0  0  0  0  0  0  0  0
  -18.7235   23.0358   -1.0518 H   0  0  0  0  0  0  0  0  0  0  0  0
  -18.8832   24.8744   -0.1193 H   0  0  0  0  0  0  0  0  0  0  0  0
  -19.9341   24.1915    1.1211 H   0  0  0  0  0  0  0  0  0  0  0  0
  -20.3163   25.7202   -1.0947 H   0  0  0  0  0  0  0  0  0  0  0  0
  -20.4451   27.5273    0.0708 H   0  0  0  0  0  0  0  0  0  0  0  0
  -21.8186   26.9598   -1.0300 H   0  0  0  0  0  0  0  0  0  0  0  0
  -21.8831   27.8046    0.0000 H   0  0  0  0  0  0  0  0  0  0  0  0
  -22.0017   24.5105    1.0714 H   0  0  0  0  0  0  0  0  0  0  0  0
  -21.9063   24.2026   -0.9428 H   0  0  0  0  0  0  0  0  0  0  0  0
  -22.8237   24.2938    0.0000 H   0  0  0  0  0  0  0  0  0  0  0  0
  1  2  1  0  0  0  0
  1 61  1  0  0  0  0
  1 62  1  0  0  0  0
  1 63  1  0  0  0  0
  2  3  1  0  0  0  0
  2 64  1  0  0  0  0
  2 65  1  0  0  0  0
  3  4  1  0  0  0  0
  3 66  1  0  0  0  0
  3 67  1  0  0  0  0
  4  5  1  0  0  0  0
  4 68  1  0  0  0  0
  4 69  1  0  0  0  0
  5  6  1  0  0  0  0
  5 70  1  0  0  0  0
  5 71  1  0  0  0  0
  6  7  1  0  0  0  0
  6 72  1  0  0  0  0
  6 73  1  0  0  0  0
  7  8  1  0  0  0  0
  7 74  1  0  0  0  0
  7 75  1  0  0  0  0
  8  9  2  0  0  0  0
  8 10  1  0  0  0  0
 10 11  1  0  0  0  0
 11 76  1  0  0  0  0
 11 77  1  0  0  0  0
 12 11  1  0  0  0  0
 12 13  1  0  0  0  0
 12 35  1  0  0  0  0
 12 78  1  1  0  0  0
 13 14  1  0  0  0  0
 13 79  1  0  0  0  0
 13 80  1  0  0  0  0
 14 15  1  0  0  0  0
 15 16  2  0  0  0  0
 15 17  1  0  0  0  0
 17 18  1  0  0  0  0
 17 81  1  0  0  0  0
 17 82  1  0  0  0  0
 18 19  1  0  0  0  0
 18 83  1  0  0  0  0
 18 84  1  0  0  0  0
 19 20  1  0  0  0  0
 19 85  1  0  0  0  0
 19 86  1  0  0  0  0
 20 21  1  0  0  0  0
 20 87  1  0  0  0  0
 20 88  1  0  0  0  0
 21 22  1  0  0  0  0
 21 89  1  0  0  0  0
 21 90  1  0  0  0  0
 22 23  1  0  0  0  0
 22 91  1  0  0  0  0
 22 92  1  0  0  0  0
 23 24  1  0  0  0  0
 23 93  1  0  0  0  0
 23 94  1  0  0  0  0
 24 25  1  0  0  0  0
 24 95  1  0  0  0  0
 24 96  1  0  0  0  0
 25 26  1  0  0  0  0
 26 27  1  0  0  0  0
 26 97  1  0  0  0  0
 26 98  1  0  0  0  0
 27 28  1  0  0  0  0
 27 99  1  0  0  0  0
 27100  1  0  0  0  0
 28 29  1  0  0  0  0
 29 30  1  0  0  0  0
 29101  1  0  0  0  0
 29102  1  0  0  0  0
 30 31  1  0  0  0  0
 30103  1  0  0  0  0
 30104  1  0  0  0  0
 31 32  1  0  0  0  0
 31105  1  0  0  0  0
 31106  1  0  0  0  0
 32 33  1  0  0  0  0
 32 34  1  0  0  0  0
 32107  1  0  0  0  0
 33108  1  0  0  0  0
 33109  1  0  0  0  0
 33110  1  0  0  0  0
 34111  1  0  0  0  0
 34112  1  0  0  0  0
 34113  1  0  0  0  0
 35 36  1  0  0  0  0
 36 37  2  0  0  0  0
 36 38  1  0  0  0  0
 38 39  1  0  0  0  0
 38114  1  0  0  0  0
 38115  1  0  0  0  0
 39 40  1  0  0  0  0
 39116  1  0  0  0  0
 39117  1  0  0  0  0
 40 41  1  0  0  0  0
 40118  1  0  0  0  0
 40119  1  0  0  0  0
 41 42  1  0  0  0  0
 41120  1  0  0  0  0
 41121  1  0  0  0  0
 42 43  1  0  0  0  0
 42122  1  0  0  0  0
 42123  1  0  0  0  0
 43 44  1  0  0  0  0
 43124  1  0  0  0  0
 43125  1  0  0  0  0
 44 45  1  0  0  0  0
 44126  1  0  0  0  0
 44127  1  0  0  0  0
 45 46  1  0  0  0  0
 45128  1  0  0  0  0
 45129  1  0  0  0  0
 46 47  1  0  0  0  0
 46130  1  0  0  0  0
 46131  1  0  0  0  0
 47 48  1  0  0  0  0
 47132  1  0  0  0  0
 47133  1  0  0  0  0
 48 49  1  0  0  0  0
 48134  1  0  0  0  0
 48135  1  0  0  0  0
 49 50  1  0  0  0  0
 49136  1  0  0  0  0
 49137  1  0  0  0  0
 50 51  1  0  0  0  0
 50138  1  0  0  0  0
 50139  1  0  0  0  0
 51 52  1  0  0  0  0
 51140  1  0  0  0  0
 51141  1  0  0  0  0
 52 53  1  0  0  0  0
 52142  1  0  0  0  0
 52143  1  0  0  0  0
 53 54  1  0  0  0  0
 53144  1  0  0  0  0
 53145  1  0  0  0  0
 54 55  1  0  0  0  0
 54146  1  0  0  0  0
 54147  1  0  0  0  0
 55 56  1  0  0  0  0
 55148  1  0  0  0  0
 55149  1  0  0  0  0
 56 57  1  0  0  0  0
 56150  1  0  0  0  0
 56151  1  0  0  0  0
 57 58  1  0  0  0  0
 57152  1  0  0  0  0
 57153  1  0  0  0  0
 58 59  1  0  0  0  0
 58 60  1  0  0  0  0
 58154  1  0  0  0  0
 59155  1  0  0  0  0
 59156  1  0  0  0  0
 59157  1  0  0  0  0
 60158  1  0  0  0  0
 60159  1  0  0  0  0
 60160  1  0  0  0  0
M  END
>  <IDENTIFIER>
CNP0540422.2

>  <Energy>
12446.5

$$$$
