
 OpenBabel09122519563D

 80 81  0  0  0  0  0  0  0  0999 V2000
    1.7908   -2.6113   -1.8067 C   0  0  0  0  0  0  0  0  0  0  0  0
    1.3845   -3.1420   -0.4241 C   0  0  0  0  0  0  0  0  0  0  0  0
    1.1435   -2.0628    0.6706 C   0  0  1  0  0  0  0  0  0  0  0  0
    2.4067   -1.2104    0.9376 C   0  0  0  0  0  0  0  0  0  0  0  0
    3.7733   -1.8706    1.1696 C   0  0  0  0  0  0  0  0  0  0  0  0
    4.8705   -0.8320    1.5873 C   0  0  0  0  0  0  0  0  0  0  0  0
    5.2259    0.3562    0.6076 C   0  0  1  0  0  0  0  0  0  0  0  0
    5.7695   -0.1563   -0.7545 C   0  0  0  0  0  0  0  0  0  0  0  0
    7.0381   -1.0001   -0.6406 C   0  0  0  0  0  0  0  0  0  0  0  0
    4.0186    1.2683    0.3958 C   0  0  0  0  0  0  0  0  0  0  0  0
    3.5573    1.4109   -0.7308 O   0  0  0  0  0  0  0  0  0  0  0  0
    3.3579    1.7809    1.4733 N   0  0  0  0  0  0  0  0  0  0  0  0
    1.9447    2.1079    1.4041 C   0  0  0  0  0  0  0  0  0  0  0  0
    1.5168    3.3154    0.6186 C   0  0  0  0  0  0  0  0  0  0  0  0
   -0.0411    3.4013    0.5977 C   0  0  0  0  0  0  0  0  0  0  0  0
   -0.8928    2.2548   -0.0908 C   0  0  1  0  0  0  0  0  0  0  0  0
   -0.3402    1.8479   -1.4841 C   0  0  0  0  0  0  0  0  0  0  0  0
   -0.3011    3.0035   -2.4868 C   0  0  0  0  0  0  0  0  0  0  0  0
   -1.4385    1.0344    0.7892 C   0  0  1  0  0  0  0  0  0  0  0  0
   -2.4369    0.4097    0.0050 O   0  0  0  0  0  0  0  0  0  0  0  0
   -3.7165    0.3076    0.6025 C   0  0  2  0  0  0  0  0  0  0  0  0
   -4.0316   -1.0744    0.8029 O   0  0  0  0  0  0  0  0  0  0  0  0
   -4.4195   -1.6895   -0.4074 C   0  0  1  0  0  0  0  0  0  0  0  0
   -4.4563   -3.2041   -0.2196 C   0  0  0  0  0  0  0  0  0  0  0  0
   -5.8029   -1.1519   -0.8908 C   0  0  2  0  0  0  0  0  0  0  0  0
   -5.8654   -1.2295   -2.2957 O   0  0  0  0  0  0  0  0  0  0  0  0
   -6.0728    0.2976   -0.3819 C   0  0  1  0  0  0  0  0  0  0  0  0
   -6.7172    0.2839    0.9394 N   0  0  0  0  0  0  0  0  0  0  0  0
   -4.7316    1.0466   -0.3250 C   0  0  1  0  0  0  0  0  0  0  0  0
   -4.8724    2.3993    0.0314 O   0  0  0  0  0  0  0  0  0  0  0  0
   -0.5463   -0.1270    1.3435 C   0  0  0  0  0  0  0  0  0  0  0  0
   -0.0188   -1.1028    0.2474 C   0  0  0  0  0  0  0  0  0  0  0  0
    1.9406   -3.4690   -2.4959 H   0  0  0  0  0  0  0  0  0  0  0  0
    2.7425   -2.0449   -1.7588 H   0  0  0  0  0  0  0  0  0  0  0  0
    0.9992   -1.9665   -2.2389 H   0  0  0  0  0  0  0  0  0  0  0  0
    2.1758   -3.8397   -0.0741 H   0  0  0  0  0  0  0  0  0  0  0  0
    0.4549   -3.7394   -0.5459 H   0  0  0  0  0  0  0  0  0  0  0  0
    0.8609   -2.6138    1.5930 H   0  0  0  0  0  0  0  0  0  0  0  0
    2.2006   -0.5979    1.8339 H   0  0  0  0  0  0  0  0  0  0  0  0
    2.5216   -0.5977    0.0360 H   0  0  0  0  0  0  0  0  0  0  0  0
    4.0966   -2.4205    0.2618 H   0  0  0  0  0  0  0  0  0  0  0  0
    3.6714   -2.6031    1.9990 H   0  0  0  0  0  0  0  0  0  0  0  0
    5.7961   -1.4007    1.8065 H   0  0  0  0  0  0  0  0  0  0  0  0
    4.5633   -0.4034    2.5633 H   0  0  0  0  0  0  0  0  0  0  0  0
    6.0211    0.9654    1.0890 H   0  0  0  0  0  0  0  0  0  0  0  0
    6.0135    0.7248   -1.3883 H   0  0  0  0  0  0  0  0  0  0  0  0
    4.9910   -0.7520   -1.2794 H   0  0  0  0  0  0  0  0  0  0  0  0
    7.8397   -0.4232   -0.1337 H   0  0  0  0  0  0  0  0  0  0  0  0
    7.3852   -1.2753   -1.6589 H   0  0  0  0  0  0  0  0  0  0  0  0
    6.8473   -1.9416   -0.0877 H   0  0  0  0  0  0  0  0  0  0  0  0
    3.7613    1.6693    2.4154 H   0  0  0  0  0  0  0  0  0  0  0  0
    1.5361    2.1845    2.4358 H   0  0  0  0  0  0  0  0  0  0  0  0
    1.4870    1.2916    0.8508 H   0  0  0  0  0  0  0  0  0  0  0  0
    1.9057    3.2667   -0.4178 H   0  0  0  0  0  0  0  0  0  0  0  0
    1.9322    4.2293    1.0964 H   0  0  0  0  0  0  0  0  0  0  0  0
   -0.2468    4.3353    0.0302 H   0  0  0  0  0  0  0  0  0  0  0  0
   -0.4386    3.5766    1.6201 H   0  0  0  0  0  0  0  0  0  0  0  0
   -1.8574    2.7750   -0.2957 H   0  0  0  0  0  0  0  0  0  0  0  0
   -1.0012    1.0726   -1.9286 H   0  0  0  0  0  0  0  0  0  0  0  0
    0.6820    1.4336   -1.3948 H   0  0  0  0  0  0  0  0  0  0  0  0
   -1.3204    3.4197   -2.6325 H   0  0  0  0  0  0  0  0  0  0  0  0
    0.0676    2.6272   -3.4649 H   0  0  0  0  0  0  0  0  0  0  0  0
    0.3796    3.8120   -2.1550 H   0  0  0  0  0  0  0  0  0  0  0  0
   -1.8555    1.5373    1.6921 H   0  0  0  0  0  0  0  0  0  0  0  0
   -3.8034    0.7559    1.6174 H   0  0  0  0  0  0  0  0  0  0  0  0
   -3.6318   -1.4762   -1.1687 H   0  0  0  0  0  0  0  0  0  0  0  0
   -5.2153   -3.4730    0.5476 H   0  0  0  0  0  0  0  0  0  0  0  0
   -3.4654   -3.5673    0.1272 H   0  0  0  0  0  0  0  0  0  0  0  0
   -4.7119   -3.7080   -1.1748 H   0  0  0  0  0  0  0  0  0  0  0  0
   -6.6382   -1.7729   -0.5027 H   0  0  0  0  0  0  0  0  0  0  0  0
   -5.1733   -0.6236   -2.6704 H   0  0  0  0  0  0  0  0  0  0  0  0
   -6.7757    0.8066   -1.0789 H   0  0  0  0  0  0  0  0  0  0  0  0
   -6.1786   -0.2827    1.6314 H   0  0  0  0  0  0  0  0  0  0  0  0
   -7.6676   -0.1451    0.8509 H   0  0  0  0  0  0  0  0  0  0  0  0
   -4.3372    1.0231   -1.3635 H   0  0  0  0  0  0  0  0  0  0  0  0
   -5.2717    2.4304    0.9407 H   0  0  0  0  0  0  0  0  0  0  0  0
   -1.1612   -0.7508    2.0275 H   0  0  0  0  0  0  0  0  0  0  0  0
    0.2110    0.2766    2.0232 H   0  0  0  0  0  0  0  0  0  0  0  0
    0.3499   -0.5283   -0.6105 H   0  0  0  0  0  0  0  0  0  0  0  0
   -0.8897   -1.6917   -0.1155 H   0  0  0  0  0  0  0  0  0  0  0  0
  1  2  1  0  0  0  0
  1 33  1  0  0  0  0
  1 34  1  0  0  0  0
  1 35  1  0  0  0  0
  2 36  1  0  0  0  0
  2 37  1  0  0  0  0
  3  2  1  0  0  0  0
  3  4  1  0  0  0  0
  3 38  1  1  0  0  0
  4  5  1  0  0  0  0
  4 39  1  0  0  0  0
  4 40  1  0  0  0  0
  5  6  1  0  0  0  0
  5 41  1  0  0  0  0
  5 42  1  0  0  0  0
  6  7  1  0  0  0  0
  6 43  1  0  0  0  0
  6 44  1  0  0  0  0
  7  8  1  0  0  0  0
  7 10  1  0  0  0  0
  7 45  1  1  0  0  0
  8  9  1  0  0  0  0
  8 46  1  0  0  0  0
  8 47  1  0  0  0  0
  9 48  1  0  0  0  0
  9 49  1  0  0  0  0
  9 50  1  0  0  0  0
 10 11  2  0  0  0  0
 10 12  1  0  0  0  0
 12 13  1  0  0  0  0
 12 51  1  0  0  0  0
 13 14  1  0  0  0  0
 13 52  1  0  0  0  0
 13 53  1  0  0  0  0
 14 15  1  0  0  0  0
 14 54  1  0  0  0  0
 14 55  1  0  0  0  0
 15 16  1  0  0  0  0
 15 56  1  0  0  0  0
 15 57  1  0  0  0  0
 16 17  1  0  0  0  0
 16 19  1  0  0  0  0
 16 58  1  6  0  0  0
 17 18  1  0  0  0  0
 17 59  1  0  0  0  0
 17 60  1  0  0  0  0
 18 61  1  0  0  0  0
 18 62  1  0  0  0  0
 18 63  1  0  0  0  0
 19 20  1  0  0  0  0
 19 31  1  0  0  0  0
 19 64  1  1  0  0  0
 21 20  1  0  0  0  0
 21 22  1  0  0  0  0
 21 65  1  1  0  0  0
 22 23  1  0  0  0  0
 23 24  1  0  0  0  0
 23 25  1  0  0  0  0
 23 66  1  6  0  0  0
 24 67  1  0  0  0  0
 24 68  1  0  0  0  0
 24 69  1  0  0  0  0
 25 26  1  0  0  0  0
 25 27  1  0  0  0  0
 25 70  1  1  0  0  0
 26 71  1  0  0  0  0
 27 28  1  0  0  0  0
 27 29  1  0  0  0  0
 27 72  1  6  0  0  0
 28 73  1  0  0  0  0
 28 74  1  0  0  0  0
 29 30  1  0  0  0  0
 29 21  1  0  0  0  0
 29 75  1  6  0  0  0
 30 76  1  0  0  0  0
 31 32  1  0  0  0  0
 31 77  1  0  0  0  0
 31 78  1  0  0  0  0
 32  3  1  0  0  0  0
 32 79  1  0  0  0  0
 32 80  1  0  0  0  0
M  END
>  <IDENTIFIER>
CNP0191194.9

>  <Energy>
820.256

$$$$
