
 OpenBabel09052518433D

 76 77  0  0  0  0  0  0  0  0999 V2000
   -8.1216   -1.3469    2.7260 C   0  0  0  0  0  0  0  0  0  0  0  0
   -6.9620   -1.1496    1.7536 C   0  0  0  0  0  0  0  0  0  0  0  0
   -5.7161   -1.9244    2.2002 C   0  0  0  0  0  0  0  0  0  0  0  0
   -4.5485   -1.7790    1.2024 C   0  0  0  0  0  0  0  0  0  0  0  0
   -3.3729   -2.6446    1.6421 C   0  0  0  0  0  0  0  0  0  0  0  0
   -2.1677   -2.7248    0.6767 C   0  0  0  0  0  0  0  0  0  0  0  0
   -1.2750   -1.4532    0.5690 C   0  0  1  0  0  0  0  0  0  0  0  0
    0.1766   -1.9267    0.5379 C   0  0  0  0  0  0  0  0  0  0  0  0
    0.5972   -2.5799   -0.4073 O   0  0  0  0  0  0  0  0  0  0  0  0
    1.0094   -1.5509    1.5449 O   0  0  0  0  0  0  0  0  0  0  0  0
    2.3872   -1.3680    1.4527 C   0  0  2  0  0  0  0  0  0  0  0  0
    2.8764   -0.9273    2.8372 C   0  0  0  0  0  0  0  0  0  0  0  0
    2.6938   -0.3297    0.3213 C   0  0  2  0  0  0  0  0  0  0  0  0
    4.0004    0.3074    0.4378 N   0  0  0  0  0  0  0  0  0  0  0  0
    4.9264    0.3351   -0.5655 C   0  0  0  0  0  0  0  0  0  0  0  0
    4.6638   -0.1815   -1.6431 O   0  0  0  0  0  0  0  0  0  0  0  0
    6.2433    1.0474   -0.3916 C   0  0  0  0  0  0  0  0  0  0  0  0
    6.7444    1.2923    0.8996 C   0  0  0  0  0  0  0  0  0  0  0  0
    7.9475    1.9539    1.0838 C   0  0  0  0  0  0  0  0  0  0  0  0
    8.6791    2.4071   -0.0049 C   0  0  0  0  0  0  0  0  0  0  0  0
    8.2287    2.2019   -1.3294 C   0  0  0  0  0  0  0  0  0  0  0  0
    8.9804    2.6776   -2.4679 N   0  0  0  0  0  0  0  0  0  0  0  0
    9.9983    3.5877   -2.4685 C   0  0  0  0  0  0  0  0  0  0  0  0
   10.3800    4.1547   -1.4596 O   0  0  0  0  0  0  0  0  0  0  0  0
    6.9965    1.4931   -1.5149 C   0  0  0  0  0  0  0  0  0  0  0  0
    6.4836    1.2643   -2.7479 O   0  0  0  0  0  0  0  0  0  0  0  0
    1.5963    0.6976    0.2672 C   0  0  0  0  0  0  0  0  0  0  0  0
    1.4280    1.5066    1.1686 O   0  0  0  0  0  0  0  0  0  0  0  0
    0.6554    0.4869   -0.6869 O   0  0  0  0  0  0  0  0  0  0  0  0
   -0.6846    0.8071   -0.6161 C   0  0  1  0  0  0  0  0  0  0  0  0
   -0.9758    1.7470   -1.7855 C   0  0  0  0  0  0  0  0  0  0  0  0
   -1.5365   -0.5128   -0.6818 C   0  0  2  0  0  0  0  0  0  0  0  0
   -2.8807   -0.1691   -0.8512 O   0  0  0  0  0  0  0  0  0  0  0  0
   -3.5866   -0.4285   -2.0015 C   0  0  0  0  0  0  0  0  0  0  0  0
   -3.1508   -1.2182   -2.8287 O   0  0  0  0  0  0  0  0  0  0  0  0
   -4.8780    0.2990   -2.3340 C   0  0  0  0  0  0  0  0  0  0  0  0
   -5.9913   -0.0369   -1.3539 C   0  0  0  0  0  0  0  0  0  0  0  0
   -4.6631    1.8133   -2.3862 C   0  0  0  0  0  0  0  0  0  0  0  0
   -9.0091   -0.7859    2.3631 H   0  0  0  0  0  0  0  0  0  0  0  0
   -7.8498   -0.9713    3.7348 H   0  0  0  0  0  0  0  0  0  0  0  0
   -8.3892   -2.4231    2.7945 H   0  0  0  0  0  0  0  0  0  0  0  0
   -6.7310   -0.0651    1.6932 H   0  0  0  0  0  0  0  0  0  0  0  0
   -7.2853   -1.5147    0.7556 H   0  0  0  0  0  0  0  0  0  0  0  0
   -5.9883   -2.9999    2.2823 H   0  0  0  0  0  0  0  0  0  0  0  0
   -5.3953   -1.5617    3.2018 H   0  0  0  0  0  0  0  0  0  0  0  0
   -4.2360   -0.7166    1.1501 H   0  0  0  0  0  0  0  0  0  0  0  0
   -4.8766   -2.1378    0.2064 H   0  0  0  0  0  0  0  0  0  0  0  0
   -3.7562   -3.6840    1.7513 H   0  0  0  0  0  0  0  0  0  0  0  0
   -3.0215   -2.3102    2.6442 H   0  0  0  0  0  0  0  0  0  0  0  0
   -2.4223   -3.1358   -0.3233 H   0  0  0  0  0  0  0  0  0  0  0  0
   -1.5586   -3.5098    1.1837 H   0  0  0  0  0  0  0  0  0  0  0  0
   -1.4053   -0.8707    1.5077 H   0  0  0  0  0  0  0  0  0  0  0  0
    2.9014   -2.3271    1.2190 H   0  0  0  0  0  0  0  0  0  0  0  0
    2.4152    0.0371    3.1347 H   0  0  0  0  0  0  0  0  0  0  0  0
    3.9822   -0.8300    2.8517 H   0  0  0  0  0  0  0  0  0  0  0  0
    2.6033   -1.6974    3.5897 H   0  0  0  0  0  0  0  0  0  0  0  0
    2.6119   -0.8939   -0.6350 H   0  0  0  0  0  0  0  0  0  0  0  0
    4.1785    0.8299    1.3056 H   0  0  0  0  0  0  0  0  0  0  0  0
    6.2298    0.9572    1.7871 H   0  0  0  0  0  0  0  0  0  0  0  0
    8.3203    2.1163    2.0872 H   0  0  0  0  0  0  0  0  0  0  0  0
    9.6044    2.8985    0.2326 H   0  0  0  0  0  0  0  0  0  0  0  0
    8.7374    2.3333   -3.4029 H   0  0  0  0  0  0  0  0  0  0  0  0
   10.4679    3.8504   -3.4114 H   0  0  0  0  0  0  0  0  0  0  0  0
    6.8522    1.5543   -3.5884 H   0  0  0  0  0  0  0  0  0  0  0  0
   -0.9275    1.3453    0.3276 H   0  0  0  0  0  0  0  0  0  0  0  0
   -0.7842    1.2363   -2.7539 H   0  0  0  0  0  0  0  0  0  0  0  0
   -0.3226    2.6429   -1.7181 H   0  0  0  0  0  0  0  0  0  0  0  0
   -2.0209    2.0955   -1.7506 H   0  0  0  0  0  0  0  0  0  0  0  0
   -1.1879   -1.0701   -1.5800 H   0  0  0  0  0  0  0  0  0  0  0  0
   -5.2198   -0.0293   -3.3419 H   0  0  0  0  0  0  0  0  0  0  0  0
   -5.7148    0.3055   -0.3396 H   0  0  0  0  0  0  0  0  0  0  0  0
   -6.1824   -1.1297   -1.3642 H   0  0  0  0  0  0  0  0  0  0  0  0
   -6.9328    0.4721   -1.6515 H   0  0  0  0  0  0  0  0  0  0  0  0
   -4.3451    2.1987   -1.3934 H   0  0  0  0  0  0  0  0  0  0  0  0
   -5.6073    2.3243   -2.6727 H   0  0  0  0  0  0  0  0  0  0  0  0
   -3.8958    2.0649   -3.1482 H   0  0  0  0  0  0  0  0  0  0  0  0
  1  2  1  0  0  0  0
  1 39  1  0  0  0  0
  1 40  1  0  0  0  0
  1 41  1  0  0  0  0
  2  3  1  0  0  0  0
  2 42  1  0  0  0  0
  2 43  1  0  0  0  0
  3  4  1  0  0  0  0
  3 44  1  0  0  0  0
  3 45  1  0  0  0  0
  4  5  1  0  0  0  0
  4 46  1  0  0  0  0
  4 47  1  0  0  0  0
  5  6  1  0  0  0  0
  5 48  1  0  0  0  0
  5 49  1  0  0  0  0
  6 50  1  0  0  0  0
  6 51  1  0  0  0  0
  7  6  1  0  0  0  0
  7  8  1  0  0  0  0
  7 52  1  1  0  0  0
  8  9  2  0  0  0  0
  8 10  1  0  0  0  0
 10 11  1  0  0  0  0
 11 12  1  0  0  0  0
 11 13  1  0  0  0  0
 11 53  1  6  0  0  0
 12 54  1  0  0  0  0
 12 55  1  0  0  0  0
 12 56  1  0  0  0  0
 13 14  1  0  0  0  0
 13 27  1  0  0  0  0
 13 57  1  6  0  0  0
 14 15  1  0  0  0  0
 14 58  1  0  0  0  0
 15 16  2  0  0  0  0
 15 17  1  0  0  0  0
 17 18  2  0  0  0  0
 18 19  1  0  0  0  0
 18 59  1  0  0  0  0
 19 20  2  0  0  0  0
 19 60  1  0  0  0  0
 20 21  1  0  0  0  0
 20 61  1  0  0  0  0
 21 22  1  0  0  0  0
 21 25  2  0  0  0  0
 22 23  1  0  0  0  0
 22 62  1  0  0  0  0
 23 24  2  0  0  0  0
 23 63  1  0  0  0  0
 25 26  1  0  0  0  0
 25 17  1  0  0  0  0
 26 64  1  0  0  0  0
 27 28  2  0  0  0  0
 27 29  1  0  0  0  0
 29 30  1  0  0  0  0
 30 31  1  0  0  0  0
 30 32  1  0  0  0  0
 30 65  1  1  0  0  0
 31 66  1  0  0  0  0
 31 67  1  0  0  0  0
 31 68  1  0  0  0  0
 32 33  1  0  0  0  0
 32  7  1  0  0  0  0
 32 69  1  6  0  0  0
 33 34  1  0  0  0  0
 34 35  2  0  0  0  0
 34 36  1  0  0  0  0
 36 37  1  0  0  0  0
 36 38  1  0  0  0  0
 36 70  1  0  0  0  0
 37 71  1  0  0  0  0
 37 72  1  0  0  0  0
 37 73  1  0  0  0  0
 38 74  1  0  0  0  0
 38 75  1  0  0  0  0
 38 76  1  0  0  0  0
M  END
>  <IDENTIFIER>
CNP0185221.1

>  <Energy>
534.683

$$$$
