
 OpenBabel09072514123D

 62 66  0  0  0  0  0  0  0  0999 V2000
   -1.8498   -0.2200   -4.8475 C   0  0  0  0  0  0  0  0  0  0  0  0
   -2.1199   -0.5975   -3.5484 O   0  0  0  0  0  0  0  0  0  0  0  0
   -3.0654   -1.4919   -3.1531 C   0  0  0  0  0  0  0  0  0  0  0  0
   -3.9319   -2.0975   -4.0910 C   0  0  0  0  0  0  0  0  0  0  0  0
   -4.8697   -3.0469   -3.6889 C   0  0  0  0  0  0  0  0  0  0  0  0
   -4.9525   -3.4230   -2.3515 C   0  0  0  0  0  0  0  0  0  0  0  0
   -6.1366   -4.6166   -1.8493 Cl  0  0  0  0  0  0  0  0  0  0  0  0
   -4.0996   -2.8442   -1.4099 C   0  0  0  0  0  0  0  0  0  0  0  0
   -3.1570   -1.8614   -1.7839 C   0  0  0  0  0  0  0  0  0  0  0  0
   -2.3064   -1.2593   -0.7002 C   0  0  0  0  0  0  0  0  0  0  0  0
   -2.0924   -1.9431    0.2844 O   0  0  0  0  0  0  0  0  0  0  0  0
   -1.8831    0.0468   -0.7621 N   0  0  0  0  0  0  0  0  0  0  0  0
   -1.1456    0.8170    0.2298 C   0  0  0  0  0  0  0  0  0  0  0  0
   -1.1878    2.1753    0.0564 C   0  0  0  0  0  0  0  0  0  0  0  0
   -0.7371    3.2729    0.9758 C   0  0  0  0  0  0  0  0  0  0  0  0
   -0.6518    3.0925    2.3750 C   0  0  0  0  0  0  0  0  0  0  0  0
   -0.2562    4.1389    3.2099 C   0  0  0  0  0  0  0  0  0  0  0  0
    0.0536    5.3856    2.6721 C   0  0  0  0  0  0  0  0  0  0  0  0
   -0.0419    5.5935    1.2972 C   0  0  0  0  0  0  0  0  0  0  0  0
   -0.4413    4.5546    0.4477 C   0  0  0  0  0  0  0  0  0  0  0  0
   -0.5269    4.9030   -1.2781 Cl  0  0  0  0  0  0  0  0  0  0  0  0
   -0.4148    0.1752    1.3956 C   0  0  0  0  0  0  0  0  0  0  0  0
   -1.0019   -0.6873    2.0267 O   0  0  0  0  0  0  0  0  0  0  0  0
    0.8654    0.5320    1.8014 N   0  0  0  0  0  0  0  0  0  0  0  0
    1.7208    1.4973    1.0991 C   0  0  0  0  0  0  0  0  0  0  0  0
    3.1283    0.9292    0.7877 C   0  0  1  0  0  0  0  0  0  0  0  0
    3.7537    0.3706    2.0608 C   0  0  0  0  0  0  0  0  0  0  0  0
    2.8136   -0.7208    2.5962 C   0  0  1  0  0  0  0  0  0  0  0  0
    1.4702   -0.0821    2.9869 C   0  0  0  0  0  0  0  0  0  0  0  0
    2.5761   -1.7839    1.5397 C   0  0  0  0  0  0  0  0  0  0  0  0
    2.1927   -3.0687    1.9521 C   0  0  0  0  0  0  0  0  0  0  0  0
    2.0036   -4.0734    1.0083 C   0  0  0  0  0  0  0  0  0  0  0  0
    2.1953   -3.8022   -0.3401 C   0  0  0  0  0  0  0  0  0  0  0  0
    2.5648   -2.5181   -0.7412 C   0  0  0  0  0  0  0  0  0  0  0  0
    2.7278   -2.2957   -1.9305 O   0  0  0  0  0  0  0  0  0  0  0  0
    2.7385   -1.5110    0.1963 N   0  0  0  0  0  0  0  0  0  0  0  0
    3.1321   -0.1696   -0.2912 C   0  0  0  0  0  0  0  0  0  0  0  0
   -1.0135    0.5084   -4.8458 H   0  0  0  0  0  0  0  0  0  0  0  0
   -2.7406    0.2616   -5.3032 H   0  0  0  0  0  0  0  0  0  0  0  0
   -1.5445   -1.1051   -5.4462 H   0  0  0  0  0  0  0  0  0  0  0  0
   -3.8876   -1.8443   -5.1414 H   0  0  0  0  0  0  0  0  0  0  0  0
   -5.5289   -3.4954   -4.4217 H   0  0  0  0  0  0  0  0  0  0  0  0
   -4.1960   -3.1468   -0.3741 H   0  0  0  0  0  0  0  0  0  0  0  0
   -2.2196    0.5797   -1.5738 H   0  0  0  0  0  0  0  0  0  0  0  0
   -1.6689    2.5369   -0.8463 H   0  0  0  0  0  0  0  0  0  0  0  0
   -0.9080    2.1569    2.8441 H   0  0  0  0  0  0  0  0  0  0  0  0
   -0.1959    3.9827    4.2792 H   0  0  0  0  0  0  0  0  0  0  0  0
    0.3598    6.1947    3.3225 H   0  0  0  0  0  0  0  0  0  0  0  0
    0.1946    6.5684    0.8899 H   0  0  0  0  0  0  0  0  0  0  0  0
    1.8757    2.3709    1.7686 H   0  0  0  0  0  0  0  0  0  0  0  0
    1.2915    1.8585    0.1491 H   0  0  0  0  0  0  0  0  0  0  0  0
    3.7333    1.7758    0.3924 H   0  0  0  0  0  0  0  0  0  0  0  0
    3.8799    1.1714    2.8234 H   0  0  0  0  0  0  0  0  0  0  0  0
    4.7608   -0.0493    1.8410 H   0  0  0  0  0  0  0  0  0  0  0  0
    3.2999   -1.1665    3.4920 H   0  0  0  0  0  0  0  0  0  0  0  0
    1.6496    0.7027    3.7546 H   0  0  0  0  0  0  0  0  0  0  0  0
    0.8212   -0.8497    3.4595 H   0  0  0  0  0  0  0  0  0  0  0  0
    2.0550   -3.2927    3.0028 H   0  0  0  0  0  0  0  0  0  0  0  0
    1.7172   -5.0682    1.3248 H   0  0  0  0  0  0  0  0  0  0  0  0
    2.0575   -4.5882   -1.0737 H   0  0  0  0  0  0  0  0  0  0  0  0
    2.4724    0.1645   -1.1223 H   0  0  0  0  0  0  0  0  0  0  0  0
    4.1635   -0.2644   -0.6985 H   0  0  0  0  0  0  0  0  0  0  0  0
  1  2  1  0  0  0  0
  1 38  1  0  0  0  0
  1 39  1  0  0  0  0
  1 40  1  0  0  0  0
  2  3  1  0  0  0  0
  3  4  2  0  0  0  0
  4  5  1  0  0  0  0
  4 41  1  0  0  0  0
  5  6  2  0  0  0  0
  5 42  1  0  0  0  0
  6  7  1  0  0  0  0
  6  8  1  0  0  0  0
  8  9  2  0  0  0  0
  8 43  1  0  0  0  0
  9 10  1  0  0  0  0
  9  3  1  0  0  0  0
 10 11  2  0  0  0  0
 10 12  1  0  0  0  0
 12 13  1  0  0  0  0
 12 44  1  0  0  0  0
 13 14  2  0  0  0  0
 13 22  1  0  0  0  0
 14 15  1  0  0  0  0
 14 45  1  0  0  0  0
 15 16  2  0  0  0  0
 16 17  1  0  0  0  0
 16 46  1  0  0  0  0
 17 18  2  0  0  0  0
 17 47  1  0  0  0  0
 18 19  1  0  0  0  0
 18 48  1  0  0  0  0
 19 20  2  0  0  0  0
 19 49  1  0  0  0  0
 20 21  1  0  0  0  0
 20 15  1  0  0  0  0
 22 23  2  0  0  0  0
 22 24  1  0  0  0  0
 24 25  1  0  0  0  0
 25 50  1  0  0  0  0
 25 51  1  0  0  0  0
 26 25  1  0  0  0  0
 26 27  1  0  0  0  0
 26 52  1  6  0  0  0
 27 28  1  0  0  0  0
 27 53  1  0  0  0  0
 27 54  1  0  0  0  0
 28 29  1  0  0  0  0
 28 30  1  0  0  0  0
 28 55  1  1  0  0  0
 29 24  1  0  0  0  0
 29 56  1  0  0  0  0
 29 57  1  0  0  0  0
 30 31  2  0  0  0  0
 31 32  1  0  0  0  0
 31 58  1  0  0  0  0
 32 33  2  0  0  0  0
 32 59  1  0  0  0  0
 33 34  1  0  0  0  0
 33 60  1  0  0  0  0
 34 35  2  0  0  0  0
 34 36  1  0  0  0  0
 36 37  1  0  0  0  0
 36 30  1  0  0  0  0
 37 26  1  0  0  0  0
 37 61  1  0  0  0  0
 37 62  1  0  0  0  0
M  END
>  <IDENTIFIER>
CNP0559905.1

>  <Energy>
659.67

$$$$
