
 OpenBabel09062504233D

 23 24  0  0  0  0  0  0  0  0999 V2000
    3.0004   -1.0297   -0.2494 C   0  0  0  0  0  0  0  0  0  0  0  0
    2.6041    0.3981   -0.0368 C   0  0  0  0  0  0  0  0  0  0  0  0
    1.3310    0.8386   -0.0044 C   0  0  0  0  0  0  0  0  0  0  0  0
    0.9340    2.2412    0.1917 C   0  0  0  0  0  0  0  0  0  0  0  0
    1.6948    3.1818    0.3569 O   0  0  0  0  0  0  0  0  0  0  0  0
   -0.5283    2.3388    0.1679 C   0  0  0  0  0  0  0  0  0  0  0  0
   -1.0118    1.1129   -0.0205 C   0  0  0  0  0  0  0  0  0  0  0  0
   -2.3786    0.7412   -0.0692 N   0  0  0  0  0  0  0  0  0  0  0  0
   -2.6791   -0.6594    0.1627 C   0  0  0  0  0  0  0  0  0  0  0  0
   -1.6930   -1.5771   -0.5983 C   0  0  0  0  0  0  0  0  0  0  0  0
   -0.2432   -1.1730   -0.3951 C   0  0  0  0  0  0  0  0  0  0  0  0
    0.0503    0.1173   -0.1555 C   0  0  0  0  0  0  0  0  0  0  0  0
    4.1071   -1.1146   -0.2279 H   0  0  0  0  0  0  0  0  0  0  0  0
    2.6462   -1.3791   -1.2415 H   0  0  0  0  0  0  0  0  0  0  0  0
    2.5849   -1.6664    0.5592 H   0  0  0  0  0  0  0  0  0  0  0  0
    3.4057    1.1191    0.0973 H   0  0  0  0  0  0  0  0  0  0  0  0
   -1.1175    3.2362    0.3007 H   0  0  0  0  0  0  0  0  0  0  0  0
   -3.0888    1.4540    0.1549 H   0  0  0  0  0  0  0  0  0  0  0  0
   -3.7251   -0.8896   -0.1324 H   0  0  0  0  0  0  0  0  0  0  0  0
   -2.5752   -0.8541    1.2526 H   0  0  0  0  0  0  0  0  0  0  0  0
   -1.8993   -1.5145   -1.6880 H   0  0  0  0  0  0  0  0  0  0  0  0
   -1.8495   -2.6303   -0.2821 H   0  0  0  0  0  0  0  0  0  0  0  0
    0.5250   -1.9192   -0.5340 H   0  0  0  0  0  0  0  0  0  0  0  0
  1  2  1  0  0  0  0
  1 13  1  0  0  0  0
  1 14  1  0  0  0  0
  1 15  1  0  0  0  0
  2  3  2  3  0  0  0
  2 16  1  0  0  0  0
  3  4  1  0  0  0  0
  4  5  2  0  0  0  0
  4  6  1  0  0  0  0
  6  7  2  0  0  0  0
  6 17  1  0  0  0  0
  7  8  1  0  0  0  0
  8  9  1  0  0  0  0
  8 18  1  0  0  0  0
  9 10  1  0  0  0  0
  9 19  1  0  0  0  0
  9 20  1  0  0  0  0
 10 11  1  0  0  0  0
 10 21  1  0  0  0  0
 10 22  1  0  0  0  0
 11 12  2  0  0  0  0
 11 23  1  0  0  0  0
 12  3  1  0  0  0  0
 12  7  1  0  0  0  0
M  END
>  <IDENTIFIER>
CNP0382697.0

>  <Energy>
258.511

$$$$
