
 OpenBabel09082520163D

143149  0  0  0  0  0  0  0  0999 V2000
  -11.6859   -0.6123    1.9434 C   0  0  0  0  0  0  0  0  0  0  0  0
  -11.3325    0.3348    0.8299 C   0  0  0  0  0  0  0  0  0  0  0  0
  -10.1646    0.3232    0.1376 C   0  0  0  0  0  0  0  0  0  0  0  0
   -9.9544    1.3402   -0.9562 C   0  0  0  0  0  0  0  0  0  0  0  0
   -9.0581   -0.6456    0.3914 C   0  0  0  0  0  0  0  0  0  0  0  0
   -9.1706   -1.5052    1.2540 O   0  0  0  0  0  0  0  0  0  0  0  0
   -7.9132   -0.5633   -0.3480 O   0  0  0  0  0  0  0  0  0  0  0  0
   -6.8283   -1.4240   -0.2301 C   0  0  1  0  0  0  0  0  0  0  0  0
   -6.6894   -2.2683   -1.5167 C   0  0  2  0  0  0  0  0  0  0  0  0
   -7.9227   -2.8424   -1.8844 O   0  0  0  0  0  0  0  0  0  0  0  0
   -5.5865   -3.3660   -1.3668 C   0  0  0  0  0  0  0  0  0  0  0  0
   -5.4120   -4.0967   -2.7217 C   0  0  0  0  0  0  0  0  0  0  0  0
   -5.9058   -4.4462   -0.2993 C   0  0  0  0  0  0  0  0  0  0  0  0
   -4.2746   -2.6431   -1.0242 C   0  0  0  0  0  0  0  0  0  0  0  0
   -4.3264   -1.7068    0.2187 C   0  0  1  0  0  0  0  0  0  0  0  0
   -2.9999   -0.9593    0.3919 C   0  0  0  0  0  0  0  0  0  0  0  0
   -2.3645   -1.1219    1.5768 C   0  0  0  0  0  0  0  0  0  0  0  0
   -1.1255   -0.3954    2.0094 C   0  0  0  0  0  0  0  0  0  0  0  0
   -0.4643    0.4268    0.8848 C   0  0  2  0  0  0  0  0  0  0  0  0
    0.8562    1.2061    1.3330 C   0  0  1  0  0  0  0  0  0  0  0  0
    0.6069    2.2048    2.5084 C   0  0  0  0  0  0  0  0  0  0  0  0
    1.8947    0.1520    1.8467 C   0  0  0  0  0  0  0  0  0  0  0  0
    3.3278    0.6937    1.9632 C   0  0  0  0  0  0  0  0  0  0  0  0
    3.8041    1.1886    0.5873 C   0  0  2  0  0  0  0  0  0  0  0  0
    5.1745    1.5588    0.6410 O   0  0  0  0  0  0  0  0  0  0  0  0
    6.0473    0.4556    0.4119 C   0  0  2  0  0  0  0  0  0  0  0  0
    6.6128    0.0183    1.6501 O   0  0  0  0  0  0  0  0  0  0  0  0
    7.8702    0.6031    2.0156 C   0  0  2  0  0  0  0  0  0  0  0  0
    7.9662    0.6504    3.5302 C   0  0  0  0  0  0  0  0  0  0  0  0
    8.9968    1.0416    4.0550 O   0  0  0  0  0  0  0  0  0  0  0  0
    6.9479    0.2504    4.3260 O   0  0  0  0  0  0  0  0  0  0  0  0
    8.0486    2.0247    1.4195 C   0  0  1  0  0  0  0  0  0  0  0  0
    9.2195    2.6702    1.8513 O   0  0  0  0  0  0  0  0  0  0  0  0
    7.9934    1.9866   -0.1256 C   0  0  2  0  0  0  0  0  0  0  0  0
    7.5763    3.2346   -0.6229 O   0  0  0  0  0  0  0  0  0  0  0  0
    7.1132    0.8206   -0.6367 C   0  0  1  0  0  0  0  0  0  0  0  0
    7.9381   -0.3292   -0.7958 O   0  0  0  0  0  0  0  0  0  0  0  0
    7.8272   -0.9784   -2.0617 C   0  0  2  0  0  0  0  0  0  0  0  0
    7.4853   -2.3371   -1.8564 O   0  0  0  0  0  0  0  0  0  0  0  0
    8.3986   -3.0174   -0.9823 C   0  0  1  0  0  0  0  0  0  0  0  0
    8.2479   -4.5245   -1.2389 C   0  0  0  0  0  0  0  0  0  0  0  0
    9.8964   -2.5650   -1.1348 C   0  0  2  0  0  0  0  0  0  0  0  0
   10.1687   -1.5254   -0.2281 O   0  0  0  0  0  0  0  0  0  0  0  0
   10.1267   -2.0601   -2.5695 C   0  0  1  0  0  0  0  0  0  0  0  0
    9.9582   -3.1188   -3.4857 O   0  0  0  0  0  0  0  0  0  0  0  0
    9.1731   -0.8577   -2.8479 C   0  0  1  0  0  0  0  0  0  0  0  0
    8.9971   -0.6751   -4.2335 O   0  0  0  0  0  0  0  0  0  0  0  0
    2.9341    2.3730    0.0504 C   0  0  0  0  0  0  0  0  0  0  0  0
    3.1641    3.6791    0.8503 C   0  0  0  0  0  0  0  0  0  0  0  0
    3.4156    2.6627   -1.4026 C   0  0  0  0  0  0  0  0  0  0  0  0
    1.4305    1.8727    0.0186 C   0  0  2  0  0  0  0  0  0  0  0  0
    0.3873    2.8692   -0.5625 C   0  0  0  0  0  0  0  0  0  0  0  0
   -0.8339    2.0756   -1.0622 C   0  0  0  0  0  0  0  0  0  0  0  0
   -1.5575    1.1918    0.0184 C   0  0  2  0  0  0  0  0  0  0  0  0
   -2.3995    2.1546    0.9028 C   0  0  0  0  0  0  0  0  0  0  0  0
   -2.5147    0.0571   -0.6888 C   0  0  1  0  0  0  0  0  0  0  0  0
   -1.6732   -0.7446   -1.7705 C   0  0  0  0  0  0  0  0  0  0  0  0
   -3.8022    0.6623   -1.4455 C   0  0  1  0  0  0  0  0  0  0  0  0
   -4.0865   -0.0026   -2.6536 O   0  0  0  0  0  0  0  0  0  0  0  0
   -5.0971    0.6739   -0.5652 C   0  0  1  0  0  0  0  0  0  0  0  0
   -6.1815    1.2948   -1.2060 O   0  0  0  0  0  0  0  0  0  0  0  0
   -5.5091   -0.6671    0.2182 C   0  0  1  0  0  0  0  0  0  0  0  0
   -5.7716   -0.2255    1.7023 C   0  0  0  0  0  0  0  0  0  0  0  0
   -6.7855    0.7136    1.7579 O   0  0  0  0  0  0  0  0  0  0  0  0
   -7.2579    1.2762    2.8971 C   0  0  0  0  0  0  0  0  0  0  0  0
   -8.3690    2.2726    2.8171 C   0  0  0  0  0  0  0  0  0  0  0  0
   -6.7912    0.9746    3.9868 O   0  0  0  0  0  0  0  0  0  0  0  0
  -12.6989   -0.3759    2.3304 H   0  0  0  0  0  0  0  0  0  0  0  0
  -10.9619   -0.5105    2.7794 H   0  0  0  0  0  0  0  0  0  0  0  0
  -11.6933   -1.6587    1.5710 H   0  0  0  0  0  0  0  0  0  0  0  0
  -12.0872    1.0756    0.5809 H   0  0  0  0  0  0  0  0  0  0  0  0
  -10.8253    2.0196   -1.0763 H   0  0  0  0  0  0  0  0  0  0  0  0
   -9.7891    0.8162   -1.9211 H   0  0  0  0  0  0  0  0  0  0  0  0
   -9.0628    1.9588   -0.7233 H   0  0  0  0  0  0  0  0  0  0  0  0
   -7.0461   -2.1666    0.5616 H   0  0  0  0  0  0  0  0  0  0  0  0
   -6.4051   -1.5724   -2.3354 H   0  0  0  0  0  0  0  0  0  0  0  0
   -8.3074   -3.2923   -1.0886 H   0  0  0  0  0  0  0  0  0  0  0  0
   -6.3430   -4.6303   -3.0082 H   0  0  0  0  0  0  0  0  0  0  0  0
   -4.5884   -4.8415   -2.6640 H   0  0  0  0  0  0  0  0  0  0  0  0
   -5.1657   -3.3783   -3.5341 H   0  0  0  0  0  0  0  0  0  0  0  0
   -6.8348   -4.9954   -0.5579 H   0  0  0  0  0  0  0  0  0  0  0  0
   -6.0188   -4.0419    0.7231 H   0  0  0  0  0  0  0  0  0  0  0  0
   -5.0806   -5.1899   -0.2560 H   0  0  0  0  0  0  0  0  0  0  0  0
   -4.0916   -2.0694   -1.9139 H   0  0  0  0  0  0  0  0  0  0  0  0
   -3.4424   -3.3735   -0.9106 H   0  0  0  0  0  0  0  0  0  0  0  0
   -4.5056   -2.4001    1.0694 H   0  0  0  0  0  0  0  0  0  0  0  0
   -2.7911   -1.7832    2.3263 H   0  0  0  0  0  0  0  0  0  0  0  0
   -0.4084   -1.1507    2.3876 H   0  0  0  0  0  0  0  0  0  0  0  0
   -1.4318    0.2478    2.8574 H   0  0  0  0  0  0  0  0  0  0  0  0
   -0.0451   -0.3242    0.2122 H   0  0  0  0  0  0  0  0  0  0  0  0
    0.1166    1.7002    3.3624 H   0  0  0  0  0  0  0  0  0  0  0  0
    0.0232    3.0938    2.2517 H   0  0  0  0  0  0  0  0  0  0  0  0
    1.5284    2.5946    2.9506 H   0  0  0  0  0  0  0  0  0  0  0  0
    1.9467   -0.7002    1.1332 H   0  0  0  0  0  0  0  0  0  0  0  0
    1.5875   -0.2623    2.8310 H   0  0  0  0  0  0  0  0  0  0  0  0
    3.9757   -0.1456    2.2948 H   0  0  0  0  0  0  0  0  0  0  0  0
    3.4191    1.4893    2.7275 H   0  0  0  0  0  0  0  0  0  0  0  0
    3.6384    0.3566   -0.1390 H   0  0  0  0  0  0  0  0  0  0  0  0
    5.5388   -0.4323   -0.0286 H   0  0  0  0  0  0  0  0  0  0  0  0
    8.6881   -0.0565    1.6562 H   0  0  0  0  0  0  0  0  0  0  0  0
    6.1043   -0.0755    3.9851 H   0  0  0  0  0  0  0  0  0  0  0  0
    7.1802    2.6048    1.8030 H   0  0  0  0  0  0  0  0  0  0  0  0
    9.9839    2.0867    1.6054 H   0  0  0  0  0  0  0  0  0  0  0  0
    9.0046    1.8012   -0.5503 H   0  0  0  0  0  0  0  0  0  0  0  0
    6.6341    3.3742   -0.3481 H   0  0  0  0  0  0  0  0  0  0  0  0
    6.6421    1.1529   -1.5894 H   0  0  0  0  0  0  0  0  0  0  0  0
    7.0272   -0.5329   -2.6924 H   0  0  0  0  0  0  0  0  0  0  0  0
    8.0851   -2.8830    0.0774 H   0  0  0  0  0  0  0  0  0  0  0  0
    8.5278   -4.8129   -2.2694 H   0  0  0  0  0  0  0  0  0  0  0  0
    7.1911   -4.8260   -1.0759 H   0  0  0  0  0  0  0  0  0  0  0  0
    8.8816   -5.0997   -0.5307 H   0  0  0  0  0  0  0  0  0  0  0  0
   10.5700   -3.4143   -0.8725 H   0  0  0  0  0  0  0  0  0  0  0  0
   11.1537   -1.4010   -0.2147 H   0  0  0  0  0  0  0  0  0  0  0  0
   11.1709   -1.7048   -2.7075 H   0  0  0  0  0  0  0  0  0  0  0  0
    9.0011   -3.2004   -3.7252 H   0  0  0  0  0  0  0  0  0  0  0  0
    9.6366    0.0807   -2.4712 H   0  0  0  0  0  0  0  0  0  0  0  0
    8.2568   -1.2618   -4.5360 H   0  0  0  0  0  0  0  0  0  0  0  0
    4.2248    3.9991    0.7609 H   0  0  0  0  0  0  0  0  0  0  0  0
    2.9800    3.5992    1.9251 H   0  0  0  0  0  0  0  0  0  0  0  0
    2.5322    4.4975    0.4456 H   0  0  0  0  0  0  0  0  0  0  0  0
    4.4947    2.9220   -1.4205 H   0  0  0  0  0  0  0  0  0  0  0  0
    2.8858    3.5180   -1.8639 H   0  0  0  0  0  0  0  0  0  0  0  0
    3.2790    1.7729   -2.0551 H   0  0  0  0  0  0  0  0  0  0  0  0
    1.5018    1.0407   -0.7213 H   0  0  0  0  0  0  0  0  0  0  0  0
    0.7853    3.3804   -1.4588 H   0  0  0  0  0  0  0  0  0  0  0  0
    0.1185    3.6679    0.1539 H   0  0  0  0  0  0  0  0  0  0  0  0
   -0.3889    1.4521   -1.8501 H   0  0  0  0  0  0  0  0  0  0  0  0
   -1.5498    2.7565   -1.5688 H   0  0  0  0  0  0  0  0  0  0  0  0
   -3.1167    2.7296    0.2862 H   0  0  0  0  0  0  0  0  0  0  0  0
   -1.8107    2.9375    1.3852 H   0  0  0  0  0  0  0  0  0  0  0  0
   -2.9597    1.6180    1.6921 H   0  0  0  0  0  0  0  0  0  0  0  0
   -1.4119   -0.1209   -2.6443 H   0  0  0  0  0  0  0  0  0  0  0  0
   -2.1865   -1.5804   -2.2475 H   0  0  0  0  0  0  0  0  0  0  0  0
   -0.7670   -1.2468   -1.4024 H   0  0  0  0  0  0  0  0  0  0  0  0
   -3.5477    1.7081   -1.7311 H   0  0  0  0  0  0  0  0  0  0  0  0
   -4.4193    0.6662   -3.3089 H   0  0  0  0  0  0  0  0  0  0  0  0
   -4.7994    1.3929    0.2121 H   0  0  0  0  0  0  0  0  0  0  0  0
   -6.4044    0.7532   -2.0043 H   0  0  0  0  0  0  0  0  0  0  0  0
   -4.8530    0.2115    2.1517 H   0  0  0  0  0  0  0  0  0  0  0  0
   -6.0475   -1.1042    2.3298 H   0  0  0  0  0  0  0  0  0  0  0  0
   -8.6694    2.4299    1.7601 H   0  0  0  0  0  0  0  0  0  0  0  0
   -8.0348    3.2417    3.2420 H   0  0  0  0  0  0  0  0  0  0  0  0
   -9.2463    1.9017    3.3874 H   0  0  0  0  0  0  0  0  0  0  0  0
  1  2  1  0  0  0  0
  1 68  1  0  0  0  0
  1 69  1  0  0  0  0
  1 70  1  0  0  0  0
  2  3  2  0  0  0  0
  2 71  1  0  0  0  0
  3  4  1  0  0  0  0
  3  5  1  0  0  0  0
  4 72  1  0  0  0  0
  4 73  1  0  0  0  0
  4 74  1  0  0  0  0
  5  6  2  0  0  0  0
  5  7  1  0  0  0  0
  8  7  1  0  0  0  0
  8  9  1  0  0  0  0
  8 75  1  1  0  0  0
  9 10  1  0  0  0  0
  9 11  1  0  0  0  0
  9 76  1  6  0  0  0
 10 77  1  0  0  0  0
 11 12  1  0  0  0  0
 11 13  1  0  0  0  0
 11 14  1  0  0  0  0
 12 78  1  0  0  0  0
 12 79  1  0  0  0  0
 12 80  1  0  0  0  0
 13 81  1  0  0  0  0
 13 82  1  0  0  0  0
 13 83  1  0  0  0  0
 14 84  1  0  0  0  0
 14 85  1  0  0  0  0
 15 14  1  0  0  0  0
 15 16  1  0  0  0  0
 15 86  1  1  0  0  0
 16 17  2  0  0  0  0
 17 18  1  0  0  0  0
 17 87  1  0  0  0  0
 18 88  1  0  0  0  0
 18 89  1  0  0  0  0
 19 18  1  0  0  0  0
 19 20  1  0  0  0  0
 19 90  1  6  0  0  0
 20 21  1  1  0  0  0
 20 22  1  0  0  0  0
 21 91  1  0  0  0  0
 21 92  1  0  0  0  0
 21 93  1  0  0  0  0
 22 23  1  0  0  0  0
 22 94  1  0  0  0  0
 22 95  1  0  0  0  0
 23 24  1  0  0  0  0
 23 96  1  0  0  0  0
 23 97  1  0  0  0  0
 24 25  1  0  0  0  0
 24 48  1  0  0  0  0
 24 98  1  6  0  0  0
 26 25  1  0  0  0  0
 26 27  1  0  0  0  0
 26 99  1  6  0  0  0
 27 28  1  0  0  0  0
 28 29  1  0  0  0  0
 28 32  1  0  0  0  0
 28100  1  6  0  0  0
 29 30  2  0  0  0  0
 29 31  1  0  0  0  0
 31101  1  0  0  0  0
 32 33  1  0  0  0  0
 32 34  1  0  0  0  0
 32102  1  1  0  0  0
 33103  1  0  0  0  0
 34 35  1  0  0  0  0
 34 36  1  0  0  0  0
 34104  1  6  0  0  0
 35105  1  0  0  0  0
 36 37  1  0  0  0  0
 36 26  1  0  0  0  0
 36106  1  6  0  0  0
 38 37  1  0  0  0  0
 38 39  1  0  0  0  0
 38107  1  6  0  0  0
 39 40  1  0  0  0  0
 40 41  1  0  0  0  0
 40 42  1  0  0  0  0
 40108  1  1  0  0  0
 41109  1  0  0  0  0
 41110  1  0  0  0  0
 41111  1  0  0  0  0
 42 43  1  0  0  0  0
 42 44  1  0  0  0  0
 42112  1  1  0  0  0
 43113  1  0  0  0  0
 44 45  1  0  0  0  0
 44 46  1  0  0  0  0
 44114  1  6  0  0  0
 45115  1  0  0  0  0
 46 47  1  0  0  0  0
 46 38  1  0  0  0  0
 46116  1  1  0  0  0
 47117  1  0  0  0  0
 48 49  1  0  0  0  0
 48 50  1  0  0  0  0
 48 51  1  0  0  0  0
 49118  1  0  0  0  0
 49119  1  0  0  0  0
 49120  1  0  0  0  0
 50121  1  0  0  0  0
 50122  1  0  0  0  0
 50123  1  0  0  0  0
 51 52  1  0  0  0  0
 51 20  1  0  0  0  0
 51124  1  6  0  0  0
 52 53  1  0  0  0  0
 52125  1  0  0  0  0
 52126  1  0  0  0  0
 53 54  1  0  0  0  0
 53127  1  0  0  0  0
 53128  1  0  0  0  0
 54 55  1  1  0  0  0
 54 56  1  0  0  0  0
 54 19  1  0  0  0  0
 55129  1  0  0  0  0
 55130  1  0  0  0  0
 55131  1  0  0  0  0
 56 57  1  6  0  0  0
 56 58  1  0  0  0  0
 56 16  1  0  0  0  0
 57132  1  0  0  0  0
 57133  1  0  0  0  0
 57134  1  0  0  0  0
 58 59  1  0  0  0  0
 58 60  1  0  0  0  0
 58135  1  6  0  0  0
 59136  1  0  0  0  0
 60 61  1  0  0  0  0
 60 62  1  0  0  0  0
 60137  1  1  0  0  0
 61138  1  0  0  0  0
 62 63  1  1  0  0  0
 62  8  1  0  0  0  0
 62 15  1  0  0  0  0
 63 64  1  0  0  0  0
 63139  1  0  0  0  0
 63140  1  0  0  0  0
 64 65  1  0  0  0  0
 65 66  1  0  0  0  0
 65 67  2  0  0  0  0
 66141  1  0  0  0  0
 66142  1  0  0  0  0
 66143  1  0  0  0  0
M  END
>  <IDENTIFIER>
CNP0225528.1

>  <Energy>
1738.05

$$$$
