
 OpenBabel09092512293D

 45 44  0  0  0  0  0  0  0  0999 V2000
   -6.3521    1.7744   -0.9163 C   0  0  0  0  0  0  0  0  0  0  0  0
   -6.4067    0.6670    0.1380 C   0  0  0  0  0  0  0  0  0  0  0  0
   -5.0204    0.1120    0.5036 C   0  0  0  0  0  0  0  0  0  0  0  0
   -4.3331   -0.6111   -0.6695 C   0  0  0  0  0  0  0  0  0  0  0  0
   -2.9781   -1.2317   -0.2881 C   0  0  0  0  0  0  0  0  0  0  0  0
   -1.9315   -0.1770    0.1022 C   0  0  0  0  0  0  0  0  0  0  0  0
   -0.5654   -0.8179    0.3717 C   0  0  0  0  0  0  0  0  0  0  0  0
    0.4622    0.2607    0.7476 C   0  0  0  0  0  0  0  0  0  0  0  0
    1.8584   -0.2954    1.0678 C   0  0  0  0  0  0  0  0  0  0  0  0
    2.5307   -0.9709   -0.1412 C   0  0  0  0  0  0  0  0  0  0  0  0
    3.9537   -1.4804    0.1616 C   0  0  0  0  0  0  0  0  0  0  0  0
    4.9795   -0.3955    0.5742 C   0  0  1  0  0  0  0  0  0  0  0  0
    6.2162   -1.0036    0.8564 O   0  0  0  0  0  0  0  0  0  0  0  0
    5.1570    0.7087   -0.4919 C   0  0  0  0  0  0  0  0  0  0  0  0
    6.1532    1.7471   -0.0446 C   0  0  0  0  0  0  0  0  0  0  0  0
    5.9391    2.3979    0.9660 O   0  0  0  0  0  0  0  0  0  0  0  0
    7.2789    1.9787   -0.7531 O   0  0  0  0  0  0  0  0  0  0  0  0
   -7.3763    2.1653   -1.0925 H   0  0  0  0  0  0  0  0  0  0  0  0
   -5.9644    1.3933   -1.8827 H   0  0  0  0  0  0  0  0  0  0  0  0
   -5.7099    2.6093   -0.5646 H   0  0  0  0  0  0  0  0  0  0  0  0
   -7.0637   -0.1562   -0.2171 H   0  0  0  0  0  0  0  0  0  0  0  0
   -6.8579    1.0970    1.0586 H   0  0  0  0  0  0  0  0  0  0  0  0
   -5.1517   -0.6167    1.3332 H   0  0  0  0  0  0  0  0  0  0  0  0
   -4.3964    0.9520    0.8717 H   0  0  0  0  0  0  0  0  0  0  0  0
   -4.1710    0.0852   -1.5182 H   0  0  0  0  0  0  0  0  0  0  0  0
   -4.9997   -1.4317   -1.0140 H   0  0  0  0  0  0  0  0  0  0  0  0
   -2.6038   -1.7864   -1.1766 H   0  0  0  0  0  0  0  0  0  0  0  0
   -3.1153   -1.9587    0.5422 H   0  0  0  0  0  0  0  0  0  0  0  0
   -2.2560    0.3607    1.0172 H   0  0  0  0  0  0  0  0  0  0  0  0
   -1.8278    0.5543   -0.7297 H   0  0  0  0  0  0  0  0  0  0  0  0
   -0.2417   -1.3509   -0.5462 H   0  0  0  0  0  0  0  0  0  0  0  0
   -0.6549   -1.5497    1.2044 H   0  0  0  0  0  0  0  0  0  0  0  0
    0.0960    0.7933    1.6531 H   0  0  0  0  0  0  0  0  0  0  0  0
    0.5475    1.0018   -0.0776 H   0  0  0  0  0  0  0  0  0  0  0  0
    1.7936   -1.0122    1.9152 H   0  0  0  0  0  0  0  0  0  0  0  0
    2.4715    0.5719    1.3878 H   0  0  0  0  0  0  0  0  0  0  0  0
    2.5552   -0.2691   -1.0004 H   0  0  0  0  0  0  0  0  0  0  0  0
    1.9312   -1.8525   -0.4482 H   0  0  0  0  0  0  0  0  0  0  0  0
    4.3291   -1.9967   -0.7491 H   0  0  0  0  0  0  0  0  0  0  0  0
    3.8920   -2.2349    0.9763 H   0  0  0  0  0  0  0  0  0  0  0  0
    4.6320    0.0788    1.5152 H   0  0  0  0  0  0  0  0  0  0  0  0
    6.5505   -1.4121    0.0148 H   0  0  0  0  0  0  0  0  0  0  0  0
    4.1946    1.2282   -0.6770 H   0  0  0  0  0  0  0  0  0  0  0  0
    5.4929    0.2468   -1.4454 H   0  0  0  0  0  0  0  0  0  0  0  0
    7.4845    1.4876   -1.5606 H   0  0  0  0  0  0  0  0  0  0  0  0
  1  2  1  0  0  0  0
  1 18  1  0  0  0  0
  1 19  1  0  0  0  0
  1 20  1  0  0  0  0
  2  3  1  0  0  0  0
  2 21  1  0  0  0  0
  2 22  1  0  0  0  0
  3  4  1  0  0  0  0
  3 23  1  0  0  0  0
  3 24  1  0  0  0  0
  4  5  1  0  0  0  0
  4 25  1  0  0  0  0
  4 26  1  0  0  0  0
  5  6  1  0  0  0  0
  5 27  1  0  0  0  0
  5 28  1  0  0  0  0
  6  7  1  0  0  0  0
  6 29  1  0  0  0  0
  6 30  1  0  0  0  0
  7  8  1  0  0  0  0
  7 31  1  0  0  0  0
  7 32  1  0  0  0  0
  8  9  1  0  0  0  0
  8 33  1  0  0  0  0
  8 34  1  0  0  0  0
  9 10  1  0  0  0  0
  9 35  1  0  0  0  0
  9 36  1  0  0  0  0
 10 11  1  0  0  0  0
 10 37  1  0  0  0  0
 10 38  1  0  0  0  0
 11 12  1  0  0  0  0
 11 39  1  0  0  0  0
 11 40  1  0  0  0  0
 12 13  1  0  0  0  0
 12 14  1  0  0  0  0
 12 41  1  1  0  0  0
 13 42  1  0  0  0  0
 14 15  1  0  0  0  0
 14 43  1  0  0  0  0
 14 44  1  0  0  0  0
 15 16  2  0  0  0  0
 15 17  1  0  0  0  0
 17 45  1  0  0  0  0
M  END
>  <IDENTIFIER>
CNP0114637.1

>  <Energy>
101.309

$$$$
