
 OpenBabel09112505363D

 62 66  0  0  0  0  0  0  0  0999 V2000
    4.9961    3.4085   -2.6781 C   0  0  0  0  0  0  0  0  0  0  0  0
    4.4214    2.1140   -2.1886 C   0  0  0  0  0  0  0  0  0  0  0  0
    4.7534    1.0690   -2.7330 O   0  0  0  0  0  0  0  0  0  0  0  0
    3.5449    2.1036   -1.1475 N   0  0  0  0  0  0  0  0  0  0  0  0
    2.9853    0.8631   -0.6441 C   0  0  0  0  0  0  0  0  0  0  0  0
    2.0612    1.1025    0.5639 C   0  0  0  0  0  0  0  0  0  0  0  0
    1.5847   -0.2155    1.1256 C   0  0  0  0  0  0  0  0  0  0  0  0
    0.6386   -1.1100    0.5900 C   0  0  0  0  0  0  0  0  0  0  0  0
   -0.1921   -0.9000   -0.6739 C   0  0  1  0  0  0  0  0  0  0  0  0
   -0.6232   -2.2143   -1.3252 C   0  0  0  0  0  0  0  0  0  0  0  0
   -1.9569   -2.5074   -1.6872 C   0  0  0  0  0  0  0  0  0  0  0  0
   -2.2749   -3.7216   -2.3037 C   0  0  0  0  0  0  0  0  0  0  0  0
   -1.2748   -4.6566   -2.5746 C   0  0  0  0  0  0  0  0  0  0  0  0
    0.0487   -4.3788   -2.2347 C   0  0  0  0  0  0  0  0  0  0  0  0
    0.3736   -3.1682   -1.6200 C   0  0  0  0  0  0  0  0  0  0  0  0
   -1.3268    0.1248   -0.4341 C   0  0  0  0  0  0  0  0  0  0  0  0
   -2.3984   -0.1211    0.4613 C   0  0  0  0  0  0  0  0  0  0  0  0
   -2.4991   -1.2755    1.1582 O   0  0  0  0  0  0  0  0  0  0  0  0
   -3.4152    0.8335    0.6289 C   0  0  0  0  0  0  0  0  0  0  0  0
   -4.4877    0.5674    1.5089 C   0  0  0  0  0  0  0  0  0  0  0  0
   -5.5139    1.4885    1.6821 C   0  0  0  0  0  0  0  0  0  0  0  0
   -5.4899    2.6884    0.9870 C   0  0  0  0  0  0  0  0  0  0  0  0
   -4.4412    2.9775    0.1127 C   0  0  0  0  0  0  0  0  0  0  0  0
   -3.3742    2.0569   -0.0929 C   0  0  0  0  0  0  0  0  0  0  0  0
   -2.3219    2.3010   -0.9599 N   0  0  0  0  0  0  0  0  0  0  0  0
   -2.1836    3.5438   -1.7546 C   0  0  0  0  0  0  0  0  0  0  0  0
   -1.3180    1.3547   -1.1316 C   0  0  0  0  0  0  0  0  0  0  0  0
   -0.4026    1.5869   -1.9088 O   0  0  0  0  0  0  0  0  0  0  0  0
    0.5782   -2.2230    1.3678 N   0  0  0  0  0  0  0  0  0  0  0  0
    1.4298   -2.0314    2.3867 C   0  0  0  0  0  0  0  0  0  0  0  0
    1.6923   -2.9086    3.4382 C   0  0  0  0  0  0  0  0  0  0  0  0
    2.6418   -2.5194    4.3988 C   0  0  0  0  0  0  0  0  0  0  0  0
    3.3032   -1.2780    4.2857 C   0  0  0  0  0  0  0  0  0  0  0  0
    3.0172   -0.4129    3.2139 C   0  0  0  0  0  0  0  0  0  0  0  0
    2.0618   -0.8212    2.2773 C   0  0  0  0  0  0  0  0  0  0  0  0
    5.6922    3.2330   -3.5267 H   0  0  0  0  0  0  0  0  0  0  0  0
    5.5551    3.9019   -1.8556 H   0  0  0  0  0  0  0  0  0  0  0  0
    4.1773    4.0755   -3.0188 H   0  0  0  0  0  0  0  0  0  0  0  0
    3.2834    2.9987   -0.7053 H   0  0  0  0  0  0  0  0  0  0  0  0
    3.8210    0.2026   -0.3198 H   0  0  0  0  0  0  0  0  0  0  0  0
    2.4465    0.3589   -1.4661 H   0  0  0  0  0  0  0  0  0  0  0  0
    1.1999    1.7566    0.3183 H   0  0  0  0  0  0  0  0  0  0  0  0
    2.6715    1.6273    1.3273 H   0  0  0  0  0  0  0  0  0  0  0  0
    0.5069   -0.5080   -1.4284 H   0  0  0  0  0  0  0  0  0  0  0  0
   -2.7605   -1.8091   -1.5108 H   0  0  0  0  0  0  0  0  0  0  0  0
   -3.3000   -3.9357   -2.5767 H   0  0  0  0  0  0  0  0  0  0  0  0
   -1.5244   -5.5940   -3.0539 H   0  0  0  0  0  0  0  0  0  0  0  0
    0.8264   -5.1000   -2.4503 H   0  0  0  0  0  0  0  0  0  0  0  0
    1.4096   -2.9709   -1.3714 H   0  0  0  0  0  0  0  0  0  0  0  0
   -1.9107   -2.0269    1.0675 H   0  0  0  0  0  0  0  0  0  0  0  0
   -4.5448   -0.3592    2.0670 H   0  0  0  0  0  0  0  0  0  0  0  0
   -6.3320    1.2696    2.3569 H   0  0  0  0  0  0  0  0  0  0  0  0
   -6.2929    3.4021    1.1242 H   0  0  0  0  0  0  0  0  0  0  0  0
   -4.5181    3.9287   -0.3780 H   0  0  0  0  0  0  0  0  0  0  0  0
   -2.9746    4.2918   -1.6209 H   0  0  0  0  0  0  0  0  0  0  0  0
   -2.1699    3.2939   -2.8371 H   0  0  0  0  0  0  0  0  0  0  0  0
   -1.2304    4.0499   -1.4899 H   0  0  0  0  0  0  0  0  0  0  0  0
   -0.0099   -3.0736    1.2253 H   0  0  0  0  0  0  0  0  0  0  0  0
    1.1842   -3.8613    3.5122 H   0  0  0  0  0  0  0  0  0  0  0  0
    2.8703   -3.1778    5.2268 H   0  0  0  0  0  0  0  0  0  0  0  0
    4.0376   -0.9908    5.0270 H   0  0  0  0  0  0  0  0  0  0  0  0
    3.5317    0.5341    3.1294 H   0  0  0  0  0  0  0  0  0  0  0  0
  1  2  1  0  0  0  0
  1 36  1  0  0  0  0
  1 37  1  0  0  0  0
  1 38  1  0  0  0  0
  2  3  2  0  0  0  0
  2  4  1  0  0  0  0
  4  5  1  0  0  0  0
  4 39  1  0  0  0  0
  5  6  1  0  0  0  0
  5 40  1  0  0  0  0
  5 41  1  0  0  0  0
  6  7  1  0  0  0  0
  6 42  1  0  0  0  0
  6 43  1  0  0  0  0
  7  8  2  0  0  0  0
  8 29  1  0  0  0  0
  9  8  1  0  0  0  0
  9 10  1  0  0  0  0
  9 16  1  0  0  0  0
  9 44  1  6  0  0  0
 10 11  2  0  0  0  0
 11 12  1  0  0  0  0
 11 45  1  0  0  0  0
 12 13  2  0  0  0  0
 12 46  1  0  0  0  0
 13 14  1  0  0  0  0
 13 47  1  0  0  0  0
 14 15  2  0  0  0  0
 14 48  1  0  0  0  0
 15 10  1  0  0  0  0
 15 49  1  0  0  0  0
 16 17  2  0  0  0  0
 17 18  1  0  0  0  0
 17 19  1  0  0  0  0
 18 50  1  0  0  0  0
 19 20  2  0  0  0  0
 20 21  1  0  0  0  0
 20 51  1  0  0  0  0
 21 22  2  0  0  0  0
 21 52  1  0  0  0  0
 22 23  1  0  0  0  0
 22 53  1  0  0  0  0
 23 24  2  0  0  0  0
 23 54  1  0  0  0  0
 24 25  1  0  0  0  0
 24 19  1  0  0  0  0
 25 26  1  0  0  0  0
 25 27  1  0  0  0  0
 26 55  1  0  0  0  0
 26 56  1  0  0  0  0
 26 57  1  0  0  0  0
 27 28  2  0  0  0  0
 27 16  1  0  0  0  0
 29 30  1  0  0  0  0
 29 58  1  0  0  0  0
 30 31  2  0  0  0  0
 31 32  1  0  0  0  0
 31 59  1  0  0  0  0
 32 33  2  0  0  0  0
 32 60  1  0  0  0  0
 33 34  1  0  0  0  0
 33 61  1  0  0  0  0
 34 35  2  0  0  0  0
 34 62  1  0  0  0  0
 35  7  1  0  0  0  0
 35 30  1  0  0  0  0
M  END
>  <IDENTIFIER>
CNP0322116.0

>  <Energy>
530.288

$$$$
