
 OpenBabel09082517453D

 60 64  0  0  0  0  0  0  0  0999 V2000
    5.5089   -1.5913   -2.1608 C   0  0  0  0  0  0  0  0  0  0  0  0
    4.7838   -0.9958   -0.9840 C   0  0  0  0  0  0  0  0  0  0  0  0
    5.3768   -0.7427    0.2888 C   0  0  0  0  0  0  0  0  0  0  0  0
    6.7700   -1.1759    0.6390 C   0  0  0  0  0  0  0  0  0  0  0  0
    7.6393   -0.3217    1.3488 C   0  0  0  0  0  0  0  0  0  0  0  0
    8.9307   -0.7388    1.6857 C   0  0  0  0  0  0  0  0  0  0  0  0
    9.3688   -2.0169    1.3366 C   0  0  0  0  0  0  0  0  0  0  0  0
    8.5163   -2.8816    0.6498 C   0  0  0  0  0  0  0  0  0  0  0  0
    7.2283   -2.4666    0.3026 C   0  0  0  0  0  0  0  0  0  0  0  0
    4.5831   -0.0744    1.2546 C   0  0  0  0  0  0  0  0  0  0  0  0
    5.0286    0.1592    2.3672 O   0  0  0  0  0  0  0  0  0  0  0  0
    3.2597    0.2838    0.9511 C   0  0  0  0  0  0  0  0  0  0  0  0
    2.4216    0.9274    1.8814 C   0  0  0  0  0  0  0  0  0  0  0  0
    1.1037    1.2444    1.5399 C   0  0  0  0  0  0  0  0  0  0  0  0
    0.5981    0.9252    0.2749 C   0  0  0  0  0  0  0  0  0  0  0  0
   -0.6975    1.2265    0.0027 O   0  0  0  0  0  0  0  0  0  0  0  0
   -1.3827    0.8458   -1.1348 C   0  0  0  0  0  0  0  0  0  0  0  0
   -2.8394    1.2188   -1.0580 C   0  0  0  0  0  0  0  0  0  0  0  0
   -3.5713    0.8307   -1.9575 O   0  0  0  0  0  0  0  0  0  0  0  0
   -3.3389    1.9812   -0.0363 N   0  0  0  0  0  0  0  0  0  0  0  0
   -4.7190    2.3341    0.0786 C   0  0  0  0  0  0  0  0  0  0  0  0
   -5.0136    3.6743    0.3791 C   0  0  0  0  0  0  0  0  0  0  0  0
   -6.3295    4.1263    0.4220 C   0  0  0  0  0  0  0  0  0  0  0  0
   -7.3751    3.2453    0.1725 C   0  0  0  0  0  0  0  0  0  0  0  0
   -7.1139    1.9016   -0.0970 C   0  0  0  0  0  0  0  0  0  0  0  0
   -5.7898    1.4066   -0.1317 C   0  0  0  0  0  0  0  0  0  0  0  0
   -5.5461   -0.0069   -0.2933 N   0  0  0  0  0  0  0  0  0  0  0  0
   -4.6794   -0.7122    0.6459 C   0  0  0  0  0  0  0  0  0  0  0  0
   -4.9120   -2.1848    0.3412 C   0  0  0  0  0  0  0  0  0  0  0  0
   -6.3869   -2.1808    0.0056 C   0  0  0  0  0  0  0  0  0  0  0  0
   -6.4708   -0.9562   -0.8968 C   0  0  0  0  0  0  0  0  0  0  0  0
    1.4384    0.2871   -0.6590 C   0  0  0  0  0  0  0  0  0  0  0  0
    2.7572   -0.0315   -0.3230 C   0  0  0  0  0  0  0  0  0  0  0  0
    3.5255   -0.6367   -1.2158 O   0  0  0  0  0  0  0  0  0  0  0  0
    6.5861   -1.7653   -1.9993 H   0  0  0  0  0  0  0  0  0  0  0  0
    5.4458   -0.8770   -3.0085 H   0  0  0  0  0  0  0  0  0  0  0  0
    5.0192   -2.5408   -2.4600 H   0  0  0  0  0  0  0  0  0  0  0  0
    7.3314    0.6779    1.6262 H   0  0  0  0  0  0  0  0  0  0  0  0
    9.5925   -0.0690    2.2192 H   0  0  0  0  0  0  0  0  0  0  0  0
   10.3668   -2.3398    1.6027 H   0  0  0  0  0  0  0  0  0  0  0  0
    8.8508   -3.8776    0.3896 H   0  0  0  0  0  0  0  0  0  0  0  0
    6.5817   -3.1677   -0.2097 H   0  0  0  0  0  0  0  0  0  0  0  0
    2.7778    1.1782    2.8730 H   0  0  0  0  0  0  0  0  0  0  0  0
    0.4666    1.7303    2.2687 H   0  0  0  0  0  0  0  0  0  0  0  0
   -1.3330   -0.2625   -1.2184 H   0  0  0  0  0  0  0  0  0  0  0  0
   -0.9268    1.3044   -2.0389 H   0  0  0  0  0  0  0  0  0  0  0  0
   -2.6764    2.4324    0.6120 H   0  0  0  0  0  0  0  0  0  0  0  0
   -4.2115    4.3821    0.5486 H   0  0  0  0  0  0  0  0  0  0  0  0
   -6.5388    5.1659    0.6391 H   0  0  0  0  0  0  0  0  0  0  0  0
   -8.3973    3.6001    0.2069 H   0  0  0  0  0  0  0  0  0  0  0  0
   -7.9708    1.2642   -0.2343 H   0  0  0  0  0  0  0  0  0  0  0  0
   -5.0355   -0.4875    1.6761 H   0  0  0  0  0  0  0  0  0  0  0  0
   -3.6037   -0.4802    0.5847 H   0  0  0  0  0  0  0  0  0  0  0  0
   -4.6119   -2.8720    1.1605 H   0  0  0  0  0  0  0  0  0  0  0  0
   -4.3477   -2.4533   -0.5816 H   0  0  0  0  0  0  0  0  0  0  0  0
   -6.9575   -1.9779    0.9409 H   0  0  0  0  0  0  0  0  0  0  0  0
   -6.7642   -3.1164   -0.4566 H   0  0  0  0  0  0  0  0  0  0  0  0
   -7.5148   -0.6217   -1.0193 H   0  0  0  0  0  0  0  0  0  0  0  0
   -6.0704   -1.2150   -1.9021 H   0  0  0  0  0  0  0  0  0  0  0  0
    1.0785    0.0267   -1.6455 H   0  0  0  0  0  0  0  0  0  0  0  0
  1  2  1  0  0  0  0
  1 35  1  0  0  0  0
  1 36  1  0  0  0  0
  1 37  1  0  0  0  0
  2  3  2  0  0  0  0
  3  4  1  0  0  0  0
  3 10  1  0  0  0  0
  4  5  2  0  0  0  0
  5  6  1  0  0  0  0
  5 38  1  0  0  0  0
  6  7  2  0  0  0  0
  6 39  1  0  0  0  0
  7  8  1  0  0  0  0
  7 40  1  0  0  0  0
  8  9  2  0  0  0  0
  8 41  1  0  0  0  0
  9  4  1  0  0  0  0
  9 42  1  0  0  0  0
 10 11  2  0  0  0  0
 10 12  1  0  0  0  0
 12 13  2  0  0  0  0
 13 14  1  0  0  0  0
 13 43  1  0  0  0  0
 14 15  2  0  0  0  0
 14 44  1  0  0  0  0
 15 16  1  0  0  0  0
 15 32  1  0  0  0  0
 16 17  1  0  0  0  0
 17 18  1  0  0  0  0
 17 45  1  0  0  0  0
 17 46  1  0  0  0  0
 18 19  2  0  0  0  0
 18 20  1  0  0  0  0
 20 21  1  0  0  0  0
 20 47  1  0  0  0  0
 21 22  2  0  0  0  0
 22 23  1  0  0  0  0
 22 48  1  0  0  0  0
 23 24  2  0  0  0  0
 23 49  1  0  0  0  0
 24 25  1  0  0  0  0
 24 50  1  0  0  0  0
 25 26  2  0  0  0  0
 25 51  1  0  0  0  0
 26 27  1  0  0  0  0
 26 21  1  0  0  0  0
 27 28  1  0  0  0  0
 28 29  1  0  0  0  0
 28 52  1  0  0  0  0
 28 53  1  0  0  0  0
 29 30  1  0  0  0  0
 29 54  1  0  0  0  0
 29 55  1  0  0  0  0
 30 31  1  0  0  0  0
 30 56  1  0  0  0  0
 30 57  1  0  0  0  0
 31 27  1  0  0  0  0
 31 58  1  0  0  0  0
 31 59  1  0  0  0  0
 32 33  2  0  0  0  0
 32 60  1  0  0  0  0
 33 34  1  0  0  0  0
 33 12  1  0  0  0  0
 34  2  1  0  0  0  0
M  END
>  <IDENTIFIER>
CNP0407207.0

>  <Energy>
687.784

$$$$
