
 OpenBabel09132505463D

 45 45  0  0  0  0  0  0  0  0999 V2000
    6.3257   -2.0675    1.3715 C   0  0  0  0  0  0  0  0  0  0  0  0
    4.8688   -2.0881    1.0196 C   0  0  0  0  0  0  0  0  0  0  0  0
    4.4515   -1.9853   -0.3180 C   0  0  0  0  0  0  0  0  0  0  0  0
    3.0895   -1.9978   -0.6300 C   0  0  0  0  0  0  0  0  0  0  0  0
    2.1374   -2.1115    0.3877 C   0  0  0  0  0  0  0  0  0  0  0  0
    0.3934   -2.0963   -0.0115 S   0  0  0  0  0  0  0  0  0  0  0  0
    0.0724   -2.7361   -1.3714 O   0  0  0  0  0  0  0  0  0  0  0  0
   -0.4508   -2.9533    0.9435 O   0  0  0  0  0  0  0  0  0  0  0  0
   -0.4088   -0.5188   -0.0406 N   0  0  0  0  0  0  0  0  0  0  0  0
    0.2577    0.4203   -0.9645 C   0  0  2  0  0  0  0  0  0  0  0  0
    0.9391    1.5644   -0.1898 C   0  0  0  0  0  0  0  0  0  0  0  0
   -0.7729    0.9114   -2.0113 C   0  0  2  0  0  0  0  0  0  0  0  0
   -0.1535    1.6893   -3.0087 O   0  0  0  0  0  0  0  0  0  0  0  0
   -1.9627    1.6196   -1.3963 C   0  0  0  0  0  0  0  0  0  0  0  0
   -2.2556    2.7519   -1.7515 O   0  0  0  0  0  0  0  0  0  0  0  0
   -2.7065    0.9590   -0.4667 O   0  0  0  0  0  0  0  0  0  0  0  0
   -3.8665    1.3781    0.1732 C   0  0  0  0  0  0  0  0  0  0  0  0
   -3.6178    2.6716    0.9755 C   0  0  0  0  0  0  0  0  0  0  0  0
   -4.9976    1.5846   -0.8522 C   0  0  0  0  0  0  0  0  0  0  0  0
   -4.2771    0.2647    1.1500 C   0  0  0  0  0  0  0  0  0  0  0  0
    2.5474   -2.2158    1.7209 C   0  0  0  0  0  0  0  0  0  0  0  0
    3.9088   -2.2045    2.0371 C   0  0  0  0  0  0  0  0  0  0  0  0
    6.9616   -1.9646    0.4669 H   0  0  0  0  0  0  0  0  0  0  0  0
    6.5974   -3.0115    1.8892 H   0  0  0  0  0  0  0  0  0  0  0  0
    6.5319   -1.2094    2.0455 H   0  0  0  0  0  0  0  0  0  0  0  0
    5.1759   -1.8929   -1.1168 H   0  0  0  0  0  0  0  0  0  0  0  0
    2.7793   -1.9135   -1.6640 H   0  0  0  0  0  0  0  0  0  0  0  0
   -0.4782   -0.1476    0.9358 H   0  0  0  0  0  0  0  0  0  0  0  0
    1.0566   -0.1000   -1.5372 H   0  0  0  0  0  0  0  0  0  0  0  0
    0.1913    2.1603    0.3756 H   0  0  0  0  0  0  0  0  0  0  0  0
    1.4929    2.2370   -0.8767 H   0  0  0  0  0  0  0  0  0  0  0  0
    1.6752    1.1428    0.5277 H   0  0  0  0  0  0  0  0  0  0  0  0
   -1.1755    0.0062   -2.5157 H   0  0  0  0  0  0  0  0  0  0  0  0
    0.0913    2.5662   -2.6153 H   0  0  0  0  0  0  0  0  0  0  0  0
   -3.3379    3.5166    0.3151 H   0  0  0  0  0  0  0  0  0  0  0  0
   -2.7986    2.5176    1.7104 H   0  0  0  0  0  0  0  0  0  0  0  0
   -4.5360    2.9688    1.5267 H   0  0  0  0  0  0  0  0  0  0  0  0
   -4.7453    2.3865   -1.5757 H   0  0  0  0  0  0  0  0  0  0  0  0
   -5.9419    1.8699   -0.3408 H   0  0  0  0  0  0  0  0  0  0  0  0
   -5.1739    0.6465   -1.4219 H   0  0  0  0  0  0  0  0  0  0  0  0
   -3.4719    0.0888    1.8961 H   0  0  0  0  0  0  0  0  0  0  0  0
   -4.4522   -0.6868    0.6027 H   0  0  0  0  0  0  0  0  0  0  0  0
   -5.2082    0.5362    1.6932 H   0  0  0  0  0  0  0  0  0  0  0  0
    1.8148   -2.3004    2.5132 H   0  0  0  0  0  0  0  0  0  0  0  0
    4.2148   -2.2847    3.0721 H   0  0  0  0  0  0  0  0  0  0  0  0
  1  2  1  0  0  0  0
  1 23  1  0  0  0  0
  1 24  1  0  0  0  0
  1 25  1  0  0  0  0
  2  3  2  0  0  0  0
  3  4  1  0  0  0  0
  3 26  1  0  0  0  0
  4  5  2  0  0  0  0
  4 27  1  0  0  0  0
  5  6  1  0  0  0  0
  5 21  1  0  0  0  0
  6  7  2  0  0  0  0
  6  8  2  0  0  0  0
  6  9  1  0  0  0  0
  9 10  1  0  0  0  0
  9 28  1  0  0  0  0
 10 11  1  0  0  0  0
 10 12  1  0  0  0  0
 10 29  1  6  0  0  0
 11 30  1  0  0  0  0
 11 31  1  0  0  0  0
 11 32  1  0  0  0  0
 12 13  1  0  0  0  0
 12 14  1  0  0  0  0
 12 33  1  6  0  0  0
 13 34  1  0  0  0  0
 14 15  2  0  0  0  0
 14 16  1  0  0  0  0
 16 17  1  0  0  0  0
 17 18  1  0  0  0  0
 17 19  1  0  0  0  0
 17 20  1  0  0  0  0
 18 35  1  0  0  0  0
 18 36  1  0  0  0  0
 18 37  1  0  0  0  0
 19 38  1  0  0  0  0
 19 39  1  0  0  0  0
 19 40  1  0  0  0  0
 20 41  1  0  0  0  0
 20 42  1  0  0  0  0
 20 43  1  0  0  0  0
 21 22  2  0  0  0  0
 21 44  1  0  0  0  0
 22  2  1  0  0  0  0
 22 45  1  0  0  0  0
M  END
>  <IDENTIFIER>
CNP0042093.2

>  <Energy>
598.318

$$$$
