
 OpenBabel09112509263D

101103  0  0  0  0  0  0  0  0999 V2000
    2.4875    3.3172   -2.7058 C   0  0  0  0  0  0  0  0  0  0  0  0
    2.4090    2.0870   -1.8141 C   0  0  0  0  0  0  0  0  0  0  0  0
    3.6245    1.4732   -1.1743 C   0  0  0  0  0  0  0  0  0  0  0  0
    4.8821    1.9224   -1.3522 C   0  0  0  0  0  0  0  0  0  0  0  0
    6.0337    1.2647   -0.6833 C   0  0  0  0  0  0  0  0  0  0  0  0
    7.3353    1.6319   -0.8059 C   0  0  0  0  0  0  0  0  0  0  0  0
    7.8133    2.7895   -1.6655 C   0  0  0  0  0  0  0  0  0  0  0  0
    8.3424    0.8434   -0.0400 C   0  0  0  0  0  0  0  0  0  0  0  0
    9.6630    1.0901   -0.0647 C   0  0  0  0  0  0  0  0  0  0  0  0
   10.6100    0.2689    0.7748 C   0  0  1  0  0  0  0  0  0  0  0  0
   11.8726    0.9265    0.8923 O   0  0  0  0  0  0  0  0  0  0  0  0
   11.1063    0.8773    2.0619 C   0  0  1  0  0  0  0  0  0  0  0  0
   10.5429    2.2309    2.5137 C   0  0  0  0  0  0  0  0  0  0  0  0
   11.5172   -0.1640    3.1269 C   0  0  0  0  0  0  0  0  0  0  0  0
   10.4488   -1.2660    3.1471 C   0  0  2  0  0  0  0  0  0  0  0  0
   10.5971   -2.1326    4.2415 O   0  0  0  0  0  0  0  0  0  0  0  0
   10.3515   -2.0633    1.8166 C   0  0  0  0  0  0  0  0  0  0  0  0
   10.8117   -1.2804    0.5420 C   0  0  0  0  0  0  0  0  0  0  0  0
   12.3043   -1.6097    0.2259 C   0  0  0  0  0  0  0  0  0  0  0  0
   10.0226   -1.8076   -0.6826 C   0  0  0  0  0  0  0  0  0  0  0  0
    1.1611    1.5865   -1.6410 C   0  0  0  0  0  0  0  0  0  0  0  0
    0.7751    0.3914   -0.8280 C   0  0  0  0  0  0  0  0  0  0  0  0
   -0.4908   -0.0732   -0.6999 C   0  0  0  0  0  0  0  0  0  0  0  0
   -1.6861    0.5458   -1.3529 C   0  0  0  0  0  0  0  0  0  0  0  0
   -2.9809    0.1301   -1.2898 C   0  0  0  0  0  0  0  0  0  0  0  0
   -3.3995   -1.0887   -0.4992 C   0  0  0  0  0  0  0  0  0  0  0  0
   -3.9664    0.9696   -2.0699 C   0  0  0  0  0  0  0  0  0  0  0  0
   -5.3028    0.8667   -2.2494 C   0  0  0  0  0  0  0  0  0  0  0  0
   -6.2330   -0.1519   -1.6943 C   0  0  0  0  0  0  0  0  0  0  0  0
   -7.5730   -0.1984   -1.9206 C   0  0  0  0  0  0  0  0  0  0  0  0
   -8.3311    0.7752   -2.8075 C   0  0  0  0  0  0  0  0  0  0  0  0
   -8.3813   -1.3046   -1.2601 C   0  0  0  0  0  0  0  0  0  0  0  0
   -9.4679   -0.8015   -0.2573 C   0  0  1  0  0  0  0  0  0  0  0  0
  -10.4330   -1.9796    0.2294 C   0  0  0  0  0  0  0  0  0  0  0  0
   -9.7117   -3.3273    0.5119 C   0  0  0  0  0  0  0  0  0  0  0  0
  -11.4542   -2.2760   -0.9062 C   0  0  0  0  0  0  0  0  0  0  0  0
  -11.2049   -1.5745    1.5353 C   0  0  0  0  0  0  0  0  0  0  0  0
  -11.4680   -0.0713    1.6195 C   0  0  2  0  0  0  0  0  0  0  0  0
  -12.1880    0.3452    0.4877 O   0  0  0  0  0  0  0  0  0  0  0  0
  -10.1225    0.6928    1.7338 C   0  0  0  0  0  0  0  0  0  0  0  0
   -8.9175    0.0919    0.9189 C   0  0  1  0  0  0  0  0  0  0  0  0
   -7.9566   -0.6912    1.8507 C   0  0  0  0  0  0  0  0  0  0  0  0
   -8.1867    1.1697    0.3778 O   0  0  0  0  0  0  0  0  0  0  0  0
    3.4903    3.7446   -2.8524 H   0  0  0  0  0  0  0  0  0  0  0  0
    1.8603    4.1252   -2.2709 H   0  0  0  0  0  0  0  0  0  0  0  0
    2.0938    3.0664   -3.7136 H   0  0  0  0  0  0  0  0  0  0  0  0
    3.5017    0.6143   -0.5283 H   0  0  0  0  0  0  0  0  0  0  0  0
    5.0630    2.7639   -1.9833 H   0  0  0  0  0  0  0  0  0  0  0  0
    5.7974    0.4181   -0.0412 H   0  0  0  0  0  0  0  0  0  0  0  0
    7.0293    3.3384   -2.2092 H   0  0  0  0  0  0  0  0  0  0  0  0
    8.5232    2.4087   -2.4292 H   0  0  0  0  0  0  0  0  0  0  0  0
    8.3336    3.5305   -1.0229 H   0  0  0  0  0  0  0  0  0  0  0  0
    7.9873    0.0311    0.5899 H   0  0  0  0  0  0  0  0  0  0  0  0
   10.0712    1.9103   -0.6454 H   0  0  0  0  0  0  0  0  0  0  0  0
   11.2691    2.7198    3.1956 H   0  0  0  0  0  0  0  0  0  0  0  0
    9.5882    2.0723    3.0566 H   0  0  0  0  0  0  0  0  0  0  0  0
   10.3663    2.9212    1.6623 H   0  0  0  0  0  0  0  0  0  0  0  0
   11.5473    0.3392    4.1175 H   0  0  0  0  0  0  0  0  0  0  0  0
   12.5266   -0.5818    2.9603 H   0  0  0  0  0  0  0  0  0  0  0  0
    9.4865   -0.7204    3.2850 H   0  0  0  0  0  0  0  0  0  0  0  0
   11.4981   -2.5422    4.1680 H   0  0  0  0  0  0  0  0  0  0  0  0
    9.2831   -2.3673    1.7448 H   0  0  0  0  0  0  0  0  0  0  0  0
   10.9264   -3.0141    1.8658 H   0  0  0  0  0  0  0  0  0  0  0  0
   12.4391   -2.6988    0.0480 H   0  0  0  0  0  0  0  0  0  0  0  0
   13.0026   -1.3362    1.0342 H   0  0  0  0  0  0  0  0  0  0  0  0
   12.6312   -1.0754   -0.6926 H   0  0  0  0  0  0  0  0  0  0  0  0
   10.2094   -2.8932   -0.8334 H   0  0  0  0  0  0  0  0  0  0  0  0
   10.3263   -1.2699   -1.6072 H   0  0  0  0  0  0  0  0  0  0  0  0
    8.9295   -1.6922   -0.5538 H   0  0  0  0  0  0  0  0  0  0  0  0
    0.3818    2.1237   -2.1579 H   0  0  0  0  0  0  0  0  0  0  0  0
    1.5369   -0.1646   -0.2973 H   0  0  0  0  0  0  0  0  0  0  0  0
   -0.6033   -0.9511   -0.0791 H   0  0  0  0  0  0  0  0  0  0  0  0
   -1.5127    1.4248   -1.9495 H   0  0  0  0  0  0  0  0  0  0  0  0
   -2.5793   -1.6112    0.0176 H   0  0  0  0  0  0  0  0  0  0  0  0
   -3.8507   -1.8348   -1.1851 H   0  0  0  0  0  0  0  0  0  0  0  0
   -4.1156   -0.7872    0.2930 H   0  0  0  0  0  0  0  0  0  0  0  0
   -3.5387    1.8219   -2.5958 H   0  0  0  0  0  0  0  0  0  0  0  0
   -5.7110    1.6437   -2.8772 H   0  0  0  0  0  0  0  0  0  0  0  0
   -5.8371   -0.9117   -1.0519 H   0  0  0  0  0  0  0  0  0  0  0  0
   -7.7200    1.5433   -3.3047 H   0  0  0  0  0  0  0  0  0  0  0  0
   -9.0941    1.3209   -2.2183 H   0  0  0  0  0  0  0  0  0  0  0  0
   -8.8439    0.2062   -3.6107 H   0  0  0  0  0  0  0  0  0  0  0  0
   -7.7125   -2.0108   -0.7267 H   0  0  0  0  0  0  0  0  0  0  0  0
   -8.8562   -1.8775   -2.0814 H   0  0  0  0  0  0  0  0  0  0  0  0
  -10.1122   -0.0969   -0.8241 H   0  0  0  0  0  0  0  0  0  0  0  0
   -9.2253   -3.7278   -0.4022 H   0  0  0  0  0  0  0  0  0  0  0  0
  -10.4439   -4.0930    0.8486 H   0  0  0  0  0  0  0  0  0  0  0  0
   -8.9377   -3.2507    1.2936 H   0  0  0  0  0  0  0  0  0  0  0  0
  -10.9475   -2.6305   -1.8268 H   0  0  0  0  0  0  0  0  0  0  0  0
  -12.0502   -1.3851   -1.1828 H   0  0  0  0  0  0  0  0  0  0  0  0
  -12.1657   -3.0720   -0.5973 H   0  0  0  0  0  0  0  0  0  0  0  0
  -10.6121   -1.8203    2.4406 H   0  0  0  0  0  0  0  0  0  0  0  0
  -12.1427   -2.1648    1.6284 H   0  0  0  0  0  0  0  0  0  0  0  0
  -12.0807    0.1512    2.5240 H   0  0  0  0  0  0  0  0  0  0  0  0
  -12.5519    1.2464    0.6895 H   0  0  0  0  0  0  0  0  0  0  0  0
   -9.8146    0.7622    2.8005 H   0  0  0  0  0  0  0  0  0  0  0  0
  -10.3320    1.7418    1.4274 H   0  0  0  0  0  0  0  0  0  0  0  0
   -7.5374   -0.0081    2.6204 H   0  0  0  0  0  0  0  0  0  0  0  0
   -7.0977   -1.1036    1.2834 H   0  0  0  0  0  0  0  0  0  0  0  0
   -8.4505   -1.4998    2.4085 H   0  0  0  0  0  0  0  0  0  0  0  0
   -7.9031    1.7659    1.1207 H   0  0  0  0  0  0  0  0  0  0  0  0
  1  2  1  0  0  0  0
  1 44  1  0  0  0  0
  1 45  1  0  0  0  0
  1 46  1  0  0  0  0
  2  3  1  0  0  0  0
  2 21  2  3  0  0  0
  3  4  2  3  0  0  0
  3 47  1  0  0  0  0
  4  5  1  0  0  0  0
  4 48  1  0  0  0  0
  5  6  2  3  0  0  0
  5 49  1  0  0  0  0
  6  7  1  0  0  0  0
  6  8  1  0  0  0  0
  7 50  1  0  0  0  0
  7 51  1  0  0  0  0
  7 52  1  0  0  0  0
  8  9  2  3  0  0  0
  8 53  1  0  0  0  0
  9 54  1  0  0  0  0
 10  9  1  6  0  0  0
 10 11  1  0  0  0  0
 11 12  1  0  0  0  0
 12 13  1  1  0  0  0
 12 14  1  0  0  0  0
 12 10  1  0  0  0  0
 13 55  1  0  0  0  0
 13 56  1  0  0  0  0
 13 57  1  0  0  0  0
 14 15  1  0  0  0  0
 14 58  1  0  0  0  0
 14 59  1  0  0  0  0
 15 16  1  0  0  0  0
 15 17  1  0  0  0  0
 15 60  1  1  0  0  0
 16 61  1  0  0  0  0
 17 18  1  0  0  0  0
 17 62  1  0  0  0  0
 17 63  1  0  0  0  0
 18 19  1  0  0  0  0
 18 20  1  0  0  0  0
 18 10  1  0  0  0  0
 19 64  1  0  0  0  0
 19 65  1  0  0  0  0
 19 66  1  0  0  0  0
 20 67  1  0  0  0  0
 20 68  1  0  0  0  0
 20 69  1  0  0  0  0
 21 22  1  0  0  0  0
 21 70  1  0  0  0  0
 22 23  2  3  0  0  0
 22 71  1  0  0  0  0
 23 24  1  0  0  0  0
 23 72  1  0  0  0  0
 24 25  2  3  0  0  0
 24 73  1  0  0  0  0
 25 26  1  0  0  0  0
 25 27  1  0  0  0  0
 26 74  1  0  0  0  0
 26 75  1  0  0  0  0
 26 76  1  0  0  0  0
 27 28  2  3  0  0  0
 27 77  1  0  0  0  0
 28 29  1  0  0  0  0
 28 78  1  0  0  0  0
 29 30  2  3  0  0  0
 29 79  1  0  0  0  0
 30 31  1  0  0  0  0
 30 32  1  0  0  0  0
 31 80  1  0  0  0  0
 31 81  1  0  0  0  0
 31 82  1  0  0  0  0
 32 83  1  0  0  0  0
 32 84  1  0  0  0  0
 33 32  1  0  0  0  0
 33 34  1  0  0  0  0
 33 85  1  6  0  0  0
 34 35  1  0  0  0  0
 34 36  1  0  0  0  0
 34 37  1  0  0  0  0
 35 86  1  0  0  0  0
 35 87  1  0  0  0  0
 35 88  1  0  0  0  0
 36 89  1  0  0  0  0
 36 90  1  0  0  0  0
 36 91  1  0  0  0  0
 37 38  1  0  0  0  0
 37 92  1  0  0  0  0
 37 93  1  0  0  0  0
 38 39  1  0  0  0  0
 38 40  1  0  0  0  0
 38 94  1  1  0  0  0
 39 95  1  0  0  0  0
 40 41  1  0  0  0  0
 40 96  1  0  0  0  0
 40 97  1  0  0  0  0
 41 42  1  0  0  0  0
 41 43  1  6  0  0  0
 41 33  1  0  0  0  0
 42 98  1  0  0  0  0
 42 99  1  0  0  0  0
 42100  1  0  0  0  0
 43101  1  0  0  0  0
M  END
>  <IDENTIFIER>
CNP0086406.0

>  <Energy>
2467.02

$$$$
