
 OpenBabel09052515493D

 61 65  0  0  0  0  0  0  0  0999 V2000
    2.9284    0.3923    1.7580 C   0  0  0  0  0  0  0  0  0  0  0  0
    2.3488   -0.3244    0.4841 C   0  0  2  0  0  0  0  0  0  0  0  0
    2.8706   -1.7917    0.5281 C   0  0  0  0  0  0  0  0  0  0  0  0
    4.3906   -1.7780    0.5166 C   0  0  0  0  0  0  0  0  0  0  0  0
    5.0035   -2.4138    1.3609 O   0  0  0  0  0  0  0  0  0  0  0  0
    5.1544   -0.8425   -0.4081 C   0  0  2  0  0  0  0  0  0  0  0  0
    5.8773    0.0857    0.3711 O   0  0  0  0  0  0  0  0  0  0  0  0
    4.2079   -0.1578   -1.4416 C   0  0  1  0  0  0  0  0  0  0  0  0
    4.0023   -1.0348   -2.5294 O   0  0  0  0  0  0  0  0  0  0  0  0
    2.8195    0.3076   -0.8655 C   0  0  2  0  0  0  0  0  0  0  0  0
    2.5407    1.8351   -0.9270 C   0  0  0  0  0  0  0  0  0  0  0  0
    1.1770    2.2335   -0.2795 C   0  0  0  0  0  0  0  0  0  0  0  0
    0.1857    1.0486   -0.2822 C   0  0  1  0  0  0  0  0  0  0  0  0
    0.7590   -0.1809    0.5155 C   0  0  1  0  0  0  0  0  0  0  0  0
   -0.0373   -1.4420    0.0758 C   0  0  0  0  0  0  0  0  0  0  0  0
   -1.4823   -1.1258   -0.3803 C   0  0  0  0  0  0  0  0  0  0  0  0
   -2.1570    0.0486    0.3947 C   0  0  2  0  0  0  0  0  0  0  0  0
   -2.4368   -0.4348    1.8406 C   0  0  0  0  0  0  0  0  0  0  0  0
   -3.4908    0.5078   -0.2708 C   0  0  2  0  0  0  0  0  0  0  0  0
   -4.4864   -0.5387   -0.7469 C   0  0  0  0  0  0  0  0  0  0  0  0
   -5.6636   -0.7366   -0.1680 C   0  0  0  0  0  0  0  0  0  0  0  0
   -6.3177   -1.7668   -0.9325 C   0  0  0  0  0  0  0  0  0  0  0  0
   -7.4235   -2.2238   -0.6951 O   0  0  0  0  0  0  0  0  0  0  0  0
   -5.5556   -2.1611   -1.9636 O   0  0  0  0  0  0  0  0  0  0  0  0
   -4.3675   -1.4552   -1.9530 C   0  0  0  0  0  0  0  0  0  0  0  0
   -3.0320    1.4567   -1.3740 C   0  0  0  0  0  0  0  0  0  0  0  0
   -2.0554    2.3342   -0.6118 C   0  0  0  0  0  0  0  0  0  0  0  0
   -1.2459    1.3655    0.3016 C   0  0  2  0  0  0  0  0  0  0  0  0
   -1.1066    1.9398    1.5860 O   0  0  0  0  0  0  0  0  0  0  0  0
    4.0235    0.3665    1.8371 H   0  0  0  0  0  0  0  0  0  0  0  0
    2.5476   -0.1141    2.6712 H   0  0  0  0  0  0  0  0  0  0  0  0
    2.6646    1.4513    1.8581 H   0  0  0  0  0  0  0  0  0  0  0  0
    2.5243   -2.3512   -0.3601 H   0  0  0  0  0  0  0  0  0  0  0  0
    2.4987   -2.3341    1.4251 H   0  0  0  0  0  0  0  0  0  0  0  0
    5.9113   -1.4144   -0.9880 H   0  0  0  0  0  0  0  0  0  0  0  0
    5.5224    1.0012    0.2294 H   0  0  0  0  0  0  0  0  0  0  0  0
    4.7384    0.7048   -1.9007 H   0  0  0  0  0  0  0  0  0  0  0  0
    3.6642   -1.9002   -2.1878 H   0  0  0  0  0  0  0  0  0  0  0  0
    2.1122   -0.1137   -1.6167 H   0  0  0  0  0  0  0  0  0  0  0  0
    2.5266    2.0989   -2.0077 H   0  0  0  0  0  0  0  0  0  0  0  0
    3.3445    2.4344   -0.4483 H   0  0  0  0  0  0  0  0  0  0  0  0
    0.7895    3.1357   -0.7960 H   0  0  0  0  0  0  0  0  0  0  0  0
    1.3188    2.5461    0.7671 H   0  0  0  0  0  0  0  0  0  0  0  0
    0.0876    0.7780   -1.3568 H   0  0  0  0  0  0  0  0  0  0  0  0
    0.4896   -0.0278    1.5824 H   0  0  0  0  0  0  0  0  0  0  0  0
   -0.0264   -2.1583    0.9260 H   0  0  0  0  0  0  0  0  0  0  0  0
    0.4247   -1.9434   -0.7998 H   0  0  0  0  0  0  0  0  0  0  0  0
   -2.0682   -2.0642   -0.3328 H   0  0  0  0  0  0  0  0  0  0  0  0
   -1.4212   -0.8389   -1.4490 H   0  0  0  0  0  0  0  0  0  0  0  0
   -3.1132   -1.3162    1.8259 H   0  0  0  0  0  0  0  0  0  0  0  0
   -2.9311    0.3616    2.4366 H   0  0  0  0  0  0  0  0  0  0  0  0
   -1.5078   -0.7255    2.3690 H   0  0  0  0  0  0  0  0  0  0  0  0
   -4.0206    1.1383    0.4857 H   0  0  0  0  0  0  0  0  0  0  0  0
   -6.0504   -0.2224    0.7026 H   0  0  0  0  0  0  0  0  0  0  0  0
   -4.2760   -0.8578   -2.8840 H   0  0  0  0  0  0  0  0  0  0  0  0
   -3.5258   -2.1644   -1.8884 H   0  0  0  0  0  0  0  0  0  0  0  0
   -3.8600    2.0413   -1.8300 H   0  0  0  0  0  0  0  0  0  0  0  0
   -2.5021    0.9096   -2.1806 H   0  0  0  0  0  0  0  0  0  0  0  0
   -2.6965    2.9687    0.0443 H   0  0  0  0  0  0  0  0  0  0  0  0
   -1.4597    3.0331   -1.2335 H   0  0  0  0  0  0  0  0  0  0  0  0
   -0.8325    2.8883    1.4828 H   0  0  0  0  0  0  0  0  0  0  0  0
  1 30  1  0  0  0  0
  1 31  1  0  0  0  0
  1 32  1  0  0  0  0
  2  1  1  1  0  0  0
  2  3  1  0  0  0  0
  3  4  1  0  0  0  0
  3 33  1  0  0  0  0
  3 34  1  0  0  0  0
  4  5  2  0  0  0  0
  4  6  1  0  0  0  0
  6  7  1  0  0  0  0
  6  8  1  0  0  0  0
  6 35  1  6  0  0  0
  7 36  1  0  0  0  0
  8  9  1  0  0  0  0
  8 10  1  0  0  0  0
  8 37  1  6  0  0  0
  9 38  1  0  0  0  0
 10 11  1  0  0  0  0
 10  2  1  0  0  0  0
 10 39  1  6  0  0  0
 11 12  1  0  0  0  0
 11 40  1  0  0  0  0
 11 41  1  0  0  0  0
 12 42  1  0  0  0  0
 12 43  1  0  0  0  0
 13 12  1  0  0  0  0
 13 14  1  0  0  0  0
 13 44  1  6  0  0  0
 14 15  1  0  0  0  0
 14  2  1  0  0  0  0
 14 45  1  1  0  0  0
 15 16  1  0  0  0  0
 15 46  1  0  0  0  0
 15 47  1  0  0  0  0
 16 17  1  0  0  0  0
 16 48  1  0  0  0  0
 16 49  1  0  0  0  0
 17 18  1  1  0  0  0
 17 19  1  0  0  0  0
 18 50  1  0  0  0  0
 18 51  1  0  0  0  0
 18 52  1  0  0  0  0
 19 20  1  0  0  0  0
 19 26  1  0  0  0  0
 19 53  1  1  0  0  0
 20 21  2  0  0  0  0
 21 22  1  0  0  0  0
 21 54  1  0  0  0  0
 22 23  2  0  0  0  0
 22 24  1  0  0  0  0
 24 25  1  0  0  0  0
 25 20  1  0  0  0  0
 25 55  1  0  0  0  0
 25 56  1  0  0  0  0
 26 27  1  0  0  0  0
 26 57  1  0  0  0  0
 26 58  1  0  0  0  0
 27 28  1  0  0  0  0
 27 59  1  0  0  0  0
 27 60  1  0  0  0  0
 28 29  1  1  0  0  0
 28 13  1  0  0  0  0
 28 17  1  0  0  0  0
 29 61  1  0  0  0  0
M  END
>  <IDENTIFIER>
CNP0075768.1

>  <Energy>
1051.5

$$$$
