
 OpenBabel09072503053D

110114  0  0  0  0  0  0  0  0999 V2000
    6.3341    3.2307    2.1563 C   0  0  0  0  0  0  0  0  0  0  0  0
    5.5181    2.2777    1.6770 C   0  0  0  0  0  0  0  0  0  0  0  0
    5.4006    0.9958    2.4455 C   0  0  0  0  0  0  0  0  0  0  0  0
    4.5623   -0.0001    2.1100 C   0  0  0  0  0  0  0  0  0  0  0  0
    4.4787   -1.2531    2.9222 C   0  0  0  0  0  0  0  0  0  0  0  0
    3.7298   -2.3971    2.7534 C   0  0  0  0  0  0  0  0  0  0  0  0
    3.9635   -3.4860    3.7994 C   0  0  0  0  0  0  0  0  0  0  0  0
    2.8118   -3.7139    4.5661 O   0  0  0  0  0  0  0  0  0  0  0  0
    2.6998   -2.7434    1.6340 C   0  0  1  0  0  0  0  0  0  0  0  0
    1.3748   -3.2459    2.1433 C   0  0  0  0  0  0  0  0  0  0  0  0
    0.4622   -3.2974    0.9032 C   0  0  1  0  0  0  0  0  0  0  0  0
   -0.8808   -4.0215    1.3285 C   0  0  0  0  0  0  0  0  0  0  0  0
   -1.4617   -3.6134    3.0815 S   0  0  0  0  0  0  0  0  0  0  0  0
   -3.6147   -3.4259    2.9292 S   0  0  0  0  0  0  0  0  0  0  0  0
   -3.6763   -1.6689    2.3689 C   0  0  0  0  0  0  0  0  0  0  0  0
   -2.9989   -1.6987    1.0252 C   0  0  0  0  0  0  0  0  0  0  0  0
   -2.7629   -0.5984    0.0514 C   0  0  0  0  0  0  0  0  0  0  0  0
   -3.9569   -0.1508   -0.7638 C   0  0  0  0  0  0  0  0  0  0  0  0
   -3.8379    0.7707   -1.5568 O   0  0  0  0  0  0  0  0  0  0  0  0
   -5.3417   -0.7609   -0.5852 C   0  0  0  0  0  0  0  0  0  0  0  0
   -6.3692   -0.1195   -1.4993 C   0  0  0  0  0  0  0  0  0  0  0  0
   -6.8871   -0.8869   -2.5551 C   0  0  0  0  0  0  0  0  0  0  0  0
   -7.7903   -0.3370   -3.4548 C   0  0  0  0  0  0  0  0  0  0  0  0
   -8.1840    0.9896   -3.3218 C   0  0  0  0  0  0  0  0  0  0  0  0
   -7.6986    1.7843   -2.2704 C   0  0  0  0  0  0  0  0  0  0  0  0
   -6.7980    1.2327   -1.3341 C   0  0  0  0  0  0  0  0  0  0  0  0
   -6.3065    2.0561   -0.1630 C   0  0  0  0  0  0  0  0  0  0  0  0
   -6.8435    3.4536   -0.1048 C   0  0  0  0  0  0  0  0  0  0  0  0
   -6.4987    4.1666    0.8271 O   0  0  0  0  0  0  0  0  0  0  0  0
   -7.6779    3.9553   -1.0459 N   0  0  0  0  0  0  0  0  0  0  0  0
   -8.1660    3.2218   -2.2015 C   0  0  1  0  0  0  0  0  0  0  0  0
   -7.7530    3.9140   -3.4228 N   0  0  0  0  0  0  0  0  0  0  0  0
   -1.4329   -0.3094   -0.2472 C   0  0  0  0  0  0  0  0  0  0  0  0
   -1.0871   -0.0494   -1.6839 C   0  0  0  0  0  0  0  0  0  0  0  0
   -0.6084   -1.4425   -2.1567 C   0  0  0  0  0  0  0  0  0  0  0  0
    0.7415   -1.8475   -1.5020 C   0  0  1  0  0  0  0  0  0  0  0  0
    1.1732   -3.2013   -2.1218 C   0  0  0  0  0  0  0  0  0  0  0  0
    1.6279   -0.8305   -1.9326 O   0  0  0  0  0  0  0  0  0  0  0  0
    0.7470   -1.8856    0.1380 C   0  0  1  0  0  0  0  0  0  0  0  0
   -0.1364   -0.6140    0.5931 C   0  0  2  0  0  0  0  0  0  0  0  0
   -0.2554   -0.2702    2.1243 C   0  0  0  0  0  0  0  0  0  0  0  0
   -0.7723    1.1471    2.4581 C   0  0  0  0  0  0  0  0  0  0  0  0
    0.1956    2.2843    2.0879 C   0  0  0  0  0  0  0  0  0  0  0  0
    0.2622    2.4689    0.6994 O   0  0  0  0  0  0  0  0  0  0  0  0
    2.2608   -1.6426    0.6677 C   0  0  2  0  0  0  0  0  0  0  0  0
    3.2650   -1.4032   -0.2920 O   0  0  0  0  0  0  0  0  0  0  0  0
    4.7320    2.5603    0.3979 C   0  0  0  0  0  0  0  0  0  0  0  0
    5.1299    1.6829   -0.8043 C   0  0  0  0  0  0  0  0  0  0  0  0
    6.5812    1.8784   -1.1804 C   0  0  0  0  0  0  0  0  0  0  0  0
    7.0657    2.3416   -2.3606 C   0  0  0  0  0  0  0  0  0  0  0  0
    6.2214    2.7773   -3.5386 C   0  0  0  0  0  0  0  0  0  0  0  0
    8.5580    2.4420   -2.5498 C   0  0  0  0  0  0  0  0  0  0  0  0
    6.9023    3.0772    3.0690 H   0  0  0  0  0  0  0  0  0  0  0  0
    6.4509    4.1826    1.6471 H   0  0  0  0  0  0  0  0  0  0  0  0
    6.0177    0.8775    3.3331 H   0  0  0  0  0  0  0  0  0  0  0  0
    3.9776    0.1671    1.2467 H   0  0  0  0  0  0  0  0  0  0  0  0
    5.1434   -1.2316    3.7823 H   0  0  0  0  0  0  0  0  0  0  0  0
    4.7959   -3.2538    4.5015 H   0  0  0  0  0  0  0  0  0  0  0  0
    4.2525   -4.4259    3.2865 H   0  0  0  0  0  0  0  0  0  0  0  0
    2.6456   -2.8832    5.0854 H   0  0  0  0  0  0  0  0  0  0  0  0
    3.1066   -3.5958    1.0437 H   0  0  0  0  0  0  0  0  0  0  0  0
    0.9821   -2.5337    2.8921 H   0  0  0  0  0  0  0  0  0  0  0  0
    1.4725   -4.2486    2.6137 H   0  0  0  0  0  0  0  0  0  0  0  0
    0.9451   -4.0517    0.2508 H   0  0  0  0  0  0  0  0  0  0  0  0
   -0.6415   -5.1031    1.4255 H   0  0  0  0  0  0  0  0  0  0  0  0
   -1.6439   -4.0046    0.5240 H   0  0  0  0  0  0  0  0  0  0  0  0
   -3.1823   -0.9907    3.0944 H   0  0  0  0  0  0  0  0  0  0  0  0
   -4.7366   -1.3706    2.2848 H   0  0  0  0  0  0  0  0  0  0  0  0
   -3.4698   -2.5110    0.4302 H   0  0  0  0  0  0  0  0  0  0  0  0
   -2.0320   -2.0261    1.2468 H   0  0  0  0  0  0  0  0  0  0  0  0
   -5.6972   -0.6666    0.4563 H   0  0  0  0  0  0  0  0  0  0  0  0
   -5.2531   -1.8430   -0.8209 H   0  0  0  0  0  0  0  0  0  0  0  0
   -6.5795   -1.9177   -2.6922 H   0  0  0  0  0  0  0  0  0  0  0  0
   -8.1762   -0.9378   -4.2686 H   0  0  0  0  0  0  0  0  0  0  0  0
   -8.8792    1.4026   -4.0432 H   0  0  0  0  0  0  0  0  0  0  0  0
   -5.2067    2.1446   -0.1791 H   0  0  0  0  0  0  0  0  0  0  0  0
   -6.6077    1.5405    0.7740 H   0  0  0  0  0  0  0  0  0  0  0  0
   -8.0001    4.9325   -0.9397 H   0  0  0  0  0  0  0  0  0  0  0  0
   -9.2760    3.2102   -2.1488 H   0  0  0  0  0  0  0  0  0  0  0  0
   -6.7078    3.9577   -3.4640 H   0  0  0  0  0  0  0  0  0  0  0  0
   -8.1225    4.8932   -3.4143 H   0  0  0  0  0  0  0  0  0  0  0  0
   -0.3353    0.7605   -1.8047 H   0  0  0  0  0  0  0  0  0  0  0  0
   -1.9049    0.1928   -2.3682 H   0  0  0  0  0  0  0  0  0  0  0  0
   -0.4687   -1.3903   -3.2605 H   0  0  0  0  0  0  0  0  0  0  0  0
   -1.3927   -2.2112   -1.9672 H   0  0  0  0  0  0  0  0  0  0  0  0
    1.2325   -3.1271   -3.2296 H   0  0  0  0  0  0  0  0  0  0  0  0
    0.4212   -3.9872   -1.8988 H   0  0  0  0  0  0  0  0  0  0  0  0
    2.1615   -3.5343   -1.7562 H   0  0  0  0  0  0  0  0  0  0  0  0
    1.7922   -0.9166   -2.9090 H   0  0  0  0  0  0  0  0  0  0  0  0
    0.5195    0.2038    0.2480 H   0  0  0  0  0  0  0  0  0  0  0  0
    0.7105   -0.3488    2.6526 H   0  0  0  0  0  0  0  0  0  0  0  0
   -0.9039   -0.9825    2.6437 H   0  0  0  0  0  0  0  0  0  0  0  0
   -0.8832    1.1847    3.5646 H   0  0  0  0  0  0  0  0  0  0  0  0
   -1.7747    1.3282    2.0174 H   0  0  0  0  0  0  0  0  0  0  0  0
    1.1995    2.0722    2.5306 H   0  0  0  0  0  0  0  0  0  0  0  0
   -0.1713    3.2318    2.5355 H   0  0  0  0  0  0  0  0  0  0  0  0
    1.2226    2.5257    0.4558 H   0  0  0  0  0  0  0  0  0  0  0  0
    2.1956   -0.7582    1.2966 H   0  0  0  0  0  0  0  0  0  0  0  0
    3.5750   -2.2681   -0.6610 H   0  0  0  0  0  0  0  0  0  0  0  0
    4.8681    3.6181    0.0789 H   0  0  0  0  0  0  0  0  0  0  0  0
    3.6518    2.4314    0.6174 H   0  0  0  0  0  0  0  0  0  0  0  0
    4.4314    1.9240   -1.6219 H   0  0  0  0  0  0  0  0  0  0  0  0
    4.9906    0.6083   -0.5926 H   0  0  0  0  0  0  0  0  0  0  0  0
    7.2933    1.5989   -0.4083 H   0  0  0  0  0  0  0  0  0  0  0  0
    5.1315    2.7129   -3.3945 H   0  0  0  0  0  0  0  0  0  0  0  0
    6.4756    2.1524   -4.4201 H   0  0  0  0  0  0  0  0  0  0  0  0
    6.4543    3.8361   -3.7779 H   0  0  0  0  0  0  0  0  0  0  0  0
    9.1246    2.1051   -1.6553 H   0  0  0  0  0  0  0  0  0  0  0  0
    8.8364    3.4957   -2.7599 H   0  0  0  0  0  0  0  0  0  0  0  0
    8.8644    1.8091   -3.4092 H   0  0  0  0  0  0  0  0  0  0  0  0
  1  2  2  0  0  0  0
  1 53  1  0  0  0  0
  1 54  1  0  0  0  0
  2  3  1  0  0  0  0
  2 47  1  0  0  0  0
  3  4  2  0  0  0  0
  3 55  1  0  0  0  0
  4  5  1  0  0  0  0
  4 56  1  0  0  0  0
  5  6  2  0  0  0  0
  5 57  1  0  0  0  0
  6  7  1  0  0  0  0
  7  8  1  0  0  0  0
  7 58  1  0  0  0  0
  7 59  1  0  0  0  0
  8 60  1  0  0  0  0
  9  6  1  0  0  0  0
  9 10  1  0  0  0  0
  9 61  1  6  0  0  0
 10 62  1  0  0  0  0
 10 63  1  0  0  0  0
 11 10  1  0  0  0  0
 11 12  1  0  0  0  0
 11 64  1  6  0  0  0
 12 13  1  0  0  0  0
 12 65  1  0  0  0  0
 12 66  1  0  0  0  0
 13 14  1  0  0  0  0
 14 15  1  0  0  0  0
 15 16  1  0  0  0  0
 15 67  1  0  0  0  0
 15 68  1  0  0  0  0
 16 17  1  0  0  0  0
 16 69  1  0  0  0  0
 16 70  1  0  0  0  0
 17 18  1  0  0  0  0
 17 33  2  0  0  0  0
 18 19  2  0  0  0  0
 18 20  1  0  0  0  0
 20 21  1  0  0  0  0
 20 71  1  0  0  0  0
 20 72  1  0  0  0  0
 21 22  2  0  0  0  0
 22 23  1  0  0  0  0
 22 73  1  0  0  0  0
 23 24  2  0  0  0  0
 23 74  1  0  0  0  0
 24 25  1  0  0  0  0
 24 75  1  0  0  0  0
 25 26  2  0  0  0  0
 26 27  1  0  0  0  0
 26 21  1  0  0  0  0
 27 28  1  0  0  0  0
 27 76  1  0  0  0  0
 27 77  1  0  0  0  0
 28 29  2  0  0  0  0
 28 30  1  0  0  0  0
 30 31  1  0  0  0  0
 30 78  1  0  0  0  0
 31 32  1  0  0  0  0
 31 25  1  0  0  0  0
 31 79  1  1  0  0  0
 32 80  1  0  0  0  0
 32 81  1  0  0  0  0
 33 34  1  0  0  0  0
 34 35  1  0  0  0  0
 34 82  1  0  0  0  0
 34 83  1  0  0  0  0
 35 36  1  0  0  0  0
 35 84  1  0  0  0  0
 35 85  1  0  0  0  0
 36 37  1  0  0  0  0
 36 38  1  6  0  0  0
 37 86  1  0  0  0  0
 37 87  1  0  0  0  0
 37 88  1  0  0  0  0
 38 89  1  0  0  0  0
 39 36  1  0  0  0  0
 39 40  1  0  0  0  0
 39 45  1  0  0  0  0
 39 11  1  0  0  0  0
 40 41  1  0  0  0  0
 40 33  1  0  0  0  0
 40 90  1  0  0  0  0
 41 42  1  0  0  0  0
 41 91  1  0  0  0  0
 41 92  1  0  0  0  0
 42 43  1  0  0  0  0
 42 93  1  0  0  0  0
 42 94  1  0  0  0  0
 43 44  1  0  0  0  0
 43 95  1  0  0  0  0
 43 96  1  0  0  0  0
 44 97  1  0  0  0  0
 45 46  1  0  0  0  0
 45  9  1  0  0  0  0
 45 98  1  0  0  0  0
 46 99  1  0  0  0  0
 47 48  1  0  0  0  0
 47100  1  0  0  0  0
 47101  1  0  0  0  0
 48 49  1  0  0  0  0
 48102  1  0  0  0  0
 48103  1  0  0  0  0
 49 50  2  0  0  0  0
 49104  1  0  0  0  0
 50 51  1  0  0  0  0
 50 52  1  0  0  0  0
 51105  1  0  0  0  0
 51106  1  0  0  0  0
 51107  1  0  0  0  0
 52108  1  0  0  0  0
 52109  1  0  0  0  0
 52110  1  0  0  0  0
M  END
>  <IDENTIFIER>
CNP0156369.1

>  <Energy>
1606.34

$$$$
