
 OpenBabel09072511573D

 55 58  0  0  0  0  0  0  0  0999 V2000
   -5.3156    1.3767    3.4021 C   0  0  0  0  0  0  0  0  0  0  0  0
   -5.4771    1.0501    2.0700 O   0  0  0  0  0  0  0  0  0  0  0  0
   -4.5211    0.5450    1.2461 C   0  0  0  0  0  0  0  0  0  0  0  0
   -3.2484    0.1902    1.7360 C   0  0  0  0  0  0  0  0  0  0  0  0
   -2.2358   -0.2536    0.8741 C   0  0  0  0  0  0  0  0  0  0  0  0
   -0.9103   -0.6266    1.4479 C   0  0  0  0  0  0  0  0  0  0  0  0
   -0.9238   -1.2431    2.5035 O   0  0  0  0  0  0  0  0  0  0  0  0
    0.3023   -0.2707    0.8891 N   0  0  0  0  0  0  0  0  0  0  0  0
    0.4370    0.6718   -0.2233 C   0  0  0  0  0  0  0  0  0  0  0  0
    1.2512    0.0302   -1.3525 C   0  0  0  0  0  0  0  0  0  0  0  0
    2.6319   -0.4199   -0.8190 C   0  0  0  0  0  0  0  0  0  0  0  0
    2.3953   -1.4196    0.3506 C   0  0  0  0  0  0  0  0  0  0  0  0
    1.5589   -0.7546    1.4560 C   0  0  0  0  0  0  0  0  0  0  0  0
    3.4631   -1.0632   -1.9507 C   0  0  0  0  0  0  0  0  0  0  0  0
    4.8556   -1.3416   -1.4440 C   0  0  0  0  0  0  0  0  0  0  0  0
    5.4366   -2.3730   -1.7454 O   0  0  0  0  0  0  0  0  0  0  0  0
    5.4776   -0.3345   -0.5552 C   0  0  0  0  0  0  0  0  0  0  0  0
    6.8343   -0.3715   -0.1993 C   0  0  0  0  0  0  0  0  0  0  0  0
    7.3619    0.6184    0.6375 C   0  0  0  0  0  0  0  0  0  0  0  0
    6.5403    1.6423    1.1224 C   0  0  0  0  0  0  0  0  0  0  0  0
    5.1854    1.6767    0.7792 C   0  0  0  0  0  0  0  0  0  0  0  0
    4.6486    0.6864   -0.0487 C   0  0  0  0  0  0  0  0  0  0  0  0
    3.3228    0.6990   -0.3502 O   0  0  0  0  0  0  0  0  0  0  0  0
   -2.5156   -0.3791   -0.4939 C   0  0  0  0  0  0  0  0  0  0  0  0
   -3.7858   -0.0530   -1.0035 C   0  0  0  0  0  0  0  0  0  0  0  0
   -4.0941   -0.1879   -2.3215 O   0  0  0  0  0  0  0  0  0  0  0  0
   -3.2786   -0.7198   -3.2973 C   0  0  0  0  0  0  0  0  0  0  0  0
   -4.7906    0.4037   -0.1374 C   0  0  0  0  0  0  0  0  0  0  0  0
   -5.9975    0.6911   -0.6937 O   0  0  0  0  0  0  0  0  0  0  0  0
   -7.2323    0.3492   -0.1811 C   0  0  0  0  0  0  0  0  0  0  0  0
   -6.2656    1.7998    3.7892 H   0  0  0  0  0  0  0  0  0  0  0  0
   -4.5205    2.1446    3.5139 H   0  0  0  0  0  0  0  0  0  0  0  0
   -5.0611    0.4729    3.9953 H   0  0  0  0  0  0  0  0  0  0  0  0
   -3.0241    0.2871    2.7902 H   0  0  0  0  0  0  0  0  0  0  0  0
    0.9795    1.5684    0.1428 H   0  0  0  0  0  0  0  0  0  0  0  0
   -0.5208    1.0592   -0.6081 H   0  0  0  0  0  0  0  0  0  0  0  0
    1.3837    0.7715   -2.1722 H   0  0  0  0  0  0  0  0  0  0  0  0
    0.6948   -0.8425   -1.7585 H   0  0  0  0  0  0  0  0  0  0  0  0
    3.3577   -1.7621    0.7860 H   0  0  0  0  0  0  0  0  0  0  0  0
    1.8522   -2.3141   -0.0277 H   0  0  0  0  0  0  0  0  0  0  0  0
    2.1258    0.1052    1.8765 H   0  0  0  0  0  0  0  0  0  0  0  0
    1.4092   -1.4859    2.2791 H   0  0  0  0  0  0  0  0  0  0  0  0
    3.5597   -0.3019   -2.7560 H   0  0  0  0  0  0  0  0  0  0  0  0
    2.9915   -1.9694   -2.3892 H   0  0  0  0  0  0  0  0  0  0  0  0
    7.4824   -1.1543   -0.5729 H   0  0  0  0  0  0  0  0  0  0  0  0
    8.4091    0.5942    0.9095 H   0  0  0  0  0  0  0  0  0  0  0  0
    6.9522    2.4053    1.7700 H   0  0  0  0  0  0  0  0  0  0  0  0
    4.5501    2.4625    1.1687 H   0  0  0  0  0  0  0  0  0  0  0  0
   -1.7495   -0.7567   -1.1562 H   0  0  0  0  0  0  0  0  0  0  0  0
   -3.8166   -0.6979   -4.2670 H   0  0  0  0  0  0  0  0  0  0  0  0
   -3.0353   -1.7762   -3.0528 H   0  0  0  0  0  0  0  0  0  0  0  0
   -2.3475   -0.1227   -3.3926 H   0  0  0  0  0  0  0  0  0  0  0  0
   -8.0190    0.7277   -0.8649 H   0  0  0  0  0  0  0  0  0  0  0  0
   -7.4196    0.7831    0.8167 H   0  0  0  0  0  0  0  0  0  0  0  0
   -7.3143   -0.7582   -0.1360 H   0  0  0  0  0  0  0  0  0  0  0  0
  1  2  1  0  0  0  0
  1 31  1  0  0  0  0
  1 32  1  0  0  0  0
  1 33  1  0  0  0  0
  2  3  1  0  0  0  0
  3  4  2  0  0  0  0
  4  5  1  0  0  0  0
  4 34  1  0  0  0  0
  5  6  1  0  0  0  0
  5 24  2  0  0  0  0
  6  7  2  0  0  0  0
  6  8  1  0  0  0  0
  8  9  1  0  0  0  0
  9 10  1  0  0  0  0
  9 35  1  0  0  0  0
  9 36  1  0  0  0  0
 10 11  1  0  0  0  0
 10 37  1  0  0  0  0
 10 38  1  0  0  0  0
 11 12  1  0  0  0  0
 11 14  1  0  0  0  0
 12 13  1  0  0  0  0
 12 39  1  0  0  0  0
 12 40  1  0  0  0  0
 13  8  1  0  0  0  0
 13 41  1  0  0  0  0
 13 42  1  0  0  0  0
 14 15  1  0  0  0  0
 14 43  1  0  0  0  0
 14 44  1  0  0  0  0
 15 16  2  0  0  0  0
 15 17  1  0  0  0  0
 17 18  2  0  0  0  0
 18 19  1  0  0  0  0
 18 45  1  0  0  0  0
 19 20  2  0  0  0  0
 19 46  1  0  0  0  0
 20 21  1  0  0  0  0
 20 47  1  0  0  0  0
 21 22  2  0  0  0  0
 21 48  1  0  0  0  0
 22 23  1  0  0  0  0
 22 17  1  0  0  0  0
 23 11  1  0  0  0  0
 24 25  1  0  0  0  0
 24 49  1  0  0  0  0
 25 26  1  0  0  0  0
 25 28  2  0  0  0  0
 26 27  1  0  0  0  0
 27 50  1  0  0  0  0
 27 51  1  0  0  0  0
 27 52  1  0  0  0  0
 28 29  1  0  0  0  0
 28  3  1  0  0  0  0
 29 30  1  0  0  0  0
 30 53  1  0  0  0  0
 30 54  1  0  0  0  0
 30 55  1  0  0  0  0
M  END
>  <IDENTIFIER>
CNP0550665.0

>  <Energy>
453.114

$$$$
