
 OpenBabel09082513113D

 70 73  0  0  0  0  0  0  0  0999 V2000
    8.3833    1.3016    3.0177 C   0  0  0  0  0  0  0  0  0  0  0  0
    7.4224    0.8023    2.1639 O   0  0  0  0  0  0  0  0  0  0  0  0
    7.1414    1.3350    0.9461 C   0  0  0  0  0  0  0  0  0  0  0  0
    7.7783    2.2951    0.5318 O   0  0  0  0  0  0  0  0  0  0  0  0
    6.0341    0.7728    0.1334 C   0  0  0  0  0  0  0  0  0  0  0  0
    5.3047   -0.3356    0.5954 C   0  0  0  0  0  0  0  0  0  0  0  0
    4.2411   -0.8483   -0.1523 C   0  0  0  0  0  0  0  0  0  0  0  0
    3.8756   -0.2571   -1.3755 C   0  0  0  0  0  0  0  0  0  0  0  0
    2.6876   -0.7588   -2.1791 C   0  0  1  0  0  0  0  0  0  0  0  0
    2.9267   -2.1368   -2.8195 C   0  0  0  0  0  0  0  0  0  0  0  0
    2.7448   -3.2162   -1.8078 C   0  0  0  0  0  0  0  0  0  0  0  0
    3.5560   -4.1195   -1.6896 O   0  0  0  0  0  0  0  0  0  0  0  0
    1.6502   -3.1671   -1.0133 O   0  0  0  0  0  0  0  0  0  0  0  0
    0.9579   -2.0129   -0.8074 C   0  0  0  0  0  0  0  0  0  0  0  0
   -0.1742   -2.0547   -0.0086 C   0  0  0  0  0  0  0  0  0  0  0  0
   -0.8883   -0.8928    0.3106 C   0  0  0  0  0  0  0  0  0  0  0  0
   -0.4629    0.3740   -0.1970 C   0  0  0  0  0  0  0  0  0  0  0  0
   -1.2846    1.6315    0.0203 C   0  0  0  0  0  0  0  0  0  0  0  0
   -0.9377    2.6807   -0.5001 O   0  0  0  0  0  0  0  0  0  0  0  0
   -2.4799    1.5977    0.6766 O   0  0  0  0  0  0  0  0  0  0  0  0
   -3.4320    2.6162    0.6846 C   0  0  1  0  0  0  0  0  0  0  0  0
   -3.9796    2.9041   -0.7280 C   0  0  0  0  0  0  0  0  0  0  0  0
   -4.5487    2.3099    1.7209 C   0  0  0  0  0  0  0  0  0  0  0  0
   -5.0489    0.8534    1.8186 C   0  0  0  0  0  0  0  0  0  0  0  0
   -5.8131    0.2729    0.6163 C   0  0  0  0  0  0  0  0  0  0  0  0
   -6.0897   -1.2092    0.7893 C   0  0  0  0  0  0  0  0  0  0  0  0
   -6.6242   -1.6075    1.8138 O   0  0  0  0  0  0  0  0  0  0  0  0
   -5.7972   -2.2020   -0.3242 C   0  0  0  0  0  0  0  0  0  0  0  0
   -4.7588   -3.3082   -0.0062 C   0  0  0  0  0  0  0  0  0  0  0  0
   -3.2987   -2.8091    0.0227 C   0  0  0  0  0  0  0  0  0  0  0  0
   -3.0419   -1.8944    1.1827 C   0  0  0  0  0  0  0  0  0  0  0  0
   -2.0135   -1.0278    1.2663 C   0  0  0  0  0  0  0  0  0  0  0  0
    0.7242    0.4142   -0.9982 C   0  0  0  0  0  0  0  0  0  0  0  0
    1.2159    1.5841   -1.4774 O   0  0  0  0  0  0  0  0  0  0  0  0
    1.9203    2.4772   -0.6873 C   0  0  0  0  0  0  0  0  0  0  0  0
    1.4168   -0.7770   -1.3214 C   0  0  0  0  0  0  0  0  0  0  0  0
    4.6178    0.8415   -1.8440 C   0  0  0  0  0  0  0  0  0  0  0  0
    5.6854    1.3494   -1.0998 C   0  0  0  0  0  0  0  0  0  0  0  0
    8.4027    0.6890    3.9423 H   0  0  0  0  0  0  0  0  0  0  0  0
    8.1418    2.3514    3.2914 H   0  0  0  0  0  0  0  0  0  0  0  0
    9.3835    1.2599    2.5366 H   0  0  0  0  0  0  0  0  0  0  0  0
    5.5480   -0.8019    1.5418 H   0  0  0  0  0  0  0  0  0  0  0  0
    3.6906   -1.6911    0.2420 H   0  0  0  0  0  0  0  0  0  0  0  0
    2.5290   -0.0861   -3.0525 H   0  0  0  0  0  0  0  0  0  0  0  0
    3.8951   -2.2009   -3.3633 H   0  0  0  0  0  0  0  0  0  0  0  0
    2.1125   -2.2925   -3.5615 H   0  0  0  0  0  0  0  0  0  0  0  0
   -0.4678   -3.0095    0.4079 H   0  0  0  0  0  0  0  0  0  0  0  0
   -2.9589    3.5677    1.0185 H   0  0  0  0  0  0  0  0  0  0  0  0
   -4.4276    2.0319   -1.2218 H   0  0  0  0  0  0  0  0  0  0  0  0
   -3.1690    3.2580   -1.3957 H   0  0  0  0  0  0  0  0  0  0  0  0
   -4.7381    3.7138   -0.6784 H   0  0  0  0  0  0  0  0  0  0  0  0
   -5.3920    3.0255    1.6148 H   0  0  0  0  0  0  0  0  0  0  0  0
   -4.0908    2.5030    2.7175 H   0  0  0  0  0  0  0  0  0  0  0  0
   -5.7142    0.7791    2.7070 H   0  0  0  0  0  0  0  0  0  0  0  0
   -4.1712    0.2509    2.0442 H   0  0  0  0  0  0  0  0  0  0  0  0
   -5.2374    0.3773   -0.3106 H   0  0  0  0  0  0  0  0  0  0  0  0
   -6.7711    0.8269    0.5185 H   0  0  0  0  0  0  0  0  0  0  0  0
   -5.4718   -1.6763   -1.2475 H   0  0  0  0  0  0  0  0  0  0  0  0
   -6.7653   -2.6944   -0.5606 H   0  0  0  0  0  0  0  0  0  0  0  0
   -4.8139   -4.0360   -0.8453 H   0  0  0  0  0  0  0  0  0  0  0  0
   -5.0241   -3.8515    0.9263 H   0  0  0  0  0  0  0  0  0  0  0  0
   -3.1177   -2.2635   -0.9299 H   0  0  0  0  0  0  0  0  0  0  0  0
   -2.6035   -3.6712    0.0734 H   0  0  0  0  0  0  0  0  0  0  0  0
   -3.7903   -1.8624    1.9653 H   0  0  0  0  0  0  0  0  0  0  0  0
   -2.0133   -0.3367    2.1026 H   0  0  0  0  0  0  0  0  0  0  0  0
    2.2239    3.3473   -1.3045 H   0  0  0  0  0  0  0  0  0  0  0  0
    2.8257    1.9990   -0.2693 H   0  0  0  0  0  0  0  0  0  0  0  0
    1.3229    2.8351    0.1730 H   0  0  0  0  0  0  0  0  0  0  0  0
    4.3620    1.3180   -2.7821 H   0  0  0  0  0  0  0  0  0  0  0  0
    6.2274    2.2045   -1.4838 H   0  0  0  0  0  0  0  0  0  0  0  0
  1  2  1  0  0  0  0
  1 39  1  0  0  0  0
  1 40  1  0  0  0  0
  1 41  1  0  0  0  0
  2  3  1  0  0  0  0
  3  4  2  0  0  0  0
  3  5  1  0  0  0  0
  5  6  2  0  0  0  0
  6  7  1  0  0  0  0
  6 42  1  0  0  0  0
  7  8  2  0  0  0  0
  7 43  1  0  0  0  0
  8 37  1  0  0  0  0
  9  8  1  0  0  0  0
  9 10  1  0  0  0  0
  9 44  1  6  0  0  0
 10 11  1  0  0  0  0
 10 45  1  0  0  0  0
 10 46  1  0  0  0  0
 11 12  2  0  0  0  0
 11 13  1  0  0  0  0
 13 14  1  0  0  0  0
 14 15  2  0  0  0  0
 15 16  1  0  0  0  0
 15 47  1  0  0  0  0
 16 17  2  0  0  0  0
 17 18  1  0  0  0  0
 17 33  1  0  0  0  0
 18 19  2  0  0  0  0
 18 20  1  0  0  0  0
 20 21  1  0  0  0  0
 21 22  1  0  0  0  0
 21 23  1  0  0  0  0
 21 48  1  1  0  0  0
 22 49  1  0  0  0  0
 22 50  1  0  0  0  0
 22 51  1  0  0  0  0
 23 24  1  0  0  0  0
 23 52  1  0  0  0  0
 23 53  1  0  0  0  0
 24 25  1  0  0  0  0
 24 54  1  0  0  0  0
 24 55  1  0  0  0  0
 25 26  1  0  0  0  0
 25 56  1  0  0  0  0
 25 57  1  0  0  0  0
 26 27  2  0  0  0  0
 26 28  1  0  0  0  0
 28 29  1  0  0  0  0
 28 58  1  0  0  0  0
 28 59  1  0  0  0  0
 29 30  1  0  0  0  0
 29 60  1  0  0  0  0
 29 61  1  0  0  0  0
 30 31  1  0  0  0  0
 30 62  1  0  0  0  0
 30 63  1  0  0  0  0
 31 32  2  0  0  0  0
 31 64  1  0  0  0  0
 32 16  1  0  0  0  0
 32 65  1  0  0  0  0
 33 34  1  0  0  0  0
 33 36  2  0  0  0  0
 34 35  1  0  0  0  0
 35 66  1  0  0  0  0
 35 67  1  0  0  0  0
 35 68  1  0  0  0  0
 36  9  1  0  0  0  0
 36 14  1  0  0  0  0
 37 38  2  0  0  0  0
 37 69  1  0  0  0  0
 38  5  1  0  0  0  0
 38 70  1  0  0  0  0
M  END
>  <IDENTIFIER>
CNP0400401.3

>  <Energy>
632.548

$$$$
