
 OpenBabel09132504463D

 34 36  0  0  0  0  0  0  0  0999 V2000
    0.7869   -2.6058    1.4824 C   0  0  0  0  0  0  0  0  0  0  0  0
    1.3992   -1.3861    0.8690 C   0  0  0  0  0  0  0  0  0  0  0  0
    2.5932   -0.7956    1.2608 C   0  0  0  0  0  0  0  0  0  0  0  0
    2.7879    0.2757    0.4716 N   0  3  0  0  0  0  0  0  0  0  0  0
    3.8086    1.1703    0.4656 C   0  0  0  0  0  0  0  0  0  0  0  0
    3.7709    2.2121   -0.4723 C   0  0  0  0  0  0  0  0  0  0  0  0
    2.6883    2.3005   -1.3681 C   0  0  0  0  0  0  0  0  0  0  0  0
    1.6521    1.3540   -1.3266 C   0  0  0  0  0  0  0  0  0  0  0  0
    1.7428    0.3349   -0.3729 C   0  0  0  0  0  0  0  0  0  0  0  0
    0.8675   -0.6733   -0.1578 N   0  0  0  0  0  0  0  0  0  0  0  0
   -0.3855   -0.9431   -0.8760 C   0  0  0  0  0  0  0  0  0  0  0  0
   -1.5975   -0.2441   -0.2722 C   0  0  0  0  0  0  0  0  0  0  0  0
   -1.4421    0.5494    0.8897 C   0  0  0  0  0  0  0  0  0  0  0  0
   -2.5265    1.1983    1.4733 C   0  0  0  0  0  0  0  0  0  0  0  0
   -3.7919    1.0781    0.9178 C   0  0  0  0  0  0  0  0  0  0  0  0
   -3.9816    0.3072   -0.2253 C   0  0  0  0  0  0  0  0  0  0  0  0
   -2.9068   -0.3697   -0.8472 C   0  0  0  0  0  0  0  0  0  0  0  0
   -3.1845   -1.1490   -2.0260 N   0  3  0  0  0  0  0  0  0  0  0  0
   -4.2974   -1.2042   -2.4570 O   0  0  0  0  0  0  0  0  0  0  0  0
   -2.2438   -1.8155   -2.6570 O   0  5  0  0  0  0  0  0  0  0  0  0
    1.4210   -2.9844    2.3116 H   0  0  0  0  0  0  0  0  0  0  0  0
    0.6881   -3.4022    0.7165 H   0  0  0  0  0  0  0  0  0  0  0  0
   -0.2167   -2.3538    1.8846 H   0  0  0  0  0  0  0  0  0  0  0  0
    3.2576   -1.1196    2.0520 H   0  0  0  0  0  0  0  0  0  0  0  0
    4.6305    1.0832    1.1650 H   0  0  0  0  0  0  0  0  0  0  0  0
    4.5679    2.9434   -0.5065 H   0  0  0  0  0  0  0  0  0  0  0  0
    2.6542    3.1034   -2.0931 H   0  0  0  0  0  0  0  0  0  0  0  0
    0.8195    1.4234   -2.0133 H   0  0  0  0  0  0  0  0  0  0  0  0
   -0.5650   -2.0387   -0.8778 H   0  0  0  0  0  0  0  0  0  0  0  0
   -0.2576   -0.6262   -1.9316 H   0  0  0  0  0  0  0  0  0  0  0  0
   -0.4813    0.6779    1.3668 H   0  0  0  0  0  0  0  0  0  0  0  0
   -2.3830    1.7978    2.3632 H   0  0  0  0  0  0  0  0  0  0  0  0
   -4.6324    1.5845    1.3748 H   0  0  0  0  0  0  0  0  0  0  0  0
   -4.9850    0.2399   -0.6262 H   0  0  0  0  0  0  0  0  0  0  0  0
  1  2  1  0  0  0  0
  1 21  1  0  0  0  0
  1 22  1  0  0  0  0
  1 23  1  0  0  0  0
  2  3  2  0  0  0  0
  3  4  1  0  0  0  0
  3 24  1  0  0  0  0
  4  5  2  0  0  0  0
  5  6  1  0  0  0  0
  5 25  1  0  0  0  0
  6  7  2  0  0  0  0
  6 26  1  0  0  0  0
  7  8  1  0  0  0  0
  7 27  1  0  0  0  0
  8  9  2  0  0  0  0
  8 28  1  0  0  0  0
  9 10  1  0  0  0  0
  9  4  1  0  0  0  0
 10 11  1  0  0  0  0
 10  2  1  0  0  0  0
 11 12  1  0  0  0  0
 11 29  1  0  0  0  0
 11 30  1  0  0  0  0
 12 13  2  0  0  0  0
 13 14  1  0  0  0  0
 13 31  1  0  0  0  0
 14 15  2  0  0  0  0
 14 32  1  0  0  0  0
 15 16  1  0  0  0  0
 15 33  1  0  0  0  0
 16 17  2  0  0  0  0
 16 34  1  0  0  0  0
 17 18  1  0  0  0  0
 17 12  1  0  0  0  0
 18 19  2  0  0  0  0
 18 20  1  0  0  0  0
M  CHG  3   4   1  18   1  20  -1
M  END
>  <IDENTIFIER>
CNP0498354.0

>  <Energy>
358.943

$$$$
