
 OpenBabel09042517413D

 71 76  0  0  0  0  0  0  0  0999 V2000
    6.6756    0.7503   -0.9902 C   0  0  0  0  0  0  0  0  0  0  0  0
    5.7121    0.2689    0.0705 C   0  0  0  0  0  0  0  0  0  0  0  0
    5.3100    0.9798    1.1622 C   0  0  0  0  0  0  0  0  0  0  0  0
    5.7995    2.3641    1.5347 C   0  0  0  0  0  0  0  0  0  0  0  0
    4.2828    0.3551    2.0464 C   0  0  0  0  0  0  0  0  0  0  0  0
    3.9872    0.8689    3.1139 O   0  0  0  0  0  0  0  0  0  0  0  0
    3.5892   -0.7376    1.6201 O   0  0  0  0  0  0  0  0  0  0  0  0
    3.7438   -1.3110    0.3628 C   0  0  1  0  0  0  0  0  0  0  0  0
    2.6536   -0.7978   -0.6569 C   0  0  2  0  0  0  0  0  0  0  0  0
    2.8863   -1.4517   -2.0392 C   0  0  0  0  0  0  0  0  0  0  0  0
    2.7470    0.6033   -0.8467 O   0  0  0  0  0  0  0  0  0  0  0  0
    1.7143    1.1776   -0.0774 C   0  0  1  0  0  0  0  0  0  0  0  0
    1.4391    2.4968   -0.4753 O   0  0  0  0  0  0  0  0  0  0  0  0
    0.4784    0.2676   -0.1228 C   0  0  1  0  0  0  0  0  0  0  0  0
   -0.4611    0.5956   -1.3249 C   0  0  0  0  0  0  0  0  0  0  0  0
   -1.6668   -0.3555   -1.4981 C   0  0  0  0  0  0  0  0  0  0  0  0
   -2.8257   -0.4282   -0.4252 C   0  0  1  0  0  0  0  0  0  0  0  0
   -2.4958   -0.1505    1.0783 C   0  0  1  0  0  0  0  0  0  0  0  0
   -3.6251   -0.7724    1.9295 C   0  0  0  0  0  0  0  0  0  0  0  0
   -4.9766   -0.2794    1.4919 C   0  0  0  0  0  0  0  0  0  0  0  0
   -5.2077    0.2892    0.2875 C   0  0  0  0  0  0  0  0  0  0  0  0
   -6.5877    0.8613   -0.0109 C   0  0  0  0  0  0  0  0  0  0  0  0
   -7.0658    0.5052   -1.3967 C   0  0  0  0  0  0  0  0  0  0  0  0
   -6.2672   -0.0602   -2.3142 C   0  0  0  0  0  0  0  0  0  0  0  0
   -4.8342   -0.3131   -2.0366 C   0  0  0  0  0  0  0  0  0  0  0  0
   -4.2388   -1.0893   -2.7684 O   0  0  0  0  0  0  0  0  0  0  0  0
   -4.1520    0.3459   -0.8241 C   0  0  2  0  0  0  0  0  0  0  0  0
   -3.8620    1.8307   -1.1480 C   0  0  0  0  0  0  0  0  0  0  0  0
   -1.0655   -0.5117    1.5765 C   0  0  1  0  0  0  0  0  0  0  0  0
   -0.9855   -0.3360    2.9757 O   0  0  0  0  0  0  0  0  0  0  0  0
   -0.5991   -1.9693    1.2421 C   0  0  0  0  0  0  0  0  0  0  0  0
    0.9151   -1.9609    1.0545 C   0  0  0  0  0  0  0  0  0  0  0  0
    1.1768   -1.1042   -0.2043 C   0  0  2  0  0  0  0  0  0  0  0  0
   -0.2140    0.5069    1.0755 O   0  0  0  0  0  0  0  0  0  0  0  0
    5.2209   -1.1562   -0.0593 C   0  0  0  0  0  0  0  0  0  0  0  0
    7.0365    1.7838   -0.8707 H   0  0  0  0  0  0  0  0  0  0  0  0
    6.1815    0.6911   -1.9818 H   0  0  0  0  0  0  0  0  0  0  0  0
    7.5652    0.0852   -0.9967 H   0  0  0  0  0  0  0  0  0  0  0  0
    6.5662    2.7919    0.8702 H   0  0  0  0  0  0  0  0  0  0  0  0
    6.2453    2.3269    2.5511 H   0  0  0  0  0  0  0  0  0  0  0  0
    4.9389    3.0651    1.5505 H   0  0  0  0  0  0  0  0  0  0  0  0
    3.5863   -2.4068    0.4637 H   0  0  0  0  0  0  0  0  0  0  0  0
    3.8695   -1.1684   -2.4647 H   0  0  0  0  0  0  0  0  0  0  0  0
    2.1218   -1.1034   -2.7674 H   0  0  0  0  0  0  0  0  0  0  0  0
    2.8264   -2.5589   -1.9643 H   0  0  0  0  0  0  0  0  0  0  0  0
    2.0909    1.2288    0.9646 H   0  0  0  0  0  0  0  0  0  0  0  0
    1.5260    2.5328   -1.4638 H   0  0  0  0  0  0  0  0  0  0  0  0
    0.1454    0.5299   -2.2554 H   0  0  0  0  0  0  0  0  0  0  0  0
   -0.8439    1.6345   -1.2404 H   0  0  0  0  0  0  0  0  0  0  0  0
   -1.2710   -1.3757   -1.6377 H   0  0  0  0  0  0  0  0  0  0  0  0
   -2.1031   -0.1412   -2.4915 H   0  0  0  0  0  0  0  0  0  0  0  0
   -3.1184   -1.5047   -0.4564 H   0  0  0  0  0  0  0  0  0  0  0  0
   -2.5603    0.9484    1.2449 H   0  0  0  0  0  0  0  0  0  0  0  0
   -3.4973   -0.4252    2.9756 H   0  0  0  0  0  0  0  0  0  0  0  0
   -3.6099   -1.8837    1.9254 H   0  0  0  0  0  0  0  0  0  0  0  0
   -5.7811   -0.3520    2.2186 H   0  0  0  0  0  0  0  0  0  0  0  0
   -6.5716    1.9687    0.0629 H   0  0  0  0  0  0  0  0  0  0  0  0
   -7.3219    0.4892    0.7363 H   0  0  0  0  0  0  0  0  0  0  0  0
   -8.1000    0.7133   -1.6542 H   0  0  0  0  0  0  0  0  0  0  0  0
   -6.6842   -0.3474   -3.2752 H   0  0  0  0  0  0  0  0  0  0  0  0
   -3.1547    1.9198   -1.9967 H   0  0  0  0  0  0  0  0  0  0  0  0
   -3.4291    2.3592   -0.2738 H   0  0  0  0  0  0  0  0  0  0  0  0
   -4.7836    2.3717   -1.4473 H   0  0  0  0  0  0  0  0  0  0  0  0
   -1.4214   -1.0983    3.4366 H   0  0  0  0  0  0  0  0  0  0  0  0
   -1.0446   -2.3512    0.3067 H   0  0  0  0  0  0  0  0  0  0  0  0
   -0.9264   -2.6896    2.0217 H   0  0  0  0  0  0  0  0  0  0  0  0
    1.2926   -2.9927    0.8898 H   0  0  0  0  0  0  0  0  0  0  0  0
    1.3767   -1.5443    1.9718 H   0  0  0  0  0  0  0  0  0  0  0  0
    0.6987   -1.6923   -1.0100 H   0  0  0  0  0  0  0  0  0  0  0  0
    5.4764   -1.6222   -1.0324 H   0  0  0  0  0  0  0  0  0  0  0  0
    5.8002   -1.7290    0.6992 H   0  0  0  0  0  0  0  0  0  0  0  0
  1  2  1  0  0  0  0
  1 36  1  0  0  0  0
  1 37  1  0  0  0  0
  1 38  1  0  0  0  0
  2  3  2  0  0  0  0
  3  4  1  0  0  0  0
  3  5  1  0  0  0  0
  4 39  1  0  0  0  0
  4 40  1  0  0  0  0
  4 41  1  0  0  0  0
  5  6  2  0  0  0  0
  5  7  1  0  0  0  0
  7  8  1  0  0  0  0
  8  9  1  0  0  0  0
  8 35  1  0  0  0  0
  8 42  1  1  0  0  0
  9 10  1  6  0  0  0
  9 11  1  0  0  0  0
 10 43  1  0  0  0  0
 10 44  1  0  0  0  0
 10 45  1  0  0  0  0
 11 12  1  0  0  0  0
 12 13  1  0  0  0  0
 12 46  1  1  0  0  0
 13 47  1  0  0  0  0
 14 12  1  0  0  0  0
 14 15  1  0  0  0  0
 14 34  1  1  0  0  0
 15 16  1  0  0  0  0
 15 48  1  0  0  0  0
 15 49  1  0  0  0  0
 16 50  1  0  0  0  0
 16 51  1  0  0  0  0
 17 16  1  0  0  0  0
 17 18  1  0  0  0  0
 17 52  1  6  0  0  0
 18 19  1  0  0  0  0
 18 29  1  0  0  0  0
 18 53  1  1  0  0  0
 19 20  1  0  0  0  0
 19 54  1  0  0  0  0
 19 55  1  0  0  0  0
 20 21  2  0  0  0  0
 20 56  1  0  0  0  0
 21 22  1  0  0  0  0
 22 23  1  0  0  0  0
 22 57  1  0  0  0  0
 22 58  1  0  0  0  0
 23 24  2  0  0  0  0
 23 59  1  0  0  0  0
 24 25  1  0  0  0  0
 24 60  1  0  0  0  0
 25 26  2  0  0  0  0
 25 27  1  0  0  0  0
 27 28  1  6  0  0  0
 27 17  1  0  0  0  0
 27 21  1  0  0  0  0
 28 61  1  0  0  0  0
 28 62  1  0  0  0  0
 28 63  1  0  0  0  0
 29 30  1  1  0  0  0
 29 31  1  0  0  0  0
 29 34  1  0  0  0  0
 30 64  1  0  0  0  0
 31 32  1  0  0  0  0
 31 65  1  0  0  0  0
 31 66  1  0  0  0  0
 32 67  1  0  0  0  0
 32 68  1  0  0  0  0
 33 32  1  0  0  0  0
 33  9  1  0  0  0  0
 33 14  1  0  0  0  0
 33 69  1  6  0  0  0
 35  2  1  0  0  0  0
 35 70  1  0  0  0  0
 35 71  1  0  0  0  0
M  END
>  <IDENTIFIER>
CNP0600254.2

>  <Energy>
1052.19

$$$$
