
 OpenBabel09062508363D

 15 16  0  0  0  0  0  0  0  0999 V2000
   -2.7112    0.5128   -0.1743 C   0  0  0  0  0  0  0  0  0  0  0  0
   -1.3867    0.7632   -0.4591 C   0  0  0  0  0  0  0  0  0  0  0  0
   -0.6481   -0.1688    0.1676 N   0  0  0  0  0  0  0  0  0  0  0  0
    0.7780   -0.3034    0.1579 C   0  0  0  0  0  0  0  0  0  0  0  0
    1.6745    0.4957   -0.5149 C   0  0  0  0  0  0  0  0  0  0  0  0
    2.9018   -0.0451   -0.2022 C   0  0  0  0  0  0  0  0  0  0  0  0
    2.7199   -1.1050    0.6121 N   0  0  0  0  0  0  0  0  0  0  0  0
    1.4381   -1.2325    0.8073 O   0  0  0  0  0  0  0  0  0  0  0  0
   -1.5213   -0.9626    0.8160 C   0  0  0  0  0  0  0  0  0  0  0  0
   -2.7975   -0.5701    0.6252 N   0  0  0  0  0  0  0  0  0  0  0  0
   -3.5606    1.0824   -0.5266 H   0  0  0  0  0  0  0  0  0  0  0  0
   -0.9991    1.5644   -1.0748 H   0  0  0  0  0  0  0  0  0  0  0  0
    1.4712    1.3505   -1.1454 H   0  0  0  0  0  0  0  0  0  0  0  0
    3.8655    0.3075   -0.5440 H   0  0  0  0  0  0  0  0  0  0  0  0
   -1.2392   -1.8162    1.4191 H   0  0  0  0  0  0  0  0  0  0  0  0
  1  2  2  0  0  0  0
  1 11  1  0  0  0  0
  2  3  1  0  0  0  0
  2 12  1  0  0  0  0
  3  4  1  0  0  0  0
  3  9  1  0  0  0  0
  4  5  2  0  0  0  0
  5  6  1  0  0  0  0
  5 13  1  0  0  0  0
  6  7  2  0  0  0  0
  6 14  1  0  0  0  0
  7  8  1  0  0  0  0
  8  4  1  0  0  0  0
  9 10  2  0  0  0  0
  9 15  1  0  0  0  0
 10  1  1  0  0  0  0
M  END
>  <IDENTIFIER>
CNP0296057.0

>  <Energy>
321.404

$$$$
