
 OpenBabel09082505153D

 42 46  0  0  0  0  0  0  0  0999 V2000
   -2.0140   -4.5376   -0.4690 C   0  0  0  0  0  0  0  0  0  0  0  0
   -1.5671   -3.2358   -0.3700 O   0  0  0  0  0  0  0  0  0  0  0  0
   -2.3518   -2.1355   -0.2192 C   0  0  0  0  0  0  0  0  0  0  0  0
   -3.7538   -2.2201   -0.1414 C   0  0  0  0  0  0  0  0  0  0  0  0
   -4.5240   -1.0694    0.0120 C   0  0  0  0  0  0  0  0  0  0  0  0
   -3.9189    0.1913    0.0919 C   0  0  0  0  0  0  0  0  0  0  0  0
   -4.6933    1.2885    0.2394 O   0  0  0  0  0  0  0  0  0  0  0  0
   -2.5078    0.3002    0.0154 C   0  0  0  0  0  0  0  0  0  0  0  0
   -1.7335   -0.8775   -0.1414 C   0  0  0  0  0  0  0  0  0  0  0  0
   -0.4092   -0.8064   -0.2205 O   0  0  0  0  0  0  0  0  0  0  0  0
    0.2577    0.3378   -0.1626 C   0  0  0  0  0  0  0  0  0  0  0  0
    1.6466    0.3440   -0.2666 C   0  0  0  0  0  0  0  0  0  0  0  0
    2.3675    1.4988   -0.1994 C   0  0  0  0  0  0  0  0  0  0  0  0
    1.7505    2.7329   -0.0348 C   0  0  0  0  0  0  0  0  0  0  0  0
    0.3371    2.7893    0.0641 C   0  0  0  0  0  0  0  0  0  0  0  0
   -0.3096    3.9758    0.2237 O   0  0  0  0  0  0  0  0  0  0  0  0
    0.2814    5.2194    0.3132 C   0  0  0  0  0  0  0  0  0  0  0  0
   -0.4198    1.5751   -0.0023 C   0  0  0  0  0  0  0  0  0  0  0  0
   -1.8299    1.5402    0.0876 C   0  0  0  0  0  0  0  0  0  0  0  0
   -2.4608    2.5756    0.2249 O   0  0  0  0  0  0  0  0  0  0  0  0
    3.6892    1.2867   -0.3082 O   0  0  0  0  0  0  0  0  0  0  0  0
    3.9440   -0.0482   -0.5832 C   0  0  1  0  0  0  0  0  0  0  0  0
    4.8950   -0.6055    0.3084 O   0  0  0  0  0  0  0  0  0  0  0  0
    4.2977   -1.7871    0.7972 C   0  0  0  0  0  0  0  0  0  0  0  0
    2.8296   -1.4720    0.9241 C   0  0  0  0  0  0  0  0  0  0  0  0
    2.6040   -0.7796   -0.3940 C   0  0  1  0  0  0  0  0  0  0  0  0
   -1.1414   -5.2130   -0.5827 H   0  0  0  0  0  0  0  0  0  0  0  0
   -2.6687   -4.6517   -1.3591 H   0  0  0  0  0  0  0  0  0  0  0  0
   -2.5666   -4.8250    0.4508 H   0  0  0  0  0  0  0  0  0  0  0  0
   -4.2617   -3.1734   -0.1990 H   0  0  0  0  0  0  0  0  0  0  0  0
   -5.6018   -1.1597    0.0688 H   0  0  0  0  0  0  0  0  0  0  0  0
   -5.6586    1.2394    0.2914 H   0  0  0  0  0  0  0  0  0  0  0  0
    2.3632    3.6227    0.0123 H   0  0  0  0  0  0  0  0  0  0  0  0
   -0.5087    5.9870    0.4407 H   0  0  0  0  0  0  0  0  0  0  0  0
    0.8467    5.4435   -0.6162 H   0  0  0  0  0  0  0  0  0  0  0  0
    0.9588    5.2593    1.1930 H   0  0  0  0  0  0  0  0  0  0  0  0
    4.3016   -0.1260   -1.6338 H   0  0  0  0  0  0  0  0  0  0  0  0
    4.7220   -2.0762    1.7822 H   0  0  0  0  0  0  0  0  0  0  0  0
    4.4712   -2.6132    0.0694 H   0  0  0  0  0  0  0  0  0  0  0  0
    2.7474   -0.7405    1.7631 H   0  0  0  0  0  0  0  0  0  0  0  0
    2.1559   -2.3315    1.1251 H   0  0  0  0  0  0  0  0  0  0  0  0
    2.4441   -1.4920   -1.2342 H   0  0  0  0  0  0  0  0  0  0  0  0
  1  2  1  0  0  0  0
  1 27  1  0  0  0  0
  1 28  1  0  0  0  0
  1 29  1  0  0  0  0
  2  3  1  0  0  0  0
  3  4  2  0  0  0  0
  4  5  1  0  0  0  0
  4 30  1  0  0  0  0
  5  6  2  0  0  0  0
  5 31  1  0  0  0  0
  6  7  1  0  0  0  0
  6  8  1  0  0  0  0
  7 32  1  0  0  0  0
  8  9  2  0  0  0  0
  9 10  1  0  0  0  0
  9  3  1  0  0  0  0
 10 11  1  0  0  0  0
 11 12  2  0  0  0  0
 12 13  1  0  0  0  0
 13 14  2  0  0  0  0
 13 21  1  0  0  0  0
 14 15  1  0  0  0  0
 14 33  1  0  0  0  0
 15 16  1  0  0  0  0
 15 18  2  0  0  0  0
 16 17  1  0  0  0  0
 17 34  1  0  0  0  0
 17 35  1  0  0  0  0
 17 36  1  0  0  0  0
 18 19  1  0  0  0  0
 18 11  1  0  0  0  0
 19 20  2  0  0  0  0
 19  8  1  0  0  0  0
 22 21  1  0  0  0  0
 22 23  1  0  0  0  0
 22 37  1  6  0  0  0
 23 24  1  0  0  0  0
 24 25  1  0  0  0  0
 24 38  1  0  0  0  0
 24 39  1  0  0  0  0
 25 40  1  0  0  0  0
 25 41  1  0  0  0  0
 26 25  1  0  0  0  0
 26 22  1  0  0  0  0
 26 12  1  0  0  0  0
 26 42  1  6  0  0  0
M  END
>  <IDENTIFIER>
CNP0433472.0

>  <Energy>
466.194

$$$$
