
 OpenBabel09072505272D

136135  0  0  0  0  0  0  0  0999 V2000
   11.6913    6.7500    0.0000 C   0  0  0  0  0  0  0  0  0  0  0  0
   10.3923    6.0000    0.0000 C   0  0  0  0  0  0  0  0  0  0  0  0
    9.0933    5.2500    0.0000 C   0  0  0  0  0  0  0  0  0  0  0  0
    7.7942    4.5000    0.0000 C   0  0  0  0  0  0  0  0  0  0  0  0
    6.4952    3.7500    0.0000 C   0  0  0  0  0  0  0  0  0  0  0  0
    5.1962    3.0000    0.0000 C   0  0  0  0  0  0  0  0  0  0  0  0
    3.5237    2.9636   -0.0223 C   0  0  0  0  0  0  0  0  0  0  0  0
    2.7363    1.4679   -0.0148 C   0  0  0  0  0  0  0  0  0  0  0  0
    1.0766    1.2171    0.1139 C   0  0  0  0  0  0  0  0  0  0  0  0
    0.3920   -0.2825    0.0190 C   0  0  0  0  0  0  0  0  0  0  0  0
    1.1674   -1.1936   -0.2245 O   0  0  0  0  0  0  0  0  0  0  0  0
   -1.0069   -0.6301    0.1911 O   0  0  0  0  0  0  0  0  0  0  0  0
   -1.6507   -1.9330   -0.0695 C   0  0  0  0  0  0  0  0  0  0  0  0
   -3.2591   -2.2889    0.2931 C   0  0  2  0  0  0  0  0  0  0  0  0
   -3.7283   -3.8555   -0.1474 C   0  0  0  0  0  0  0  0  0  0  0  0
   -4.9980   -4.5652    0.1493 O   0  0  0  0  0  0  0  0  0  0  0  0
   -5.1962   -6.0000    0.0000 C   0  0  0  0  0  0  0  0  0  0  0  0
   -4.1428   -6.6223   -0.1741 O   0  0  0  0  0  0  0  0  0  0  0  0
   -6.4952   -6.7500    0.0000 C   0  0  0  0  0  0  0  0  0  0  0  0
   -7.7942   -7.5000    0.0000 C   0  0  0  0  0  0  0  0  0  0  0  0
   -9.0933   -8.2500    0.0000 C   0  0  0  0  0  0  0  0  0  0  0  0
  -10.3923   -9.0000    0.0000 C   0  0  0  0  0  0  0  0  0  0  0  0
  -11.6913   -9.7500    0.0000 C   0  0  0  0  0  0  0  0  0  0  0  0
  -13.3253  -10.0914   -0.1891 C   0  0  0  0  0  0  0  0  0  0  0  0
  -13.9522  -11.6399    0.1342 C   0  0  0  0  0  0  0  0  0  0  0  0
  -15.5885  -12.0000    0.0000 C   0  0  0  0  0  0  0  0  0  0  0  0
  -16.8875  -12.7500    0.0000 C   0  0  0  0  0  2  0  0  0  0  0  0
  -18.1865  -13.5000    0.0000 C   0  0  0  0  0  0  0  0  0  0  0  0
  -19.4856  -14.2500    0.0000 C   0  0  0  0  0  0  0  0  0  0  0  0
  -20.7846  -15.0000    0.0000 C   0  0  0  0  0  2  0  0  0  0  0  0
  -22.0836  -15.7500    0.0000 C   0  0  0  0  0  0  0  0  0  0  0  0
  -23.7242  -16.0942   -0.1235 C   0  0  0  0  0  0  0  0  0  0  0  0
  -24.3694  -17.6151    0.2819 C   0  0  0  0  0  0  0  0  0  0  0  0
  -25.9808  -18.0000    0.0000 C   0  0  0  0  0  0  0  0  0  0  0  0
  -27.2798  -18.7500    0.0000 C   0  0  0  0  0  0  0  0  0  0  0  0
  -28.5788  -19.5000    0.0000 C   0  0  0  0  0  0  0  0  0  0  0  0
  -29.8779  -20.2500    0.0000 C   0  0  0  0  0  0  0  0  0  0  0  0
  -29.3288  -18.2010    0.0000 C   0  0  0  0  0  0  0  0  0  0  0  0
   -4.0218   -1.2255   -0.2237 O   0  0  0  0  0  0  0  0  0  0  0  0
   -5.3474   -0.8629   -0.0918 C   0  0  0  0  0  0  0  0  0  0  0  0
   -6.2304   -1.7030   -0.0407 O   0  0  0  0  0  0  0  0  0  0  0  0
   -5.6521    0.6347    0.1075 C   0  0  0  0  0  0  0  0  0  0  0  0
   -7.0745    1.2998   -0.1330 C   0  0  0  0  0  0  0  0  0  0  0  0
   -7.0027    2.7978    0.3518 C   0  0  0  0  0  0  0  0  0  0  0  0
   -7.8399    4.0332   -0.1719 C   0  0  0  0  0  0  0  0  0  0  0  0
   -9.3376    4.5061    0.1377 C   0  0  0  0  0  0  0  0  0  0  0  0
   -9.3481    6.0933    0.0000 C   0  0  0  0  0  0  0  0  0  0  0  0
  -10.0981    7.3923    0.0000 C   0  0  0  0  0  0  0  0  0  0  0  0
  -10.8481    8.6913    0.0000 C   0  0  0  0  0  0  0  0  0  0  0  0
  -11.5981    9.9904    0.0000 C   0  0  0  0  0  0  0  0  0  0  0  0
  -11.4254   10.8766   -1.2608 C   0  0  0  0  0  0  0  0  0  0  0  0
  -12.8971    9.2404    0.0000 C   0  0  0  0  0  0  0  0  0  0  0  0
   12.3333    6.0925    0.6574 H   0  0  0  0  0  0  0  0  0  0  0  0
   11.3315    7.6573    0.5430 H   0  0  0  0  0  0  0  0  0  0  0  0
   12.6179    7.2850    0.0000 H   0  0  0  0  0  0  0  0  0  0  0  0
   10.9965    5.2378   -0.5940 H   0  0  0  0  0  0  0  0  0  0  0  0
   10.3559    5.9368    1.1262 H   0  0  0  0  0  0  0  0  0  0  0  0
    9.0370    5.3671   -1.1229 H   0  0  0  0  0  0  0  0  0  0  0  0
    9.5820    4.2374    0.2140 H   0  0  0  0  0  0  0  0  0  0  0  0
    7.3146    5.5268   -0.1334 H   0  0  0  0  0  0  0  0  0  0  0  0
    7.8692    4.3266    1.1199 H   0  0  0  0  0  0  0  0  0  0  0  0
    5.9268    4.4313    0.7118 H   0  0  0  0  0  0  0  0  0  0  0  0
    6.3101    4.0474   -1.0679 H   0  0  0  0  0  0  0  0  0  0  0  0
    5.3398    2.4054    0.9350 H   0  0  0  0  0  0  0  0  0  0  0  0
    5.3824    2.2379   -0.7976 H   0  0  0  0  0  0  0  0  0  0  0  0
    3.1798    3.5271    0.8703 H   0  0  0  0  0  0  0  0  0  0  0  0
    3.1769    3.5144   -0.9214 H   0  0  0  0  0  0  0  0  0  0  0  0
    3.0528    0.9647   -0.9525 H   0  0  0  0  0  0  0  0  0  0  0  0
    3.1798    0.8938    0.8255 H   0  0  0  0  0  0  0  0  0  0  0  0
    0.7788    1.6443    1.0939 H   0  0  0  0  0  0  0  0  0  0  0  0
    0.5944    1.8287   -0.6767 H   0  0  0  0  0  0  0  0  0  0  0  0
   -1.5319   -2.1265   -1.1574 H   0  0  0  0  0  0  0  0  0  0  0  0
   -1.0473   -2.7114    0.4512 H   0  0  0  0  0  0  0  0  0  0  0  0
   -3.3368   -2.2343    1.3986 H   0  0  0  0  0  0  0  0  0  0  0  0
   -3.5704   -3.9304   -1.2459 H   0  0  0  0  0  0  0  0  0  0  0  0
   -2.9312   -4.4735    0.3133 H   0  0  0  0  0  0  0  0  0  0  0  0
   -6.5955   -6.5308    1.0894 H   0  0  0  0  0  0  0  0  0  0  0  0
   -5.9113   -7.6762   -0.3040 H   0  0  0  0  0  0  0  0  0  0  0  0
   -7.7087   -7.6699   -1.1199 H   0  0  0  0  0  0  0  0  0  0  0  0
   -7.3907   -8.4129    0.5732 H   0  0  0  0  0  0  0  0  0  0  0  0
   -9.2057   -8.1229    1.1258 H   0  0  0  0  0  0  0  0  0  0  0  0
   -9.5326   -7.2969   -0.4522 H   0  0  0  0  0  0  0  0  0  0  0  0
  -10.4038   -8.9826   -1.1255 H   0  0  0  0  0  0  0  0  0  0  0  0
  -11.0538   -8.1699    0.4138 H   0  0  0  0  0  0  0  0  0  0  0  0
  -11.3550  -10.6678   -0.5473 H   0  0  0  0  0  0  0  0  0  0  0  0
  -11.6466  -10.0816    1.0668 H   0  0  0  0  0  0  0  0  0  0  0  0
  -13.8768   -9.3754    0.4563 H   0  0  0  0  0  0  0  0  0  0  0  0
  -13.5882   -9.8553   -1.2413 H   0  0  0  0  0  0  0  0  0  0  0  0
  -13.6551  -11.8982    1.1720 H   0  0  0  0  0  0  0  0  0  0  0  0
  -13.4171  -12.3391   -0.5428 H   0  0  0  0  0  0  0  0  0  0  0  0
  -15.7090  -11.5987   -1.0279 H   0  0  0  0  0  0  0  0  0  0  0  0
  -15.9380  -11.1959    0.6808 H   0  0  0  0  0  0  0  0  0  0  0  0
  -17.8174  -14.0557    0.8959 H   0  0  0  0  0  0  0  0  0  0  0  0
  -17.8174  -14.0556   -0.8960 H   0  0  0  0  0  0  0  0  0  0  0  0
  -19.8547  -13.6943   -0.8959 H   0  0  0  0  0  0  0  0  0  0  0  0
  -19.8547  -13.6944    0.8960 H   0  0  0  0  0  0  0  0  0  0  0  0
  -21.9605  -16.1509    1.0277 H   0  0  0  0  0  0  0  0  0  0  0  0
  -21.7409  -16.5578   -0.6799 H   0  0  0  0  0  0  0  0  0  0  0  0
  -24.0144  -15.8763   -1.1719 H   0  0  0  0  0  0  0  0  0  0  0  0
  -24.2555  -15.3621    0.5217 H   0  0  0  0  0  0  0  0  0  0  0  0
  -23.7740  -18.3774   -0.2651 H   0  0  0  0  0  0  0  0  0  0  0  0
  -24.1723  -17.7633    1.3637 H   0  0  0  0  0  0  0  0  0  0  0  0
  -25.9232  -17.8555   -1.1048 H   0  0  0  0  0  0  0  0  0  0  0  0
  -26.3819  -17.0241    0.3674 H   0  0  0  0  0  0  0  0  0  0  0  0
  -26.6877  -19.6747   -0.2421 H   0  0  0  0  0  0  0  0  0  0  0  0
  -27.2554  -18.7626    1.1252 H   0  0  0  0  0  0  0  0  0  0  0  0
  -28.4897  -19.7810   -1.0909 H   0  0  0  0  0  0  0  0  0  0  0  0
  -30.1144  -20.1404    1.0914 H   0  0  0  0  0  0  0  0  0  0  0  0
  -29.4392  -21.2772   -0.0743 H   0  0  0  0  0  0  0  0  0  0  0  0
  -30.8046  -20.7850    0.0000 H   0  0  0  0  0  0  0  0  0  0  0  0
  -29.0314  -17.6686   -0.9535 H   0  0  0  0  0  0  0  0  0  0  0  0
  -29.1998  -17.8412    1.0573 H   0  0  0  0  0  0  0  0  0  0  0  0
  -29.8638  -17.2744    0.0000 H   0  0  0  0  0  0  0  0  0  0  0  0
   -5.3141    0.8650    1.1405 H   0  0  0  0  0  0  0  0  0  0  0  0
   -4.9539    1.1706   -0.5731 H   0  0  0  0  0  0  0  0  0  0  0  0
   -7.2800    1.2525   -1.2235 H   0  0  0  0  0  0  0  0  0  0  0  0
   -7.8882    0.7795    0.4149 H   0  0  0  0  0  0  0  0  0  0  0  0
   -6.9823    2.8088    1.4630 H   0  0  0  0  0  0  0  0  0  0  0  0
   -5.9817    3.1112    0.0291 H   0  0  0  0  0  0  0  0  0  0  0  0
   -7.6827    4.1179   -1.2697 H   0  0  0  0  0  0  0  0  0  0  0  0
   -7.2202    4.8407    0.2810 H   0  0  0  0  0  0  0  0  0  0  0  0
   -9.6218    4.2602    1.1834 H   0  0  0  0  0  0  0  0  0  0  0  0
  -10.0372    4.0026   -0.5615 H   0  0  0  0  0  0  0  0  0  0  0  0
   -8.7072    6.2429   -0.9064 H   0  0  0  0  0  0  0  0  0  0  0  0
   -8.6769    6.3451    0.8540 H   0  0  0  0  0  0  0  0  0  0  0  0
  -10.8531    6.8777    0.6570 H   0  0  0  0  0  0  0  0  0  0  0  0
  -10.5098    7.1956   -1.0250 H   0  0  0  0  0  0  0  0  0  0  0  0
   -9.9324    9.1677   -0.4266 H   0  0  0  0  0  0  0  0  0  0  0  0
  -10.6592    8.7903    1.1083 H   0  0  0  0  0  0  0  0  0  0  0  0
  -11.4535   10.6373    0.9063 H   0  0  0  0  0  0  0  0  0  0  0  0
  -10.4083   11.3224   -1.2702 H   0  0  0  0  0  0  0  0  0  0  0  0
  -11.5577   10.2930   -2.1974 H   0  0  0  0  0  0  0  0  0  0  0  0
  -12.1652   11.7048   -1.2448 H   0  0  0  0  0  0  0  0  0  0  0  0
  -13.5471   10.1368    0.1087 H   0  0  0  0  0  0  0  0  0  0  0  0
  -12.9434    8.8930   -1.0671 H   0  0  0  0  0  0  0  0  0  0  0  0
  -13.8237    8.7054    0.0000 H   0  0  0  0  0  0  0  0  0  0  0  0
  1  2  1  0  0  0  0
  1 53  1  0  0  0  0
  1 54  1  0  0  0  0
  1 55  1  0  0  0  0
  2  3  1  0  0  0  0
  2 56  1  0  0  0  0
  2 57  1  0  0  0  0
  3  4  1  0  0  0  0
  3 58  1  0  0  0  0
  3 59  1  0  0  0  0
  4  5  1  0  0  0  0
  4 60  1  0  0  0  0
  4 61  1  0  0  0  0
  5  6  1  0  0  0  0
  5 62  1  0  0  0  0
  5 63  1  0  0  0  0
  6  7  1  0  0  0  0
  6 64  1  0  0  0  0
  6 65  1  0  0  0  0
  7  8  1  0  0  0  0
  7 66  1  0  0  0  0
  7 67  1  0  0  0  0
  8  9  1  0  0  0  0
  8 68  1  0  0  0  0
  8 69  1  0  0  0  0
  9 10  1  0  0  0  0
  9 70  1  0  0  0  0
  9 71  1  0  0  0  0
 10 11  2  0  0  0  0
 10 12  1  0  0  0  0
 12 13  1  0  0  0  0
 13 72  1  0  0  0  0
 13 73  1  0  0  0  0
 14 13  1  0  0  0  0
 14 15  1  0  0  0  0
 14 39  1  0  0  0  0
 14 74  1  1  0  0  0
 15 16  1  0  0  0  0
 15 75  1  0  0  0  0
 15 76  1  0  0  0  0
 16 17  1  0  0  0  0
 17 18  2  0  0  0  0
 17 19  1  0  0  0  0
 19 20  1  0  0  0  0
 19 77  1  0  0  0  0
 19 78  1  0  0  0  0
 20 21  1  0  0  0  0
 20 79  1  0  0  0  0
 20 80  1  0  0  0  0
 21 22  1  0  0  0  0
 21 81  1  0  0  0  0
 21 82  1  0  0  0  0
 22 23  1  0  0  0  0
 22 83  1  0  0  0  0
 22 84  1  0  0  0  0
 23 24  1  0  0  0  0
 23 85  1  0  0  0  0
 23 86  1  0  0  0  0
 24 25  1  0  0  0  0
 24 87  1  0  0  0  0
 24 88  1  0  0  0  0
 25 26  1  0  0  0  0
 25 89  1  0  0  0  0
 25 90  1  0  0  0  0
 26 27  1  0  0  0  0
 26 91  1  0  0  0  0
 26 92  1  0  0  0  0
 27 28  1  0  0  0  0
 28 29  1  0  0  0  0
 28 93  1  0  0  0  0
 28 94  1  0  0  0  0
 29 30  1  0  0  0  0
 29 95  1  0  0  0  0
 29 96  1  0  0  0  0
 30 31  1  0  0  0  0
 31 32  1  0  0  0  0
 31 97  1  0  0  0  0
 31 98  1  0  0  0  0
 32 33  1  0  0  0  0
 32 99  1  0  0  0  0
 32100  1  0  0  0  0
 33 34  1  0  0  0  0
 33101  1  0  0  0  0
 33102  1  0  0  0  0
 34 35  1  0  0  0  0
 34103  1  0  0  0  0
 34104  1  0  0  0  0
 35 36  1  0  0  0  0
 35105  1  0  0  0  0
 35106  1  0  0  0  0
 36 37  1  0  0  0  0
 36 38  1  0  0  0  0
 36107  1  0  0  0  0
 37108  1  0  0  0  0
 37109  1  0  0  0  0
 37110  1  0  0  0  0
 38111  1  0  0  0  0
 38112  1  0  0  0  0
 38113  1  0  0  0  0
 39 40  1  0  0  0  0
 40 41  2  0  0  0  0
 40 42  1  0  0  0  0
 42 43  1  0  0  0  0
 42114  1  0  0  0  0
 42115  1  0  0  0  0
 43 44  1  0  0  0  0
 43116  1  0  0  0  0
 43117  1  0  0  0  0
 44 45  1  0  0  0  0
 44118  1  0  0  0  0
 44119  1  0  0  0  0
 45 46  1  0  0  0  0
 45120  1  0  0  0  0
 45121  1  0  0  0  0
 46 47  1  0  0  0  0
 46122  1  0  0  0  0
 46123  1  0  0  0  0
 47 48  1  0  0  0  0
 47124  1  0  0  0  0
 47125  1  0  0  0  0
 48 49  1  0  0  0  0
 48126  1  0  0  0  0
 48127  1  0  0  0  0
 49 50  1  0  0  0  0
 49128  1  0  0  0  0
 49129  1  0  0  0  0
 50 51  1  0  0  0  0
 50 52  1  0  0  0  0
 50130  1  0  0  0  0
 51131  1  0  0  0  0
 51132  1  0  0  0  0
 51133  1  0  0  0  0
 52134  1  0  0  0  0
 52135  1  0  0  0  0
 52136  1  0  0  0  0
M  END
>  <IDENTIFIER>
CNP0591812.2

>  <Energy>
10463.4

$$$$
