
 OpenBabel09132512573D

 62 65  0  0  0  0  0  0  0  0999 V2000
   -4.0173    1.1670    2.7235 C   0  0  0  0  0  0  0  0  0  0  0  0
   -3.0452    1.2023    1.5629 C   0  0  0  0  0  0  0  0  0  0  0  0
   -1.7242    1.0181    1.8302 C   0  0  0  0  0  0  0  0  0  0  0  0
   -0.5317    1.0795    0.8870 C   0  0  2  0  0  0  0  0  0  0  0  0
   -0.5556    2.2365   -0.0860 C   0  0  0  0  0  0  0  0  0  0  0  0
    0.4473    2.3817   -0.9705 C   0  0  0  0  0  0  0  0  0  0  0  0
    0.3957    3.5135   -1.9719 C   0  0  0  0  0  0  0  0  0  0  0  0
    1.6269    1.4159   -0.8856 C   0  0  2  0  0  0  0  0  0  0  0  0
    2.5773    1.5403   -2.0959 C   0  0  0  0  0  0  0  0  0  0  0  0
    1.1558   -0.0696   -0.6767 C   0  0  1  0  0  0  0  0  0  0  0  0
    2.2017   -1.0372   -0.0028 C   0  0  1  0  0  0  0  0  0  0  0  0
    3.4760   -0.4073    0.6212 C   0  0  0  0  0  0  0  0  0  0  0  0
    4.4281   -1.4372    1.2840 C   0  0  0  0  0  0  0  0  0  0  0  0
    5.6024   -0.6988    1.9415 C   0  0  0  0  0  0  0  0  0  0  0  0
    4.9759   -2.4645    0.2785 C   0  0  0  0  0  0  0  0  0  0  0  0
    1.4777   -1.6807    1.0656 N   0  0  0  0  0  0  0  0  0  0  0  0
    0.2775   -1.2685    1.2027 C   0  0  0  0  0  0  0  0  0  0  0  0
   -0.5384   -1.7510    2.1618 O   0  0  0  0  0  0  0  0  0  0  0  0
   -0.1563   -0.2628    0.1777 C   0  0  1  0  0  0  0  0  0  0  0  0
   -1.1988   -0.8314   -0.5943 O   0  0  0  0  0  0  0  0  0  0  0  0
   -1.0909   -2.0718   -1.2028 C   0  0  0  0  0  0  0  0  0  0  0  0
   -0.0458   -2.7008   -1.1179 O   0  0  0  0  0  0  0  0  0  0  0  0
   -2.1568   -2.7645   -1.9719 C   0  0  0  0  0  0  0  0  0  0  0  0
   -3.3973   -2.3751   -2.2815 C   0  0  0  0  0  0  0  0  0  0  0  0
   -4.0517   -1.0962   -1.9116 C   0  0  1  0  0  0  0  0  0  0  0  0
   -5.2636   -1.4570   -1.2643 O   0  0  0  0  0  0  0  0  0  0  0  0
   -4.3265   -0.7823   -0.4870 C   0  0  2  0  0  0  0  0  0  0  0  0
   -4.7854    0.6459   -0.2298 C   0  0  0  0  0  0  0  0  0  0  0  0
   -3.6170    1.5281    0.1894 C   0  0  0  0  0  0  0  0  0  0  0  0
   -3.5179    0.9823    3.6982 H   0  0  0  0  0  0  0  0  0  0  0  0
   -4.7580    0.3544    2.5819 H   0  0  0  0  0  0  0  0  0  0  0  0
   -4.5494    2.1392    2.7900 H   0  0  0  0  0  0  0  0  0  0  0  0
   -1.4458    0.8582    2.8692 H   0  0  0  0  0  0  0  0  0  0  0  0
    0.3409    1.2950    1.5478 H   0  0  0  0  0  0  0  0  0  0  0  0
   -1.3835    2.9366   -0.0963 H   0  0  0  0  0  0  0  0  0  0  0  0
   -0.5244    4.1270   -1.8625 H   0  0  0  0  0  0  0  0  0  0  0  0
    0.4192    3.1138   -3.0057 H   0  0  0  0  0  0  0  0  0  0  0  0
    1.2656    4.1851   -1.8135 H   0  0  0  0  0  0  0  0  0  0  0  0
    2.1520    1.7382    0.0345 H   0  0  0  0  0  0  0  0  0  0  0  0
    2.0300    1.2948   -3.0312 H   0  0  0  0  0  0  0  0  0  0  0  0
    3.4346    0.8475   -2.0398 H   0  0  0  0  0  0  0  0  0  0  0  0
    2.9817    2.5705   -2.1751 H   0  0  0  0  0  0  0  0  0  0  0  0
    0.9120   -0.4567   -1.6907 H   0  0  0  0  0  0  0  0  0  0  0  0
    2.4987   -1.7862   -0.7640 H   0  0  0  0  0  0  0  0  0  0  0  0
    3.1604    0.3158    1.4057 H   0  0  0  0  0  0  0  0  0  0  0  0
    4.0603    0.1363   -0.1413 H   0  0  0  0  0  0  0  0  0  0  0  0
    3.8818   -1.9829    2.0847 H   0  0  0  0  0  0  0  0  0  0  0  0
    6.1904   -0.1401    1.1814 H   0  0  0  0  0  0  0  0  0  0  0  0
    6.2745   -1.4219    2.4511 H   0  0  0  0  0  0  0  0  0  0  0  0
    5.2284    0.0187    2.7024 H   0  0  0  0  0  0  0  0  0  0  0  0
    5.5214   -1.9554   -0.5453 H   0  0  0  0  0  0  0  0  0  0  0  0
    4.1633   -3.0818   -0.1528 H   0  0  0  0  0  0  0  0  0  0  0  0
    5.6722   -3.1633    0.7894 H   0  0  0  0  0  0  0  0  0  0  0  0
   -0.2317   -2.4112    2.7991 H   0  0  0  0  0  0  0  0  0  0  0  0
   -1.8772   -3.7443   -2.3547 H   0  0  0  0  0  0  0  0  0  0  0  0
   -3.9923   -3.0565   -2.8850 H   0  0  0  0  0  0  0  0  0  0  0  0
   -4.3397   -0.4146   -2.7394 H   0  0  0  0  0  0  0  0  0  0  0  0
   -3.9010   -1.4305    0.3086 H   0  0  0  0  0  0  0  0  0  0  0  0
   -5.5995    0.6610    0.5216 H   0  0  0  0  0  0  0  0  0  0  0  0
   -5.2164    1.0824   -1.1603 H   0  0  0  0  0  0  0  0  0  0  0  0
   -4.0003    2.5702    0.2410 H   0  0  0  0  0  0  0  0  0  0  0  0
   -2.8734    1.4718   -0.6247 H   0  0  0  0  0  0  0  0  0  0  0  0
  1  2  1  0  0  0  0
  1 30  1  0  0  0  0
  1 31  1  0  0  0  0
  1 32  1  0  0  0  0
  2  3  2  0  0  0  0
  3  4  1  0  0  0  0
  3 33  1  0  0  0  0
  4  5  1  0  0  0  0
  4 34  1  1  0  0  0
  5  6  2  0  0  0  0
  5 35  1  0  0  0  0
  6  7  1  0  0  0  0
  6  8  1  0  0  0  0
  7 36  1  0  0  0  0
  7 37  1  0  0  0  0
  7 38  1  0  0  0  0
  8  9  1  0  0  0  0
  8 39  1  1  0  0  0
  9 40  1  0  0  0  0
  9 41  1  0  0  0  0
  9 42  1  0  0  0  0
 10  8  1  0  0  0  0
 10 11  1  0  0  0  0
 10 43  1  6  0  0  0
 11 12  1  0  0  0  0
 11 16  1  0  0  0  0
 11 44  1  6  0  0  0
 12 13  1  0  0  0  0
 12 45  1  0  0  0  0
 12 46  1  0  0  0  0
 13 14  1  0  0  0  0
 13 15  1  0  0  0  0
 13 47  1  0  0  0  0
 14 48  1  0  0  0  0
 14 49  1  0  0  0  0
 14 50  1  0  0  0  0
 15 51  1  0  0  0  0
 15 52  1  0  0  0  0
 15 53  1  0  0  0  0
 16 17  2  0  0  0  0
 17 18  1  0  0  0  0
 18 54  1  0  0  0  0
 19 17  1  1  0  0  0
 19 20  1  0  0  0  0
 19  4  1  0  0  0  0
 19 10  1  0  0  0  0
 20 21  1  0  0  0  0
 21 22  2  0  0  0  0
 21 23  1  0  0  0  0
 23 24  2  0  0  0  0
 23 55  1  0  0  0  0
 24 25  1  0  0  0  0
 24 56  1  0  0  0  0
 25 26  1  0  0  0  0
 25 57  1  6  0  0  0
 26 27  1  0  0  0  0
 27 28  1  0  0  0  0
 27 25  1  0  0  0  0
 27 58  1  1  0  0  0
 28 29  1  0  0  0  0
 28 59  1  0  0  0  0
 28 60  1  0  0  0  0
 29  2  1  0  0  0  0
 29 61  1  0  0  0  0
 29 62  1  0  0  0  0
M  END
>  <IDENTIFIER>
CNP0602856.0

>  <Energy>
2039.22

$$$$
