
 OpenBabel09082504033D

 92 96  0  0  0  0  0  0  0  0999 V2000
    2.6438   -6.2363   -0.3863 C   0  0  0  0  0  0  0  0  0  0  0  0
    1.3485   -6.1006   -0.6939 C   0  0  0  0  0  0  0  0  0  0  0  0
    0.6302   -4.8239   -0.9879 C   0  0  0  0  0  0  0  0  0  0  0  0
    1.1052   -3.5335   -1.2678 C   0  0  0  0  0  0  0  0  0  0  0  0
    2.5425   -3.1232   -1.3774 C   0  0  0  0  0  0  0  0  0  0  0  0
    3.0712   -1.9116   -1.0551 C   0  0  0  0  0  0  0  0  0  0  0  0
    2.3813   -0.8432   -0.6096 N   0  0  0  0  0  0  0  0  0  0  0  0
    3.2403    0.1705   -0.3692 C   0  0  0  0  0  0  0  0  0  0  0  0
    2.8859    1.4245    0.0329 C   0  0  0  0  0  0  0  0  0  0  0  0
    1.4936    1.9613    0.2218 C   0  0  0  0  0  0  0  0  0  0  0  0
    1.1361    3.2926    0.0222 C   0  0  0  0  0  0  0  0  0  0  0  0
    2.0432    4.4467   -0.3216 C   0  0  0  0  0  0  0  0  0  0  0  0
   -0.2484    3.3602    0.1538 C   0  0  0  0  0  0  0  0  0  0  0  0
   -1.1055    4.5829   -0.0801 C   0  0  0  0  0  0  0  0  0  0  0  0
   -1.2359    4.8644   -1.5867 C   0  0  0  0  0  0  0  0  0  0  0  0
   -2.0888    6.0605   -1.9078 C   0  0  0  0  0  0  0  0  0  0  0  0
   -2.5901    6.7348   -1.0178 O   0  0  0  0  0  0  0  0  0  0  0  0
   -2.2883    6.3765   -3.2130 O   0  0  0  0  0  0  0  0  0  0  0  0
   -3.0343    7.4527   -3.6409 C   0  0  0  0  0  0  0  0  0  0  0  0
   -0.6875    2.0693    0.4381 C   0  0  0  0  0  0  0  0  0  0  0  0
   -2.1325    1.6603    0.5147 C   0  0  0  0  0  0  0  0  0  0  0  0
   -2.6574    0.4609    0.1384 C   0  0  0  0  0  0  0  0  0  0  0  0
   -1.9579   -0.6058   -0.3078 N   0  0  0  0  0  0  0  0  0  0  0  0
   -2.8210   -1.5873   -0.6532 C   0  0  0  0  0  0  0  0  0  0  0  0
   -2.4716   -2.8351   -1.0714 C   0  0  0  0  0  0  0  0  0  0  0  0
   -1.0830   -3.3928   -1.1676 C   0  0  0  0  0  0  0  0  0  0  0  0
   -0.7569   -4.7239   -0.9420 C   0  0  0  0  0  0  0  0  0  0  0  0
   -1.6948   -5.8528   -0.6077 C   0  0  0  0  0  0  0  0  0  0  0  0
    0.0479   -2.7018   -1.4220 N   0  0  0  0  0  0  0  0  0  0  0  0
   -4.1230   -1.1319   -0.4423 C   0  0  0  0  0  0  0  0  0  0  0  0
   -5.4225   -1.8572   -0.6750 C   0  0  0  0  0  0  0  0  0  0  0  0
   -4.0159    0.1526    0.0875 C   0  0  0  0  0  0  0  0  0  0  0  0
   -5.1769    1.0180    0.5220 C   0  0  0  0  0  0  0  0  0  0  0  0
   -5.2695    1.1358    2.0545 C   0  0  0  0  0  0  0  0  0  0  0  0
   -5.4860   -0.2150    2.6955 C   0  0  0  0  0  0  0  0  0  0  0  0
   -4.6065   -1.0639    2.6409 O   0  0  0  0  0  0  0  0  0  0  0  0
   -6.6694   -0.4877    3.3023 O   0  0  0  0  0  0  0  0  0  0  0  0
   -7.0033   -1.7345    3.7895 C   0  0  0  0  0  0  0  0  0  0  0  0
    0.3847    1.2519    0.5354 N   0  0  0  0  0  0  0  0  0  0  0  0
    4.5416   -0.2708   -0.6486 C   0  0  0  0  0  0  0  0  0  0  0  0
    5.8388    0.5080   -0.5348 C   0  0  0  0  0  0  0  0  0  0  0  0
    6.7570   -0.0287    0.5821 C   0  0  0  0  0  0  0  0  0  0  0  0
    6.2015    0.1500    1.9745 C   0  0  0  0  0  0  0  0  0  0  0  0
    5.1080    0.6690    2.1553 O   0  0  0  0  0  0  0  0  0  0  0  0
    6.9498   -0.2594    3.0299 O   0  0  0  0  0  0  0  0  0  0  0  0
    6.5644   -0.1080    4.3454 C   0  0  0  0  0  0  0  0  0  0  0  0
    4.4224   -1.5883   -1.0997 C   0  0  0  0  0  0  0  0  0  0  0  0
    5.5256   -2.4969   -1.5683 C   0  0  0  0  0  0  0  0  0  0  0  0
    3.0350   -7.2251   -0.1717 H   0  0  0  0  0  0  0  0  0  0  0  0
    3.3328   -5.4157   -0.2963 H   0  0  0  0  0  0  0  0  0  0  0  0
    0.7602   -7.0127   -0.6834 H   0  0  0  0  0  0  0  0  0  0  0  0
    3.2373   -3.8882   -1.6843 H   0  0  0  0  0  0  0  0  0  0  0  0
    1.3734   -0.8121   -0.4855 H   0  0  0  0  0  0  0  0  0  0  0  0
    3.6745    2.1514    0.1201 H   0  0  0  0  0  0  0  0  0  0  0  0
    3.1081    4.1586   -0.3682 H   0  0  0  0  0  0  0  0  0  0  0  0
    1.9394    5.2368    0.4503 H   0  0  0  0  0  0  0  0  0  0  0  0
    1.7872    4.8689   -1.3097 H   0  0  0  0  0  0  0  0  0  0  0  0
   -0.6757    5.4468    0.4712 H   0  0  0  0  0  0  0  0  0  0  0  0
   -2.1281    4.4230    0.3108 H   0  0  0  0  0  0  0  0  0  0  0  0
   -1.6943    3.9755   -2.0738 H   0  0  0  0  0  0  0  0  0  0  0  0
   -0.2447    5.0331   -2.0433 H   0  0  0  0  0  0  0  0  0  0  0  0
   -3.0395    7.4715   -4.7500 H   0  0  0  0  0  0  0  0  0  0  0  0
   -2.5867    8.3989   -3.2686 H   0  0  0  0  0  0  0  0  0  0  0  0
   -4.0809    7.3620   -3.2790 H   0  0  0  0  0  0  0  0  0  0  0  0
   -2.8427    2.4372    0.7625 H   0  0  0  0  0  0  0  0  0  0  0  0
   -0.9447   -0.6637   -0.3723 H   0  0  0  0  0  0  0  0  0  0  0  0
   -3.2679   -3.5432   -1.2313 H   0  0  0  0  0  0  0  0  0  0  0  0
   -2.7543   -5.5396   -0.5754 H   0  0  0  0  0  0  0  0  0  0  0  0
   -1.4360   -6.2607    0.3926 H   0  0  0  0  0  0  0  0  0  0  0  0
   -1.5959   -6.6561   -1.3663 H   0  0  0  0  0  0  0  0  0  0  0  0
    0.0920   -1.7138   -1.7215 H   0  0  0  0  0  0  0  0  0  0  0  0
   -5.2899   -2.8709   -1.0940 H   0  0  0  0  0  0  0  0  0  0  0  0
   -6.0414   -1.2783   -1.3914 H   0  0  0  0  0  0  0  0  0  0  0  0
   -5.9728   -1.9522    0.2838 H   0  0  0  0  0  0  0  0  0  0  0  0
   -6.1346    0.5732    0.1788 H   0  0  0  0  0  0  0  0  0  0  0  0
   -5.0963    2.0177    0.0456 H   0  0  0  0  0  0  0  0  0  0  0  0
   -6.1418    1.7841    2.2873 H   0  0  0  0  0  0  0  0  0  0  0  0
   -4.3632    1.6123    2.4840 H   0  0  0  0  0  0  0  0  0  0  0  0
   -8.0230   -1.6981    4.2243 H   0  0  0  0  0  0  0  0  0  0  0  0
   -6.2852   -2.0482    4.5768 H   0  0  0  0  0  0  0  0  0  0  0  0
   -6.9980   -2.4791    2.9631 H   0  0  0  0  0  0  0  0  0  0  0  0
    0.3533    0.2612    0.8196 H   0  0  0  0  0  0  0  0  0  0  0  0
    5.6693    1.5816   -0.3299 H   0  0  0  0  0  0  0  0  0  0  0  0
    6.3594    0.4551   -1.5145 H   0  0  0  0  0  0  0  0  0  0  0  0
    7.7177    0.5269    0.5337 H   0  0  0  0  0  0  0  0  0  0  0  0
    6.9778   -1.1030    0.4275 H   0  0  0  0  0  0  0  0  0  0  0  0
    7.3510   -0.5257    5.0065 H   0  0  0  0  0  0  0  0  0  0  0  0
    5.6129   -0.6507    4.5317 H   0  0  0  0  0  0  0  0  0  0  0  0
    6.4333    0.9697    4.5827 H   0  0  0  0  0  0  0  0  0  0  0  0
    6.5120   -1.9961   -1.5615 H   0  0  0  0  0  0  0  0  0  0  0  0
    5.3214   -2.8095   -2.6142 H   0  0  0  0  0  0  0  0  0  0  0  0
    5.5719   -3.3967   -0.9206 H   0  0  0  0  0  0  0  0  0  0  0  0
  1  2  2  0  0  0  0
  1 49  1  0  0  0  0
  1 50  1  0  0  0  0
  2  3  1  0  0  0  0
  2 51  1  0  0  0  0
  3  4  2  0  0  0  0
  4  5  1  0  0  0  0
  5  6  2  0  0  0  0
  5 52  1  0  0  0  0
  6  7  1  0  0  0  0
  7  8  1  0  0  0  0
  7 53  1  0  0  0  0
  8  9  2  0  0  0  0
  8 40  1  0  0  0  0
  9 10  1  0  0  0  0
  9 54  1  0  0  0  0
 10 11  2  0  0  0  0
 11 12  1  0  0  0  0
 11 13  1  0  0  0  0
 12 55  1  0  0  0  0
 12 56  1  0  0  0  0
 12 57  1  0  0  0  0
 13 14  1  0  0  0  0
 13 20  2  0  0  0  0
 14 15  1  0  0  0  0
 14 58  1  0  0  0  0
 14 59  1  0  0  0  0
 15 16  1  0  0  0  0
 15 60  1  0  0  0  0
 15 61  1  0  0  0  0
 16 17  2  0  0  0  0
 16 18  1  0  0  0  0
 18 19  1  0  0  0  0
 19 62  1  0  0  0  0
 19 63  1  0  0  0  0
 19 64  1  0  0  0  0
 20 21  1  0  0  0  0
 20 39  1  0  0  0  0
 21 22  2  0  0  0  0
 21 65  1  0  0  0  0
 22 23  1  0  0  0  0
 23 24  1  0  0  0  0
 23 66  1  0  0  0  0
 24 25  2  0  0  0  0
 24 30  1  0  0  0  0
 25 26  1  0  0  0  0
 25 67  1  0  0  0  0
 26 27  2  0  0  0  0
 26 29  1  0  0  0  0
 27 28  1  0  0  0  0
 27  3  1  0  0  0  0
 28 68  1  0  0  0  0
 28 69  1  0  0  0  0
 28 70  1  0  0  0  0
 29  4  1  0  0  0  0
 29 71  1  0  0  0  0
 30 31  1  0  0  0  0
 30 32  2  0  0  0  0
 31 72  1  0  0  0  0
 31 73  1  0  0  0  0
 31 74  1  0  0  0  0
 32 33  1  0  0  0  0
 32 22  1  0  0  0  0
 33 34  1  0  0  0  0
 33 75  1  0  0  0  0
 33 76  1  0  0  0  0
 34 35  1  0  0  0  0
 34 77  1  0  0  0  0
 34 78  1  0  0  0  0
 35 36  2  0  0  0  0
 35 37  1  0  0  0  0
 37 38  1  0  0  0  0
 38 79  1  0  0  0  0
 38 80  1  0  0  0  0
 38 81  1  0  0  0  0
 39 10  1  0  0  0  0
 39 82  1  0  0  0  0
 40 41  1  0  0  0  0
 40 47  2  0  0  0  0
 41 42  1  0  0  0  0
 41 83  1  0  0  0  0
 41 84  1  0  0  0  0
 42 43  1  0  0  0  0
 42 85  1  0  0  0  0
 42 86  1  0  0  0  0
 43 44  2  0  0  0  0
 43 45  1  0  0  0  0
 45 46  1  0  0  0  0
 46 87  1  0  0  0  0
 46 88  1  0  0  0  0
 46 89  1  0  0  0  0
 47 48  1  0  0  0  0
 47  6  1  0  0  0  0
 48 90  1  0  0  0  0
 48 91  1  0  0  0  0
 48 92  1  0  0  0  0
M  END
>  <IDENTIFIER>
CNP0492011.0

>  <Energy>
1167.94

$$$$
