
 OpenBabel09082508093D

 76 80  0  0  0  0  0  0  0  0999 V2000
   -3.3078    0.7399    4.2631 C   0  0  0  0  0  0  0  0  0  0  0  0
   -4.0523    0.2886    3.1935 O   0  0  0  0  0  0  0  0  0  0  0  0
   -3.5372   -0.0054    1.9707 C   0  0  0  0  0  0  0  0  0  0  0  0
   -4.2686   -0.4241    0.9474 C   0  0  0  0  0  0  0  0  0  0  0  0
   -5.6121   -0.5981    1.0287 O   0  0  0  0  0  0  0  0  0  0  0  0
   -6.4124   -1.0182   -0.0083 C   0  0  0  0  0  0  0  0  0  0  0  0
   -3.3928   -0.6501   -0.2247 C   0  0  0  0  0  0  0  0  0  0  0  0
   -3.7723   -1.0588   -1.3121 O   0  0  0  0  0  0  0  0  0  0  0  0
   -1.9468   -0.3115    0.1104 C   0  0  1  0  0  0  0  0  0  0  0  0
   -2.1304    0.0821    1.5603 C   0  0  0  0  0  0  0  0  0  0  0  0
   -1.2165    0.4023    2.3048 O   0  0  0  0  0  0  0  0  0  0  0  0
   -1.1569   -1.6241    0.0645 C   0  0  0  0  0  0  0  0  0  0  0  0
   -1.8372   -2.6750    0.6313 O   0  0  0  0  0  0  0  0  0  0  0  0
   -1.4811   -4.0089    0.6851 C   0  0  0  0  0  0  0  0  0  0  0  0
    0.0753   -1.8466   -0.4719 C   0  0  0  0  0  0  0  0  0  0  0  0
    1.1134   -0.9172   -1.1002 C   0  0  2  0  0  0  0  0  0  0  0  0
    2.2154   -1.8181   -1.7056 C   0  0  0  0  0  0  0  0  0  0  0  0
    2.9716   -2.7147   -0.9165 C   0  0  0  0  0  0  0  0  0  0  0  0
    3.9559   -3.5201   -1.4940 C   0  0  0  0  0  0  0  0  0  0  0  0
    4.2056   -3.4480   -2.8645 C   0  0  0  0  0  0  0  0  0  0  0  0
    3.4694   -2.5707   -3.6613 C   0  0  0  0  0  0  0  0  0  0  0  0
    2.4820   -1.7625   -3.0903 C   0  0  0  0  0  0  0  0  0  0  0  0
    1.7205    0.1396   -0.0936 C   0  0  2  0  0  0  0  0  0  0  0  0
    3.0506    0.6596   -0.6099 C   0  0  0  0  0  0  0  0  0  0  0  0
    3.1856    1.2801   -1.6560 O   0  0  0  0  0  0  0  0  0  0  0  0
    4.1353    0.3707    0.3492 C   0  0  0  0  0  0  0  0  0  0  0  0
    5.4370    0.7473    0.2493 O   0  0  0  0  0  0  0  0  0  0  0  0
    5.9347    1.5964   -0.7126 C   0  0  0  0  0  0  0  0  0  0  0  0
    3.6308   -0.3088    1.3857 C   0  0  0  0  0  0  0  0  0  0  0  0
    4.2889   -0.7555    2.4898 O   0  0  0  0  0  0  0  0  0  0  0  0
    5.6300   -0.5846    2.7584 C   0  0  0  0  0  0  0  0  0  0  0  0
    2.1930   -0.4922    1.1938 C   0  0  0  0  0  0  0  0  0  0  0  0
    1.4656   -1.0398    2.0079 O   0  0  0  0  0  0  0  0  0  0  0  0
    0.9142    1.4000    0.2474 C   0  0  0  0  0  0  0  0  0  0  0  0
    1.6366    2.3141    0.9732 O   0  0  0  0  0  0  0  0  0  0  0  0
    1.2425    3.5497    1.4491 C   0  0  0  0  0  0  0  0  0  0  0  0
   -0.3622    1.7018   -0.1024 C   0  0  0  0  0  0  0  0  0  0  0  0
   -1.4438    0.8861   -0.7894 C   0  0  2  0  0  0  0  0  0  0  0  0
   -2.5887    1.8547   -1.1571 C   0  0  0  0  0  0  0  0  0  0  0  0
   -3.2852    2.6024   -0.1822 C   0  0  0  0  0  0  0  0  0  0  0  0
   -4.3241    3.4622   -0.5500 C   0  0  0  0  0  0  0  0  0  0  0  0
   -4.6858    3.5918   -1.8920 C   0  0  0  0  0  0  0  0  0  0  0  0
   -4.0079    2.8637   -2.8698 C   0  0  0  0  0  0  0  0  0  0  0  0
   -2.9680    2.0032   -2.5092 C   0  0  0  0  0  0  0  0  0  0  0  0
   -3.9773    0.9048    5.1316 H   0  0  0  0  0  0  0  0  0  0  0  0
   -2.8145    1.7029    4.0088 H   0  0  0  0  0  0  0  0  0  0  0  0
   -2.5427   -0.0149    4.5459 H   0  0  0  0  0  0  0  0  0  0  0  0
   -7.4628   -1.0651    0.3457 H   0  0  0  0  0  0  0  0  0  0  0  0
   -6.1045   -2.0310   -0.3428 H   0  0  0  0  0  0  0  0  0  0  0  0
   -6.3533   -0.2982   -0.8519 H   0  0  0  0  0  0  0  0  0  0  0  0
   -2.2805   -4.5739    1.2063 H   0  0  0  0  0  0  0  0  0  0  0  0
   -0.5344   -4.1360    1.2511 H   0  0  0  0  0  0  0  0  0  0  0  0
   -1.3790   -4.4186   -0.3430 H   0  0  0  0  0  0  0  0  0  0  0  0
    0.4068   -2.8751   -0.4309 H   0  0  0  0  0  0  0  0  0  0  0  0
    0.7053   -0.3762   -1.9656 H   0  0  0  0  0  0  0  0  0  0  0  0
    2.7979   -2.8050    0.1461 H   0  0  0  0  0  0  0  0  0  0  0  0
    4.5244   -4.2044   -0.8774 H   0  0  0  0  0  0  0  0  0  0  0  0
    4.9680   -4.0745   -3.3095 H   0  0  0  0  0  0  0  0  0  0  0  0
    3.6632   -2.5175   -4.7248 H   0  0  0  0  0  0  0  0  0  0  0  0
    1.9261   -1.0922   -3.7338 H   0  0  0  0  0  0  0  0  0  0  0  0
    7.0201    1.7436   -0.5370 H   0  0  0  0  0  0  0  0  0  0  0  0
    5.4310    2.5853   -0.6402 H   0  0  0  0  0  0  0  0  0  0  0  0
    5.7912    1.1660   -1.7252 H   0  0  0  0  0  0  0  0  0  0  0  0
    5.8649   -1.0610    3.7322 H   0  0  0  0  0  0  0  0  0  0  0  0
    5.8709    0.4974    2.8291 H   0  0  0  0  0  0  0  0  0  0  0  0
    6.2444   -1.0684    1.9704 H   0  0  0  0  0  0  0  0  0  0  0  0
    2.0862    4.0081    2.0045 H   0  0  0  0  0  0  0  0  0  0  0  0
    0.3834    3.4372    2.1449 H   0  0  0  0  0  0  0  0  0  0  0  0
    0.9753    4.2210    0.6052 H   0  0  0  0  0  0  0  0  0  0  0  0
   -0.7001    2.6859    0.1928 H   0  0  0  0  0  0  0  0  0  0  0  0
   -1.1202    0.4914   -1.7623 H   0  0  0  0  0  0  0  0  0  0  0  0
   -3.0264    2.5267    0.8643 H   0  0  0  0  0  0  0  0  0  0  0  0
   -4.8498    4.0291    0.2068 H   0  0  0  0  0  0  0  0  0  0  0  0
   -5.4912    4.2574   -2.1744 H   0  0  0  0  0  0  0  0  0  0  0  0
   -4.2892    2.9645   -3.9103 H   0  0  0  0  0  0  0  0  0  0  0  0
   -2.4629    1.4490   -3.2904 H   0  0  0  0  0  0  0  0  0  0  0  0
  1  2  1  0  0  0  0
  1 45  1  0  0  0  0
  1 46  1  0  0  0  0
  1 47  1  0  0  0  0
  2  3  1  0  0  0  0
  3  4  2  0  0  0  0
  4  5  1  0  0  0  0
  4  7  1  0  0  0  0
  5  6  1  0  0  0  0
  6 48  1  0  0  0  0
  6 49  1  0  0  0  0
  6 50  1  0  0  0  0
  7  8  2  0  0  0  0
  9  7  1  6  0  0  0
  9 10  1  0  0  0  0
  9 12  1  0  0  0  0
 10 11  2  0  0  0  0
 10  3  1  0  0  0  0
 12 13  1  0  0  0  0
 12 15  2  0  0  0  0
 13 14  1  0  0  0  0
 14 51  1  0  0  0  0
 14 52  1  0  0  0  0
 14 53  1  0  0  0  0
 15 16  1  0  0  0  0
 15 54  1  0  0  0  0
 16 17  1  0  0  0  0
 16 23  1  0  0  0  0
 16 55  1  6  0  0  0
 17 18  2  0  0  0  0
 18 19  1  0  0  0  0
 18 56  1  0  0  0  0
 19 20  2  0  0  0  0
 19 57  1  0  0  0  0
 20 21  1  0  0  0  0
 20 58  1  0  0  0  0
 21 22  2  0  0  0  0
 21 59  1  0  0  0  0
 22 17  1  0  0  0  0
 22 60  1  0  0  0  0
 23 24  1  6  0  0  0
 23 34  1  0  0  0  0
 24 25  2  0  0  0  0
 24 26  1  0  0  0  0
 26 27  1  0  0  0  0
 26 29  2  0  0  0  0
 27 28  1  0  0  0  0
 28 61  1  0  0  0  0
 28 62  1  0  0  0  0
 28 63  1  0  0  0  0
 29 30  1  0  0  0  0
 29 32  1  0  0  0  0
 30 31  1  0  0  0  0
 31 64  1  0  0  0  0
 31 65  1  0  0  0  0
 31 66  1  0  0  0  0
 32 33  2  0  0  0  0
 32 23  1  0  0  0  0
 34 35  1  0  0  0  0
 34 37  2  0  0  0  0
 35 36  1  0  0  0  0
 36 67  1  0  0  0  0
 36 68  1  0  0  0  0
 36 69  1  0  0  0  0
 37 38  1  0  0  0  0
 37 70  1  0  0  0  0
 38 39  1  0  0  0  0
 38  9  1  0  0  0  0
 38 71  1  6  0  0  0
 39 40  2  0  0  0  0
 40 41  1  0  0  0  0
 40 72  1  0  0  0  0
 41 42  2  0  0  0  0
 41 73  1  0  0  0  0
 42 43  1  0  0  0  0
 42 74  1  0  0  0  0
 43 44  2  0  0  0  0
 43 75  1  0  0  0  0
 44 39  1  0  0  0  0
 44 76  1  0  0  0  0
M  END
>  <IDENTIFIER>
CNP0266237.2

>  <Energy>
723.364

$$$$
