
 OpenBabel09132505283D

 56 62  0  0  0  0  0  0  0  0999 V2000
   -3.9812    2.3526    0.1683 C   0  0  0  0  0  0  0  0  0  0  0  0
   -2.5109    1.9449    0.4161 C   0  0  0  0  0  0  0  0  0  0  0  0
   -2.0804    0.4882    0.0561 C   0  0  2  0  0  0  0  0  0  0  0  0
   -2.2357    0.0659   -1.4288 C   0  0  0  0  0  0  0  0  0  0  0  0
   -2.6892    0.8521   -2.5027 C   0  0  0  0  0  0  0  0  0  0  0  0
   -2.8130    0.2882   -3.7781 C   0  0  0  0  0  0  0  0  0  0  0  0
   -2.4742   -1.0512   -4.0026 C   0  0  0  0  0  0  0  0  0  0  0  0
   -1.9846   -1.8395   -2.9582 C   0  0  0  0  0  0  0  0  0  0  0  0
   -1.8615   -1.2860   -1.6811 C   0  0  0  0  0  0  0  0  0  0  0  0
   -1.2431   -2.0248   -0.4914 C   0  0  2  0  0  0  0  0  0  0  0  0
   -2.3178   -1.9616    0.5674 C   0  0  0  0  0  0  0  0  0  0  0  0
   -2.8329   -3.0887    1.2101 C   0  0  0  0  0  0  0  0  0  0  0  0
   -3.8208   -2.9288    2.1814 C   0  0  0  0  0  0  0  0  0  0  0  0
   -4.2775   -1.6500    2.5193 C   0  0  0  0  0  0  0  0  0  0  0  0
   -3.7666   -0.5143    1.8758 C   0  0  0  0  0  0  0  0  0  0  0  0
   -2.7986   -0.6527    0.8639 C   0  0  0  0  0  0  0  0  0  0  0  0
   -0.0535   -1.0741   -0.1227 C   0  0  2  0  0  0  0  0  0  0  0  0
    1.2340   -1.1628    0.6271 C   0  0  0  0  0  0  0  0  0  0  0  0
    1.9157   -2.1667    0.7686 O   0  0  0  0  0  0  0  0  0  0  0  0
    1.6862    0.1085    0.8336 N   0  0  0  0  0  0  0  0  0  0  0  0
    3.0041    0.4576    1.2242 C   0  0  0  0  0  0  0  0  0  0  0  0
    3.2971    0.6032    2.5863 C   0  0  0  0  0  0  0  0  0  0  0  0
    4.5856    0.9479    2.9988 C   0  0  0  0  0  0  0  0  0  0  0  0
    5.5952    1.1522    2.0568 C   0  0  0  0  0  0  0  0  0  0  0  0
    5.3224    1.0135    0.6879 C   0  0  0  0  0  0  0  0  0  0  0  0
    6.3338    1.2217   -0.2618 C   0  0  0  0  0  0  0  0  0  0  0  0
    6.0566    1.0852   -1.6260 C   0  0  0  0  0  0  0  0  0  0  0  0
    4.7725    0.7420   -2.0505 C   0  0  0  0  0  0  0  0  0  0  0  0
    3.7552    0.5316   -1.1170 C   0  0  0  0  0  0  0  0  0  0  0  0
    4.0157    0.6632    0.2613 C   0  0  0  0  0  0  0  0  0  0  0  0
    0.6852    0.9947    0.5693 C   0  0  0  0  0  0  0  0  0  0  0  0
    0.8050    2.2093    0.6132 O   0  0  0  0  0  0  0  0  0  0  0  0
   -0.5909    0.2330    0.4908 C   0  0  1  0  0  0  0  0  0  0  0  0
   -4.1011    3.4185    0.4552 H   0  0  0  0  0  0  0  0  0  0  0  0
   -4.7132    1.7807    0.7541 H   0  0  0  0  0  0  0  0  0  0  0  0
   -4.3071    2.2610   -0.8769 H   0  0  0  0  0  0  0  0  0  0  0  0
   -2.2941    2.1213    1.4921 H   0  0  0  0  0  0  0  0  0  0  0  0
   -1.8707    2.6395   -0.1700 H   0  0  0  0  0  0  0  0  0  0  0  0
   -2.9392    1.8913   -2.3882 H   0  0  0  0  0  0  0  0  0  0  0  0
   -3.1707    0.8954   -4.5998 H   0  0  0  0  0  0  0  0  0  0  0  0
   -2.5713   -1.4718   -4.9951 H   0  0  0  0  0  0  0  0  0  0  0  0
   -1.6906   -2.8643   -3.1450 H   0  0  0  0  0  0  0  0  0  0  0  0
   -0.9060   -3.0476   -0.7657 H   0  0  0  0  0  0  0  0  0  0  0  0
   -2.4694   -4.0778    0.9614 H   0  0  0  0  0  0  0  0  0  0  0  0
   -4.2246   -3.7974    2.6865 H   0  0  0  0  0  0  0  0  0  0  0  0
   -5.0267   -1.5370    3.2919 H   0  0  0  0  0  0  0  0  0  0  0  0
   -4.1242    0.4421    2.2054 H   0  0  0  0  0  0  0  0  0  0  0  0
    0.3904   -0.8578   -1.1317 H   0  0  0  0  0  0  0  0  0  0  0  0
    2.5224    0.4485    3.3266 H   0  0  0  0  0  0  0  0  0  0  0  0
    4.8018    1.0575    4.0540 H   0  0  0  0  0  0  0  0  0  0  0  0
    6.5882    1.4195    2.3982 H   0  0  0  0  0  0  0  0  0  0  0  0
    7.3374    1.4885    0.0473 H   0  0  0  0  0  0  0  0  0  0  0  0
    6.8400    1.2465   -2.3539 H   0  0  0  0  0  0  0  0  0  0  0  0
    4.5621    0.6387   -3.1063 H   0  0  0  0  0  0  0  0  0  0  0  0
    2.7701    0.2667   -1.4799 H   0  0  0  0  0  0  0  0  0  0  0  0
   -0.7050    0.0877    1.5998 H   0  0  0  0  0  0  0  0  0  0  0  0
  1  2  1  0  0  0  0
  1 34  1  0  0  0  0
  1 35  1  0  0  0  0
  1 36  1  0  0  0  0
  2 37  1  0  0  0  0
  2 38  1  0  0  0  0
  3  2  1  1  0  0  0
  3  4  1  0  0  0  0
  4  5  2  0  0  0  0
  5  6  1  0  0  0  0
  5 39  1  0  0  0  0
  6  7  2  0  0  0  0
  6 40  1  0  0  0  0
  7  8  1  0  0  0  0
  7 41  1  0  0  0  0
  8  9  2  0  0  0  0
  8 42  1  0  0  0  0
  9  4  1  0  0  0  0
 10  9  1  0  0  0  0
 10 11  1  0  0  0  0
 10 17  1  0  0  0  0
 10 43  1  6  0  0  0
 11 12  2  0  0  0  0
 12 13  1  0  0  0  0
 12 44  1  0  0  0  0
 13 14  2  0  0  0  0
 13 45  1  0  0  0  0
 14 15  1  0  0  0  0
 14 46  1  0  0  0  0
 15 16  2  0  0  0  0
 15 47  1  0  0  0  0
 16  3  1  0  0  0  0
 16 11  1  0  0  0  0
 17 18  1  0  0  0  0
 17 48  1  6  0  0  0
 18 19  2  0  0  0  0
 18 20  1  0  0  0  0
 20 21  1  0  0  0  0
 20 31  1  0  0  0  0
 21 22  2  0  0  0  0
 22 23  1  0  0  0  0
 22 49  1  0  0  0  0
 23 24  2  0  0  0  0
 23 50  1  0  0  0  0
 24 25  1  0  0  0  0
 24 51  1  0  0  0  0
 25 26  2  0  0  0  0
 26 27  1  0  0  0  0
 26 52  1  0  0  0  0
 27 28  2  0  0  0  0
 27 53  1  0  0  0  0
 28 29  1  0  0  0  0
 28 54  1  0  0  0  0
 29 30  2  0  0  0  0
 29 55  1  0  0  0  0
 30 21  1  0  0  0  0
 30 25  1  0  0  0  0
 31 32  2  0  0  0  0
 33 31  1  0  0  0  0
 33 17  1  0  0  0  0
 33  3  1  0  0  0  0
 33 56  1  1  0  0  0
M  END
>  <IDENTIFIER>
CNP0478145.5

>  <Energy>
1109.47

$$$$
