
 OpenBabel09132507403D

 96 95  0  0  0  0  0  0  0  0999 V2000
   11.5299    4.5340    1.9502 C   0  0  0  0  0  0  0  0  0  0  0  0
   10.1224    4.0843    2.3447 C   0  0  0  0  0  0  0  0  0  0  0  0
   10.0094    2.5676    2.5730 C   0  0  0  0  0  0  0  0  0  0  0  0
   10.2630    1.7467    1.2995 C   0  0  0  0  0  0  0  0  0  0  0  0
   10.0902    0.2444    1.5699 C   0  0  0  0  0  0  0  0  0  0  0  0
   10.3870   -0.6266    0.3328 C   0  0  0  0  0  0  0  0  0  0  0  0
    9.4775   -0.3595   -0.8875 C   0  0  0  0  0  0  0  0  0  0  0  0
    7.9741   -0.5484   -0.6239 C   0  0  0  0  0  0  0  0  0  0  0  0
    7.6457   -1.9677   -0.2153 C   0  0  0  0  0  0  0  0  0  0  0  0
    6.7930   -2.8054   -0.8371 C   0  0  0  0  0  0  0  0  0  0  0  0
    5.9744   -2.5148   -2.0750 C   0  0  0  0  0  0  0  0  0  0  0  0
    4.4766   -2.5608   -1.7428 C   0  0  0  0  0  0  0  0  0  0  0  0
    4.0819   -1.4351   -0.7615 C   0  0  0  0  0  0  0  0  0  0  0  0
    2.6465   -1.5138   -0.2142 C   0  0  0  0  0  0  0  0  0  0  0  0
    1.4876   -1.0750   -1.1272 C   0  0  0  0  0  0  0  0  0  0  0  0
    1.2550   -1.9482   -2.3734 C   0  0  0  0  0  0  0  0  0  0  0  0
   -0.0907   -1.6453   -3.0487 C   0  0  0  0  0  0  0  0  0  0  0  0
   -1.2787   -2.0772   -2.2274 C   0  0  0  0  0  0  0  0  0  0  0  0
   -2.4035   -1.8350   -2.6459 O   0  0  0  0  0  0  0  0  0  0  0  0
   -1.1068   -2.7392   -1.0489 O   0  0  0  0  0  0  0  0  0  0  0  0
   -2.1173   -2.9898   -0.1437 C   0  0  0  0  0  0  0  0  0  0  0  0
   -2.5595   -1.6791    0.4674 C   0  0  0  0  0  0  0  0  0  0  0  0
   -3.7726   -1.0748    0.3643 C   0  0  0  0  0  0  0  0  0  0  0  0
   -3.9260    0.2737    1.0342 C   0  0  0  0  0  0  0  0  0  0  0  0
   -4.9294   -1.6459   -0.4597 C   0  0  0  0  0  0  0  0  0  0  0  0
   -6.1840   -2.0969    0.3185 C   0  0  0  0  0  0  0  0  0  0  0  0
   -7.0999   -1.0929    1.0638 C   0  0  0  0  0  0  0  0  0  0  0  0
   -7.9260   -0.0874    0.2062 C   0  0  2  0  0  0  0  0  0  0  0  0
   -7.0755    1.0651   -0.3644 C   0  0  0  0  0  0  0  0  0  0  0  0
   -9.0624    0.4927    1.0965 C   0  0  0  0  0  0  0  0  0  0  0  0
  -10.0909    1.3639    0.3373 C   0  0  1  0  0  0  0  0  0  0  0  0
  -10.6805    0.6225   -0.7029 O   0  0  0  0  0  0  0  0  0  0  0  0
  -11.1506    1.9020    1.2783 C   0  0  0  0  0  0  0  0  0  0  0  0
  -12.1500    2.7378    0.9075 C   0  0  0  0  0  0  0  0  0  0  0  0
  -12.3361    3.2438   -0.5044 C   0  0  0  0  0  0  0  0  0  0  0  0
  -13.1436    3.2135    1.9352 C   0  0  0  0  0  0  0  0  0  0  0  0
   11.5485    5.6397    1.8511 H   0  0  0  0  0  0  0  0  0  0  0  0
   11.8329    4.1021    0.9751 H   0  0  0  0  0  0  0  0  0  0  0  0
   12.2616    4.2348    2.7304 H   0  0  0  0  0  0  0  0  0  0  0  0
    9.3985    4.4033    1.5635 H   0  0  0  0  0  0  0  0  0  0  0  0
    9.8540    4.5965    3.2940 H   0  0  0  0  0  0  0  0  0  0  0  0
    8.9765    2.3557    2.9274 H   0  0  0  0  0  0  0  0  0  0  0  0
   10.7200    2.2604    3.3713 H   0  0  0  0  0  0  0  0  0  0  0  0
   11.2968    1.9182    0.9349 H   0  0  0  0  0  0  0  0  0  0  0  0
    9.5418    2.0774    0.5232 H   0  0  0  0  0  0  0  0  0  0  0  0
    9.0640    0.0410    1.9428 H   0  0  0  0  0  0  0  0  0  0  0  0
   10.7998   -0.0557    2.3716 H   0  0  0  0  0  0  0  0  0  0  0  0
   10.3047   -1.6931    0.6287 H   0  0  0  0  0  0  0  0  0  0  0  0
   11.4412   -0.4582    0.0227 H   0  0  0  0  0  0  0  0  0  0  0  0
    9.7834   -1.0374   -1.7139 H   0  0  0  0  0  0  0  0  0  0  0  0
    9.6433    0.6780   -1.2427 H   0  0  0  0  0  0  0  0  0  0  0  0
    7.4402   -0.2334   -1.5350 H   0  0  0  0  0  0  0  0  0  0  0  0
    7.6412    0.1402    0.1790 H   0  0  0  0  0  0  0  0  0  0  0  0
    8.1226   -2.3441    0.6834 H   0  0  0  0  0  0  0  0  0  0  0  0
    6.6527   -3.7871   -0.3921 H   0  0  0  0  0  0  0  0  0  0  0  0
    6.2099   -3.2971   -2.8277 H   0  0  0  0  0  0  0  0  0  0  0  0
    6.1912   -1.5417   -2.5486 H   0  0  0  0  0  0  0  0  0  0  0  0
    4.2338   -3.5517   -1.2995 H   0  0  0  0  0  0  0  0  0  0  0  0
    3.9347   -2.4670   -2.6949 H   0  0  0  0  0  0  0  0  0  0  0  0
    4.2777   -0.4317   -1.1980 H   0  0  0  0  0  0  0  0  0  0  0  0
    4.7318   -1.5449    0.1330 H   0  0  0  0  0  0  0  0  0  0  0  0
    2.6093   -0.8161    0.6523 H   0  0  0  0  0  0  0  0  0  0  0  0
    2.4565   -2.5352    0.1826 H   0  0  0  0  0  0  0  0  0  0  0  0
    1.6143   -0.0142   -1.4357 H   0  0  0  0  0  0  0  0  0  0  0  0
    0.5897   -1.1166   -0.4785 H   0  0  0  0  0  0  0  0  0  0  0  0
    1.2908   -3.0297   -2.1151 H   0  0  0  0  0  0  0  0  0  0  0  0
    2.0399   -1.7161   -3.1143 H   0  0  0  0  0  0  0  0  0  0  0  0
   -0.1403   -2.1855   -4.0186 H   0  0  0  0  0  0  0  0  0  0  0  0
   -0.1527   -0.5541   -3.2543 H   0  0  0  0  0  0  0  0  0  0  0  0
   -1.7185   -3.6233    0.6760 H   0  0  0  0  0  0  0  0  0  0  0  0
   -2.8990   -3.5916   -0.6367 H   0  0  0  0  0  0  0  0  0  0  0  0
   -1.7756   -1.1777    1.0303 H   0  0  0  0  0  0  0  0  0  0  0  0
   -2.9918    0.6119    1.5324 H   0  0  0  0  0  0  0  0  0  0  0  0
   -4.6901    0.2565    1.8227 H   0  0  0  0  0  0  0  0  0  0  0  0
   -4.1852    1.0367    0.2732 H   0  0  0  0  0  0  0  0  0  0  0  0
   -4.6117   -2.5507   -0.9954 H   0  0  0  0  0  0  0  0  0  0  0  0
   -5.1737   -0.9631   -1.2839 H   0  0  0  0  0  0  0  0  0  0  0  0
   -5.8391   -2.8489    1.0625 H   0  0  0  0  0  0  0  0  0  0  0  0
   -6.8371   -2.6335   -0.4053 H   0  0  0  0  0  0  0  0  0  0  0  0
   -6.5916   -0.5790    1.8939 H   0  0  0  0  0  0  0  0  0  0  0  0
   -7.8418   -1.7613    1.5558 H   0  0  0  0  0  0  0  0  0  0  0  0
   -8.3954   -0.6552   -0.6267 H   0  0  0  0  0  0  0  0  0  0  0  0
   -6.6136    1.6509    0.4581 H   0  0  0  0  0  0  0  0  0  0  0  0
   -7.6852    1.7455   -0.9879 H   0  0  0  0  0  0  0  0  0  0  0  0
   -6.2880    0.7256   -1.0419 H   0  0  0  0  0  0  0  0  0  0  0  0
   -8.6116    1.0847    1.9245 H   0  0  0  0  0  0  0  0  0  0  0  0
   -9.6266   -0.3515    1.5519 H   0  0  0  0  0  0  0  0  0  0  0  0
   -9.5790    2.2461   -0.0935 H   0  0  0  0  0  0  0  0  0  0  0  0
  -11.1923   -0.1213   -0.2883 H   0  0  0  0  0  0  0  0  0  0  0  0
  -11.0914    1.5967    2.3204 H   0  0  0  0  0  0  0  0  0  0  0  0
  -11.5718    2.8796   -1.2168 H   0  0  0  0  0  0  0  0  0  0  0  0
  -12.2905    4.3527   -0.5058 H   0  0  0  0  0  0  0  0  0  0  0  0
  -13.3316    2.9260   -0.8792 H   0  0  0  0  0  0  0  0  0  0  0  0
  -12.9352    2.8033    2.9466 H   0  0  0  0  0  0  0  0  0  0  0  0
  -14.1655    2.9003    1.6362 H   0  0  0  0  0  0  0  0  0  0  0  0
  -13.1083    4.3215    1.9973 H   0  0  0  0  0  0  0  0  0  0  0  0
  1  2  1  0  0  0  0
  1 37  1  0  0  0  0
  1 38  1  0  0  0  0
  1 39  1  0  0  0  0
  2  3  1  0  0  0  0
  2 40  1  0  0  0  0
  2 41  1  0  0  0  0
  3  4  1  0  0  0  0
  3 42  1  0  0  0  0
  3 43  1  0  0  0  0
  4  5  1  0  0  0  0
  4 44  1  0  0  0  0
  4 45  1  0  0  0  0
  5  6  1  0  0  0  0
  5 46  1  0  0  0  0
  5 47  1  0  0  0  0
  6  7  1  0  0  0  0
  6 48  1  0  0  0  0
  6 49  1  0  0  0  0
  7  8  1  0  0  0  0
  7 50  1  0  0  0  0
  7 51  1  0  0  0  0
  8  9  1  0  0  0  0
  8 52  1  0  0  0  0
  8 53  1  0  0  0  0
  9 10  2  0  0  0  0
  9 54  1  0  0  0  0
 10 11  1  0  0  0  0
 10 55  1  0  0  0  0
 11 12  1  0  0  0  0
 11 56  1  0  0  0  0
 11 57  1  0  0  0  0
 12 13  1  0  0  0  0
 12 58  1  0  0  0  0
 12 59  1  0  0  0  0
 13 14  1  0  0  0  0
 13 60  1  0  0  0  0
 13 61  1  0  0  0  0
 14 15  1  0  0  0  0
 14 62  1  0  0  0  0
 14 63  1  0  0  0  0
 15 16  1  0  0  0  0
 15 64  1  0  0  0  0
 15 65  1  0  0  0  0
 16 17  1  0  0  0  0
 16 66  1  0  0  0  0
 16 67  1  0  0  0  0
 17 18  1  0  0  0  0
 17 68  1  0  0  0  0
 17 69  1  0  0  0  0
 18 19  2  0  0  0  0
 18 20  1  0  0  0  0
 20 21  1  0  0  0  0
 21 22  1  0  0  0  0
 21 70  1  0  0  0  0
 21 71  1  0  0  0  0
 22 23  2  0  0  0  0
 22 72  1  0  0  0  0
 23 24  1  0  0  0  0
 23 25  1  0  0  0  0
 24 73  1  0  0  0  0
 24 74  1  0  0  0  0
 24 75  1  0  0  0  0
 25 26  1  0  0  0  0
 25 76  1  0  0  0  0
 25 77  1  0  0  0  0
 26 27  1  0  0  0  0
 26 78  1  0  0  0  0
 26 79  1  0  0  0  0
 27 28  1  0  0  0  0
 27 80  1  0  0  0  0
 27 81  1  0  0  0  0
 28 29  1  0  0  0  0
 28 30  1  0  0  0  0
 28 82  1  6  0  0  0
 29 83  1  0  0  0  0
 29 84  1  0  0  0  0
 29 85  1  0  0  0  0
 30 31  1  0  0  0  0
 30 86  1  0  0  0  0
 30 87  1  0  0  0  0
 31 32  1  0  0  0  0
 31 33  1  0  0  0  0
 31 88  1  6  0  0  0
 32 89  1  0  0  0  0
 33 34  2  0  0  0  0
 33 90  1  0  0  0  0
 34 35  1  0  0  0  0
 34 36  1  0  0  0  0
 35 91  1  0  0  0  0
 35 92  1  0  0  0  0
 35 93  1  0  0  0  0
 36 94  1  0  0  0  0
 36 95  1  0  0  0  0
 36 96  1  0  0  0  0
M  END
>  <IDENTIFIER>
CNP0414626.1

>  <Energy>
390.612

$$$$
