
 OpenBabel09052507353D

 78 84  0  0  0  0  0  0  0  0999 V2000
    3.8411   -2.0246    1.8930 C   0  0  0  0  0  0  0  0  0  0  0  0
    3.7880   -2.2519    0.3670 C   0  0  1  0  0  0  0  0  0  0  0  0
    2.4772   -2.4857   -0.0524 O   0  0  0  0  0  0  0  0  0  0  0  0
    4.4125   -1.0697   -0.3952 C   0  0  1  0  0  0  0  0  0  0  0  0
    4.7138   -1.3172   -1.8600 C   0  0  0  0  0  0  0  0  0  0  0  0
    4.0630   -1.7090   -2.9880 C   0  0  0  0  0  0  0  0  0  0  0  0
    2.7507   -2.1748   -3.5726 C   0  0  0  0  0  0  0  0  0  0  0  0
    1.4240   -2.4108   -3.3743 C   0  0  0  0  0  0  0  0  0  0  0  0
    0.3646   -2.2638   -2.3417 C   0  0  0  0  0  0  0  0  0  0  0  0
   -0.6190   -2.9611   -2.5142 O   0  0  0  0  0  0  0  0  0  0  0  0
    0.3689   -1.3586   -1.3295 O   0  0  0  0  0  0  0  0  0  0  0  0
   -0.6177   -1.1711   -0.3400 C   0  0  2  0  0  0  0  0  0  0  0  0
   -0.8431   -2.4432    0.5314 C   0  0  0  0  0  0  0  0  0  0  0  0
   -2.3573   -2.5126    0.7885 C   0  0  1  0  0  0  0  0  0  0  0  0
   -2.8178   -1.6788    1.8536 O   0  0  0  0  0  0  0  0  0  0  0  0
   -2.4773   -0.2921    1.7474 C   0  0  2  0  0  0  0  0  0  0  0  0
   -3.2163    0.4713    2.8712 C   0  0  2  0  0  0  0  0  0  0  0  0
   -4.5348   -0.0985    2.9667 O   0  0  0  0  0  0  0  0  0  0  0  0
   -4.4756    1.2276    2.5906 C   0  0  1  0  0  0  0  0  0  0  0  0
   -4.9597    2.1837    3.6765 C   0  0  0  0  0  0  0  0  0  0  0  0
   -4.9030    1.4848    1.1386 C   0  0  0  0  0  0  0  0  0  0  0  0
   -4.2846    0.4864    0.1436 C   0  0  0  0  0  0  0  0  0  0  0  0
   -2.7274    0.3212    0.3077 C   0  0  1  0  0  0  0  0  0  0  0  0
   -2.1013    1.7606    0.2090 C   0  0  0  0  0  0  0  0  0  0  0  0
   -0.7437    1.7049    0.3261 O   0  0  0  0  0  0  0  0  0  0  0  0
    0.0999    2.7302    0.5511 C   0  0  0  0  0  0  0  0  0  0  0  0
   -0.2989    3.8699    0.7462 O   0  0  0  0  0  0  0  0  0  0  0  0
    1.5318    2.3712    0.6666 C   0  0  1  0  0  0  0  0  0  0  0  0
    1.8810    1.9020   -0.6227 O   0  0  0  0  0  0  0  0  0  0  0  0
    2.6408    2.9669   -0.1337 C   0  0  1  0  0  0  0  0  0  0  0  0
    2.4181    4.2835   -0.8861 C   0  0  0  0  0  0  0  0  0  0  0  0
    4.0513    2.5198    0.3277 C   0  0  2  0  0  0  0  0  0  0  0  0
    4.9684    3.5818    0.2284 O   0  0  0  0  0  0  0  0  0  0  0  0
    4.5743    1.2674   -0.4083 C   0  0  0  0  0  0  0  0  0  0  0  0
    3.7098    0.1459   -0.1953 O   0  0  0  0  0  0  0  0  0  0  0  0
   -2.0936   -0.7015   -0.7767 C   0  0  1  0  0  0  0  0  0  0  0  0
   -2.1793   -0.1510   -2.2199 C   0  0  0  0  0  0  0  0  0  0  0  0
   -2.8736   -1.9954   -0.5260 C   0  0  2  0  0  0  0  0  0  0  0  0
   -4.1668   -2.4076   -1.1176 C   0  0  0  0  0  0  0  0  0  0  0  0
   -2.9212   -2.9408   -1.5532 O   0  0  0  0  0  0  0  0  0  0  0  0
    3.4010   -2.8960    2.4218 H   0  0  0  0  0  0  0  0  0  0  0  0
    3.2757   -1.1110    2.1794 H   0  0  0  0  0  0  0  0  0  0  0  0
    4.8932   -1.9056    2.2300 H   0  0  0  0  0  0  0  0  0  0  0  0
    4.3844   -3.1673    0.1615 H   0  0  0  0  0  0  0  0  0  0  0  0
    1.9202   -1.8031    0.3996 H   0  0  0  0  0  0  0  0  0  0  0  0
    5.4160   -0.9938    0.0912 H   0  0  0  0  0  0  0  0  0  0  0  0
    5.7751   -1.1363   -2.0399 H   0  0  0  0  0  0  0  0  0  0  0  0
    4.7892   -1.7366   -3.8023 H   0  0  0  0  0  0  0  0  0  0  0  0
    2.9859   -2.4814   -4.5946 H   0  0  0  0  0  0  0  0  0  0  0  0
    0.9733   -2.8802   -4.2530 H   0  0  0  0  0  0  0  0  0  0  0  0
   -0.1677   -0.4262    0.3166 H   0  0  0  0  0  0  0  0  0  0  0  0
   -0.1923   -2.5409    1.4258 H   0  0  0  0  0  0  0  0  0  0  0  0
   -0.6299   -3.3314   -0.0997 H   0  0  0  0  0  0  0  0  0  0  0  0
   -2.6729   -3.5546    1.0148 H   0  0  0  0  0  0  0  0  0  0  0  0
   -1.4084   -0.1925    2.0197 H   0  0  0  0  0  0  0  0  0  0  0  0
   -2.8168    0.3450    3.9000 H   0  0  0  0  0  0  0  0  0  0  0  0
   -6.0683    2.2299    3.6663 H   0  0  0  0  0  0  0  0  0  0  0  0
   -4.5525    3.1978    3.4805 H   0  0  0  0  0  0  0  0  0  0  0  0
   -4.6269    1.8574    4.6857 H   0  0  0  0  0  0  0  0  0  0  0  0
   -4.6139    2.5203    0.8665 H   0  0  0  0  0  0  0  0  0  0  0  0
   -6.0106    1.4461    1.0598 H   0  0  0  0  0  0  0  0  0  0  0  0
   -4.5589    0.8225   -0.8764 H   0  0  0  0  0  0  0  0  0  0  0  0
   -4.7932   -0.4763    0.3370 H   0  0  0  0  0  0  0  0  0  0  0  0
   -2.4708    2.4001    1.0339 H   0  0  0  0  0  0  0  0  0  0  0  0
   -2.3656    2.2548   -0.7504 H   0  0  0  0  0  0  0  0  0  0  0  0
    1.7614    1.5572    1.3870 H   0  0  0  0  0  0  0  0  0  0  0  0
    3.0811    4.3298   -1.7742 H   0  0  0  0  0  0  0  0  0  0  0  0
    2.6604    5.1318   -0.2110 H   0  0  0  0  0  0  0  0  0  0  0  0
    1.3705    4.3940   -1.2335 H   0  0  0  0  0  0  0  0  0  0  0  0
    4.0055    2.2490    1.4061 H   0  0  0  0  0  0  0  0  0  0  0  0
    5.1797    3.7120   -0.7327 H   0  0  0  0  0  0  0  0  0  0  0  0
    5.5964    1.1006    0.0050 H   0  0  0  0  0  0  0  0  0  0  0  0
    4.6529    1.4812   -1.4966 H   0  0  0  0  0  0  0  0  0  0  0  0
   -3.2169    0.1211   -2.4922 H   0  0  0  0  0  0  0  0  0  0  0  0
   -1.8505   -0.8954   -2.9665 H   0  0  0  0  0  0  0  0  0  0  0  0
   -1.5343    0.7435   -2.3327 H   0  0  0  0  0  0  0  0  0  0  0  0
   -4.5886   -1.8272   -1.9631 H   0  0  0  0  0  0  0  0  0  0  0  0
   -4.7301   -3.2328   -0.6343 H   0  0  0  0  0  0  0  0  0  0  0  0
  1 41  1  0  0  0  0
  1 42  1  0  0  0  0
  1 43  1  0  0  0  0
  2  1  1  0  0  0  0
  2  3  1  0  0  0  0
  2  4  1  0  0  0  0
  2 44  1  6  0  0  0
  3 45  1  0  0  0  0
  4  5  1  0  0  0  0
  4 35  1  0  0  0  0
  4 46  1  1  0  0  0
  5  6  2  0  0  0  0
  5 47  1  0  0  0  0
  6  7  1  0  0  0  0
  6 48  1  0  0  0  0
  7  8  2  0  0  0  0
  7 49  1  0  0  0  0
  8  9  1  0  0  0  0
  8 50  1  0  0  0  0
  9 10  2  0  0  0  0
  9 11  1  0  0  0  0
 11 12  1  0  0  0  0
 12 13  1  0  0  0  0
 12 51  1  1  0  0  0
 13 52  1  0  0  0  0
 13 53  1  0  0  0  0
 14 13  1  0  0  0  0
 14 15  1  0  0  0  0
 14 54  1  1  0  0  0
 16 15  1  0  0  0  0
 16 17  1  0  0  0  0
 16 55  1  1  0  0  0
 17 18  1  0  0  0  0
 17 56  1  1  0  0  0
 18 19  1  0  0  0  0
 19 20  1  1  0  0  0
 19 21  1  0  0  0  0
 19 17  1  0  0  0  0
 20 57  1  0  0  0  0
 20 58  1  0  0  0  0
 20 59  1  0  0  0  0
 21 22  1  0  0  0  0
 21 60  1  0  0  0  0
 21 61  1  0  0  0  0
 22 62  1  0  0  0  0
 22 63  1  0  0  0  0
 23 22  1  6  0  0  0
 23 24  1  0  0  0  0
 23 36  1  0  0  0  0
 23 16  1  0  0  0  0
 24 25  1  0  0  0  0
 24 64  1  0  0  0  0
 24 65  1  0  0  0  0
 25 26  1  0  0  0  0
 26 27  2  0  0  0  0
 26 28  1  0  0  0  0
 28 29  1  0  0  0  0
 28 66  1  1  0  0  0
 29 30  1  0  0  0  0
 30 31  1  6  0  0  0
 30 32  1  0  0  0  0
 30 28  1  0  0  0  0
 31 67  1  0  0  0  0
 31 68  1  0  0  0  0
 31 69  1  0  0  0  0
 32 33  1  0  0  0  0
 32 34  1  0  0  0  0
 32 70  1  1  0  0  0
 33 71  1  0  0  0  0
 34 35  1  0  0  0  0
 34 72  1  0  0  0  0
 34 73  1  0  0  0  0
 36 37  1  6  0  0  0
 36 38  1  0  0  0  0
 36 12  1  0  0  0  0
 37 74  1  0  0  0  0
 37 75  1  0  0  0  0
 37 76  1  0  0  0  0
 38 39  1  0  0  0  0
 38 40  1  6  0  0  0
 38 14  1  0  0  0  0
 39 40  1  0  0  0  0
 39 77  1  0  0  0  0
 39 78  1  0  0  0  0
M  END
>  <IDENTIFIER>
CNP0188316.4

>  <Energy>
5773.25

$$$$
