
 OpenBabel09112502102D

 75 80  0  0  0  0  0  0  0  0999 V2000
    7.4938   -7.5388    0.0000 C   0  0  0  0  0  0  0  0  0  0  0  0
    6.0266   -7.2269    0.0000 O   0  0  0  0  0  0  0  0  0  0  0  0
    4.9430   -7.1176   -0.9425 C   0  0  0  0  0  0  0  0  0  0  0  0
    5.1753   -6.9644   -2.1306 O   0  0  0  0  0  0  0  0  0  0  0  0
    3.5090   -6.8437   -0.3617 C   0  0  0  0  0  0  0  0  0  0  0  0
    2.6980   -5.6320   -0.5168 C   0  0  0  0  0  0  0  0  0  0  0  0
    2.3733   -4.5417    0.8216 C   0  0  2  0  0  0  0  0  0  0  0  0
    3.0527   -5.2815    1.7873 C   0  0  0  0  0  0  0  0  0  0  0  0
    4.3950   -5.0986    1.1090 O   0  0  0  0  0  0  0  0  0  0  0  0
    4.5788   -4.0037    0.0000 C   0  0  0  0  0  0  0  0  0  0  0  0
    5.8779   -4.7537    0.0000 C   0  0  0  0  0  0  0  0  0  0  0  0
    5.4605   -2.7902    0.0000 C   0  0  0  0  0  0  0  0  0  0  0  0
    3.9325   -3.4273    1.5421 C   0  0  2  0  0  0  0  0  0  0  0  0
    3.7129   -1.4789    1.7627 C   0  0  2  0  0  0  0  0  0  0  0  0
    4.9011   -0.7530    1.9196 O   0  0  0  0  0  0  0  0  0  0  0  0
    2.2907   -0.4701    0.8428 C   0  0  2  0  0  0  0  0  0  0  0  0
    2.9178    0.4663   -0.0098 O   0  0  0  0  0  0  0  0  0  0  0  0
    2.6162    1.8086    0.0000 C   0  0  0  0  0  0  0  0  0  0  0  0
    3.5804    2.9577    0.0000 C   0  0  0  0  0  0  0  0  0  0  0  0
    1.4595    2.1466    0.1924 O   0  0  0  0  0  0  0  0  0  0  0  0
    0.8660   -1.5000    0.0000 C   0  0  2  0  0  0  0  0  0  0  0  0
    2.1651   -2.2500    0.0000 C   0  0  0  0  0  0  0  0  0  0  0  0
    0.7738   -3.5007    0.3321 C   0  0  2  0  0  0  0  0  0  0  0  0
   -0.6427   -3.8849    0.2977 C   0  0  0  0  0  0  0  0  0  0  0  0
   -1.2961   -2.6441    1.0426 C   0  0  0  0  0  0  0  0  0  0  0  0
   -1.7321   -1.5000    0.0000 C   0  0  2  0  0  0  0  0  0  0  0  0
   -3.0311   -2.2500    0.0000 C   0  0  0  0  0  0  0  0  0  0  0  0
   -2.2407   -0.2023    0.8205 C   0  0  2  0  0  0  0  0  0  0  0  0
   -3.3480   -0.4505    1.8799 C   0  0  0  0  0  0  0  0  0  0  0  0
   -3.2540   -1.1701    3.0660 C   0  0  0  0  0  0  0  0  0  0  0  0
   -4.4407   -1.2604    3.6247 O   0  0  0  0  0  0  0  0  0  0  0  0
   -5.3164   -0.6341    2.8730 C   0  0  0  0  0  0  0  0  0  0  0  0
   -4.6820   -0.0967    1.7717 C   0  0  0  0  0  0  0  0  0  0  0  0
   -2.7143    0.6975   -0.1317 O   0  0  0  0  0  0  0  0  0  0  0  0
   -2.0472    0.9737   -1.2943 C   0  0  0  0  0  0  0  0  0  0  0  0
   -2.4066    1.9124   -1.9851 O   0  0  0  0  0  0  0  0  0  0  0  0
   -0.8092    0.1807   -1.6727 C   0  0  2  0  0  0  0  0  0  0  0  0
   -0.0756    0.3391   -0.5520 O   0  0  0  0  0  0  0  0  0  0  0  0
   -0.4161   -1.0154   -0.7864 C   0  0  2  0  0  0  0  0  0  0  0  0
    7.4187   -8.5951   -0.3311 H   0  0  0  0  0  0  0  0  0  0  0  0
    7.6516   -7.4893    1.0971 H   0  0  0  0  0  0  0  0  0  0  0  0
    8.5404   -7.7613    0.0000 H   0  0  0  0  0  0  0  0  0  0  0  0
    3.5186   -7.3635    0.5766 H   0  0  0  0  0  0  0  0  0  0  0  0
    2.9036   -5.0829   -1.4325 H   0  0  0  0  0  0  0  0  0  0  0  0
    2.6226   -6.2885    1.9307 H   0  0  0  0  0  0  0  0  0  0  0  0
    2.9625   -4.9556    2.8691 H   0  0  0  0  0  0  0  0  0  0  0  0
    6.5085   -4.6100    0.9479 H   0  0  0  0  0  0  0  0  0  0  0  0
    6.2024   -4.7170   -1.0800 H   0  0  0  0  0  0  0  0  0  0  0  0
    6.8046   -5.2887    0.0000 H   0  0  0  0  0  0  0  0  0  0  0  0
    6.1022   -2.6663    0.9302 H   0  0  0  0  0  0  0  0  0  0  0  0
    5.6547   -2.6273   -1.0936 H   0  0  0  0  0  0  0  0  0  0  0  0
    6.0894   -1.9246    0.0000 H   0  0  0  0  0  0  0  0  0  0  0  0
    4.5697   -3.5774    2.4991 H   0  0  0  0  0  0  0  0  0  0  0  0
    3.2784   -1.4801    2.7925 H   0  0  0  0  0  0  0  0  0  0  0  0
    5.0128   -0.2307    1.0896 H   0  0  0  0  0  0  0  0  0  0  0  0
    1.7843    0.1078    1.6471 H   0  0  0  0  0  0  0  0  0  0  0  0
    4.4904    2.3395   -0.1499 H   0  0  0  0  0  0  0  0  0  0  0  0
    3.2381    3.3839   -0.9682 H   0  0  0  0  0  0  0  0  0  0  0  0
    4.2682    3.7774    0.0000 H   0  0  0  0  0  0  0  0  0  0  0  0
    2.5811   -1.8601   -0.9786 H   0  0  0  0  0  0  0  0  0  0  0  0
    2.0285   -2.3935    1.2984 H   0  0  0  0  0  0  0  0  0  0  0  0
    3.0918   -2.7850    0.0000 H   0  0  0  0  0  0  0  0  0  0  0  0
    0.6890   -3.6695    1.4608 H   0  0  0  0  0  0  0  0  0  0  0  0
   -0.9673   -4.0141   -0.7555 H   0  0  0  0  0  0  0  0  0  0  0  0
   -0.8231   -4.8626    0.8160 H   0  0  0  0  0  0  0  0  0  0  0  0
   -2.0174   -3.1104    1.7808 H   0  0  0  0  0  0  0  0  0  0  0  0
   -0.6647   -2.1796    1.8396 H   0  0  0  0  0  0  0  0  0  0  0  0
   -3.6137   -1.5424   -0.6347 H   0  0  0  0  0  0  0  0  0  0  0  0
   -2.7957   -3.0035   -0.7841 H   0  0  0  0  0  0  0  0  0  0  0  0
   -3.9577   -2.7850    0.0000 H   0  0  0  0  0  0  0  0  0  0  0  0
   -1.4035    0.2690    1.3814 H   0  0  0  0  0  0  0  0  0  0  0  0
   -2.3684   -1.6308    3.4800 H   0  0  0  0  0  0  0  0  0  0  0  0
   -6.3769   -0.5812    3.0872 H   0  0  0  0  0  0  0  0  0  0  0  0
   -5.1532    0.4448    0.9637 H   0  0  0  0  0  0  0  0  0  0  0  0
   -0.1828    0.5025   -2.5280 H   0  0  0  0  0  0  0  0  0  0  0  0
  1  2  1  0  0  0  0
  1 40  1  0  0  0  0
  1 41  1  0  0  0  0
  1 42  1  0  0  0  0
  2  3  1  0  0  0  0
  3  4  2  0  0  0  0
  3  5  1  0  0  0  0
  5  6  2  0  0  0  0
  5 43  1  0  0  0  0
  6 44  1  0  0  0  0
  7  6  1  1  0  0  0
  7  8  1  0  0  0  0
  8  9  1  0  0  0  0
  8 45  1  0  0  0  0
  8 46  1  0  0  0  0
  9 10  1  0  0  0  0
 10 11  1  0  0  0  0
 10 12  1  0  0  0  0
 11 47  1  0  0  0  0
 11 48  1  0  0  0  0
 11 49  1  0  0  0  0
 12 50  1  0  0  0  0
 12 51  1  0  0  0  0
 12 52  1  0  0  0  0
 13 10  1  0  0  0  0
 13 14  1  0  0  0  0
 13  7  1  0  0  0  0
 13 53  1  6  0  0  0
 14 15  1  0  0  0  0
 14 16  1  0  0  0  0
 14 54  1  6  0  0  0
 15 55  1  0  0  0  0
 16 17  1  0  0  0  0
 16 21  1  0  0  0  0
 16 56  1  6  0  0  0
 17 18  1  0  0  0  0
 18 19  1  0  0  0  0
 18 20  2  0  0  0  0
 19 57  1  0  0  0  0
 19 58  1  0  0  0  0
 19 59  1  0  0  0  0
 21 22  1  1  0  0  0
 21 23  1  0  0  0  0
 22 60  1  0  0  0  0
 22 61  1  0  0  0  0
 22 62  1  0  0  0  0
 23 24  1  0  0  0  0
 23  7  1  0  0  0  0
 23 63  1  6  0  0  0
 24 25  1  0  0  0  0
 24 64  1  0  0  0  0
 24 65  1  0  0  0  0
 25 26  1  0  0  0  0
 25 66  1  0  0  0  0
 25 67  1  0  0  0  0
 26 27  1  1  0  0  0
 26 28  1  0  0  0  0
 27 68  1  0  0  0  0
 27 69  1  0  0  0  0
 27 70  1  0  0  0  0
 28 29  1  0  0  0  0
 28 34  1  0  0  0  0
 28 71  1  1  0  0  0
 29 30  2  0  0  0  0
 30 31  1  0  0  0  0
 30 72  1  0  0  0  0
 31 32  1  0  0  0  0
 32 33  2  0  0  0  0
 32 73  1  0  0  0  0
 33 29  1  0  0  0  0
 33 74  1  0  0  0  0
 34 35  1  0  0  0  0
 35 36  2  0  0  0  0
 35 37  1  0  0  0  0
 37 38  1  0  0  0  0
 37 75  1  1  0  0  0
 39 38  1  1  0  0  0
 39 21  1  0  0  0  0
 39 26  1  0  0  0  0
 39 37  1  0  0  0  0
M  END
>  <IDENTIFIER>
CNP0332653.7

>  <Energy>
12319

$$$$
