
 OpenBabel09132504243D

 45 45  0  0  0  0  0  0  0  0999 V2000
   -5.5216    1.4439   -0.4794 C   0  0  0  0  0  0  0  0  0  0  0  0
   -4.6065    0.2779   -0.1159 C   0  0  0  0  0  0  0  0  0  0  0  0
   -3.4010    0.7591    0.7097 C   0  0  0  0  0  0  0  0  0  0  0  0
   -2.4291   -0.3721    1.1285 C   0  0  1  0  0  0  0  0  0  0  0  0
   -3.0703   -1.2632    2.0088 O   0  0  0  0  0  0  0  0  0  0  0  0
   -1.7721   -1.1482   -0.0439 C   0  0  0  0  0  0  0  0  0  0  0  0
   -0.9402   -0.2529   -0.9952 C   0  0  2  0  0  0  0  0  0  0  0  0
   -0.3665   -1.0311   -2.1785 C   0  0  0  0  0  0  0  0  0  0  0  0
    0.5883   -2.0564   -1.6758 C   0  0  0  0  0  0  0  0  0  0  0  0
    1.4235   -1.7519   -0.6810 C   0  0  0  0  0  0  0  0  0  0  0  0
    1.4029   -0.4036    0.0378 C   0  0  1  0  0  0  0  0  0  0  0  0
    2.7502    0.3488   -0.1949 C   0  0  0  0  0  0  0  0  0  0  0  0
    3.9846   -0.4216    0.2323 C   0  0  0  0  0  0  0  0  0  0  0  0
    4.2882   -1.4561   -0.3417 O   0  0  0  0  0  0  0  0  0  0  0  0
    4.8764    0.0857    1.3387 C   0  0  0  0  0  0  0  0  0  0  0  0
    6.2867    0.3579    0.8243 C   0  0  0  0  0  0  0  0  0  0  0  0
    0.1669    0.4190   -0.2616 N   0  0  0  0  0  0  0  0  0  0  0  0
    0.3530    1.8260   -0.6650 C   0  0  0  0  0  0  0  0  0  0  0  0
   -6.3825    1.0701   -1.0731 H   0  0  0  0  0  0  0  0  0  0  0  0
   -4.9697    2.1924   -1.0871 H   0  0  0  0  0  0  0  0  0  0  0  0
   -5.9090    1.9327    0.4397 H   0  0  0  0  0  0  0  0  0  0  0  0
   -4.2609   -0.1956   -1.0584 H   0  0  0  0  0  0  0  0  0  0  0  0
   -5.1969   -0.4617    0.4649 H   0  0  0  0  0  0  0  0  0  0  0  0
   -3.7723    1.2529    1.6344 H   0  0  0  0  0  0  0  0  0  0  0  0
   -2.8490    1.5286    0.1317 H   0  0  0  0  0  0  0  0  0  0  0  0
   -1.6073    0.1051    1.7051 H   0  0  0  0  0  0  0  0  0  0  0  0
   -3.6617   -1.8547    1.4752 H   0  0  0  0  0  0  0  0  0  0  0  0
   -2.5570   -1.6700   -0.6316 H   0  0  0  0  0  0  0  0  0  0  0  0
   -1.1195   -1.9308    0.3978 H   0  0  0  0  0  0  0  0  0  0  0  0
   -1.6396    0.4911   -1.4336 H   0  0  0  0  0  0  0  0  0  0  0  0
    0.1954   -0.3101   -2.8117 H   0  0  0  0  0  0  0  0  0  0  0  0
   -1.1504   -1.5048   -2.8074 H   0  0  0  0  0  0  0  0  0  0  0  0
    0.5908   -3.0546   -2.1027 H   0  0  0  0  0  0  0  0  0  0  0  0
    2.1120   -2.5198   -0.3463 H   0  0  0  0  0  0  0  0  0  0  0  0
    1.3379   -0.6422    1.1211 H   0  0  0  0  0  0  0  0  0  0  0  0
    2.7366    1.2883    0.3882 H   0  0  0  0  0  0  0  0  0  0  0  0
    2.8577    0.6074   -1.2702 H   0  0  0  0  0  0  0  0  0  0  0  0
    4.9189   -0.6763    2.1468 H   0  0  0  0  0  0  0  0  0  0  0  0
    4.4740    1.0249    1.7737 H   0  0  0  0  0  0  0  0  0  0  0  0
    6.7398   -0.5718    0.4186 H   0  0  0  0  0  0  0  0  0  0  0  0
    6.9218    0.7262    1.6572 H   0  0  0  0  0  0  0  0  0  0  0  0
    6.2614    1.1305    0.0257 H   0  0  0  0  0  0  0  0  0  0  0  0
    0.9085    2.3860    0.1129 H   0  0  0  0  0  0  0  0  0  0  0  0
   -0.6260    2.3469   -0.7342 H   0  0  0  0  0  0  0  0  0  0  0  0
    0.8644    1.8943   -1.6474 H   0  0  0  0  0  0  0  0  0  0  0  0
  1  2  1  0  0  0  0
  1 19  1  0  0  0  0
  1 20  1  0  0  0  0
  1 21  1  0  0  0  0
  2  3  1  0  0  0  0
  2 22  1  0  0  0  0
  2 23  1  0  0  0  0
  3  4  1  0  0  0  0
  3 24  1  0  0  0  0
  3 25  1  0  0  0  0
  4  5  1  0  0  0  0
  4  6  1  0  0  0  0
  4 26  1  1  0  0  0
  5 27  1  0  0  0  0
  6 28  1  0  0  0  0
  6 29  1  0  0  0  0
  7  6  1  0  0  0  0
  7  8  1  0  0  0  0
  7 30  1  6  0  0  0
  8  9  1  0  0  0  0
  8 31  1  0  0  0  0
  8 32  1  0  0  0  0
  9 10  2  0  0  0  0
  9 33  1  0  0  0  0
 10 11  1  0  0  0  0
 10 34  1  0  0  0  0
 11 12  1  0  0  0  0
 11 17  1  0  0  0  0
 11 35  1  1  0  0  0
 12 13  1  0  0  0  0
 12 36  1  0  0  0  0
 12 37  1  0  0  0  0
 13 14  2  0  0  0  0
 13 15  1  0  0  0  0
 15 16  1  0  0  0  0
 15 38  1  0  0  0  0
 15 39  1  0  0  0  0
 16 40  1  0  0  0  0
 16 41  1  0  0  0  0
 16 42  1  0  0  0  0
 17 18  1  0  0  0  0
 17  7  1  0  0  0  0
 18 43  1  0  0  0  0
 18 44  1  0  0  0  0
 18 45  1  0  0  0  0
M  END
>  <IDENTIFIER>
CNP0289915.1

>  <Energy>
274.044

$$$$
