
 OpenBabel09052510013D

 56 58  0  0  0  0  0  0  0  0999 V2000
    7.9559    0.2358   -1.8872 C   0  0  0  0  0  0  0  0  0  0  0  0
    7.4057   -0.4098   -0.7595 O   0  0  0  0  0  0  0  0  0  0  0  0
    6.8553    0.5479    0.1234 C   0  0  0  0  0  0  0  0  0  0  0  0
    5.4182    0.8292   -0.2234 C   0  0  0  0  0  0  0  0  0  0  0  0
    5.0973    1.9737   -0.5078 O   0  0  0  0  0  0  0  0  0  0  0  0
    4.4980   -0.1766   -0.1849 N   0  0  0  0  0  0  0  0  0  0  0  0
    3.1024   -0.0148   -0.4318 C   0  0  0  0  0  0  0  0  0  0  0  0
    2.2154   -1.0131   -0.2155 N   0  0  0  0  0  0  0  0  0  0  0  0
    0.9297   -0.6166   -0.4364 C   0  0  0  0  0  0  0  0  0  0  0  0
    0.8012    0.7082   -0.8216 C   0  0  0  0  0  0  0  0  0  0  0  0
   -0.4888    1.4456   -0.9572 C   0  0  0  0  0  0  0  0  0  0  0  0
   -1.7379    0.5384   -0.7298 C   0  0  2  0  0  0  0  0  0  0  0  0
   -3.1014    1.3664   -0.6346 C   0  0  2  0  0  0  0  0  0  0  0  0
   -3.3408    2.0884   -1.9901 C   0  0  0  0  0  0  0  0  0  0  0  0
   -3.1003    2.4708    0.4811 C   0  0  0  0  0  0  0  0  0  0  0  0
   -4.2882    3.2234    0.4794 O   0  0  0  0  0  0  0  0  0  0  0  0
   -4.2700    0.3448   -0.4304 C   0  0  2  0  0  0  0  0  0  0  0  0
   -5.5242    0.9825   -0.3400 O   0  0  0  0  0  0  0  0  0  0  0  0
   -4.0291   -0.5962    0.7664 C   0  0  0  0  0  0  0  0  0  0  0  0
   -2.7665   -1.4314    0.5302 C   0  0  0  0  0  0  0  0  0  0  0  0
   -1.4727   -0.5825    0.3806 C   0  0  2  0  0  0  0  0  0  0  0  0
   -1.0676   -0.0200    1.7744 C   0  0  0  0  0  0  0  0  0  0  0  0
   -0.2839   -1.4899   -0.1826 C   0  0  2  0  0  0  0  0  0  0  0  0
    0.1420   -2.7590    0.6204 C   0  0  0  0  0  0  0  0  0  0  0  0
   -0.9080   -3.8348    0.7281 C   0  0  0  0  0  0  0  0  0  0  0  0
   -1.2712   -4.2158    1.8292 O   0  0  0  0  0  0  0  0  0  0  0  0
   -1.4307   -4.4105   -0.3758 O   0  0  0  0  0  0  0  0  0  0  0  0
    2.3237    1.4083   -0.9064 S   0  0  0  0  0  0  0  0  0  0  0  0
    8.3322   -0.5389   -2.5858 H   0  0  0  0  0  0  0  0  0  0  0  0
    8.8254    0.8689   -1.6018 H   0  0  0  0  0  0  0  0  0  0  0  0
    7.1863    0.8252   -2.4335 H   0  0  0  0  0  0  0  0  0  0  0  0
    7.4525    1.4909    0.1573 H   0  0  0  0  0  0  0  0  0  0  0  0
    6.8959    0.1371    1.1543 H   0  0  0  0  0  0  0  0  0  0  0  0
    4.8185   -1.1191    0.0867 H   0  0  0  0  0  0  0  0  0  0  0  0
   -0.5358    1.9392   -1.9491 H   0  0  0  0  0  0  0  0  0  0  0  0
   -0.4272    2.2204   -0.1730 H   0  0  0  0  0  0  0  0  0  0  0  0
   -1.8496   -0.0595   -1.6643 H   0  0  0  0  0  0  0  0  0  0  0  0
   -2.5659    2.8565   -2.1877 H   0  0  0  0  0  0  0  0  0  0  0  0
   -4.3236    2.6053   -2.0062 H   0  0  0  0  0  0  0  0  0  0  0  0
   -3.3395    1.3627   -2.8319 H   0  0  0  0  0  0  0  0  0  0  0  0
   -2.2451    3.1683    0.3564 H   0  0  0  0  0  0  0  0  0  0  0  0
   -2.9987    2.0589    1.4891 H   0  0  0  0  0  0  0  0  0  0  0  0
   -4.1218    4.0473   -0.0497 H   0  0  0  0  0  0  0  0  0  0  0  0
   -4.3212   -0.3157   -1.3254 H   0  0  0  0  0  0  0  0  0  0  0  0
   -5.7072    1.1939    0.6126 H   0  0  0  0  0  0  0  0  0  0  0  0
   -4.8913   -1.2932    0.8512 H   0  0  0  0  0  0  0  0  0  0  0  0
   -3.9679   -0.0321    1.7188 H   0  0  0  0  0  0  0  0  0  0  0  0
   -2.9315   -2.0169   -0.4016 H   0  0  0  0  0  0  0  0  0  0  0  0
   -2.6750   -2.1394    1.3755 H   0  0  0  0  0  0  0  0  0  0  0  0
   -0.8474   -0.8519    2.4731 H   0  0  0  0  0  0  0  0  0  0  0  0
   -1.8545    0.5544    2.2730 H   0  0  0  0  0  0  0  0  0  0  0  0
   -0.1627    0.6176    1.7200 H   0  0  0  0  0  0  0  0  0  0  0  0
   -0.6024   -1.8506   -1.1853 H   0  0  0  0  0  0  0  0  0  0  0  0
    0.4970   -2.4662    1.6306 H   0  0  0  0  0  0  0  0  0  0  0  0
    0.9961   -3.2407    0.0959 H   0  0  0  0  0  0  0  0  0  0  0  0
   -1.1502   -4.1540   -1.2647 H   0  0  0  0  0  0  0  0  0  0  0  0
  1  2  1  0  0  0  0
  1 29  1  0  0  0  0
  1 30  1  0  0  0  0
  1 31  1  0  0  0  0
  2  3  1  0  0  0  0
  3  4  1  0  0  0  0
  3 32  1  0  0  0  0
  3 33  1  0  0  0  0
  4  5  2  0  0  0  0
  4  6  1  0  0  0  0
  6  7  1  0  0  0  0
  6 34  1  0  0  0  0
  7  8  2  0  0  0  0
  8  9  1  0  0  0  0
  9 10  2  0  0  0  0
 10 11  1  0  0  0  0
 10 28  1  0  0  0  0
 11 35  1  0  0  0  0
 11 36  1  0  0  0  0
 12 11  1  0  0  0  0
 12 13  1  0  0  0  0
 12 37  1  6  0  0  0
 13 14  1  6  0  0  0
 13 15  1  0  0  0  0
 13 17  1  0  0  0  0
 14 38  1  0  0  0  0
 14 39  1  0  0  0  0
 14 40  1  0  0  0  0
 15 16  1  0  0  0  0
 15 41  1  0  0  0  0
 15 42  1  0  0  0  0
 16 43  1  0  0  0  0
 17 18  1  0  0  0  0
 17 19  1  0  0  0  0
 17 44  1  6  0  0  0
 18 45  1  0  0  0  0
 19 20  1  0  0  0  0
 19 46  1  0  0  0  0
 19 47  1  0  0  0  0
 20 21  1  0  0  0  0
 20 48  1  0  0  0  0
 20 49  1  0  0  0  0
 21 22  1  1  0  0  0
 21 23  1  0  0  0  0
 21 12  1  0  0  0  0
 22 50  1  0  0  0  0
 22 51  1  0  0  0  0
 22 52  1  0  0  0  0
 23 24  1  0  0  0  0
 23  9  1  0  0  0  0
 23 53  1  6  0  0  0
 24 25  1  0  0  0  0
 24 54  1  0  0  0  0
 24 55  1  0  0  0  0
 25 26  2  0  0  0  0
 25 27  1  0  0  0  0
 27 56  1  0  0  0  0
 28  7  1  0  0  0  0
M  END
>  <IDENTIFIER>
CNP0011894.1

>  <Energy>
578.999

$$$$
