
 OpenBabel09092502073D

 61 66  0  0  0  0  0  0  0  0999 V2000
    4.8357    0.1636    0.8849 C   0  0  0  0  0  0  0  0  0  0  0  0
    3.3844    0.4504    1.3507 C   0  0  0  0  0  0  0  0  0  0  0  0
    3.3558    0.0647    2.8495 C   0  0  0  0  0  0  0  0  0  0  0  0
    3.1716    1.9478    1.2127 C   0  0  0  0  0  0  0  0  0  0  0  0
    3.1398    2.6937    2.1812 O   0  0  0  0  0  0  0  0  0  0  0  0
    3.1367    2.5179   -0.1398 C   0  0  0  0  0  0  0  0  0  0  0  0
    2.7865    1.7598   -1.1881 C   0  0  0  0  0  0  0  0  0  0  0  0
    2.2836    0.3166   -1.0607 C   0  0  1  0  0  0  0  0  0  0  0  0
    3.1828   -0.5526   -1.9747 C   0  0  0  0  0  0  0  0  0  0  0  0
    2.3669   -0.2557    0.3845 C   0  0  0  0  0  0  0  0  0  0  0  0
    1.5852   -1.3740    0.6428 C   0  0  0  0  0  0  0  0  0  0  0  0
    1.5793   -2.0890    1.7947 O   0  0  0  0  0  0  0  0  0  0  0  0
    0.6143   -1.9097   -0.3642 C   0  0  0  0  0  0  0  0  0  0  0  0
    0.1325   -3.0186   -0.1693 O   0  0  0  0  0  0  0  0  0  0  0  0
    0.1154   -1.1161   -1.5570 C   0  0  2  0  0  0  0  0  0  0  0  0
    0.3860   -1.9373   -2.8545 C   0  0  0  0  0  0  0  0  0  0  0  0
    0.7857    0.3248   -1.5793 C   0  0  1  0  0  0  0  0  0  0  0  0
   -0.1338    1.4480   -0.9091 C   0  0  0  0  0  0  0  0  0  0  0  0
   -0.9460    0.9554    0.2967 C   0  0  0  0  0  0  0  0  0  0  0  0
   -1.9505   -0.1633   -0.1210 C   0  0  1  0  0  0  0  0  0  0  0  0
   -2.1265   -1.1257    1.0844 C   0  0  0  0  0  0  0  0  0  0  0  0
   -3.3446    0.3390   -0.6245 C   0  0  2  0  0  0  0  0  0  0  0  0
   -4.3696    0.8222    0.3772 C   0  0  0  0  0  0  0  0  0  0  0  0
   -4.8655    2.1076    0.4701 C   0  0  0  0  0  0  0  0  0  0  0  0
   -5.7583    2.1640    1.4328 O   0  0  0  0  0  0  0  0  0  0  0  0
   -5.8784    0.9721    1.9742 C   0  0  0  0  0  0  0  0  0  0  0  0
   -5.0287    0.0888    1.3444 C   0  0  0  0  0  0  0  0  0  0  0  0
   -3.8535   -0.8362   -1.4889 C   0  0  0  0  0  0  0  0  0  0  0  0
   -2.5936   -1.3565   -2.1869 C   0  0  1  0  0  0  0  0  0  0  0  0
   -1.8241   -0.2783   -2.6142 O   0  0  0  0  0  0  0  0  0  0  0  0
   -1.4207   -0.9091   -1.3914 C   0  0  2  0  0  0  0  0  0  0  0  0
    5.5712    0.6489    1.5638 H   0  0  0  0  0  0  0  0  0  0  0  0
    5.0618    0.5742   -0.1137 H   0  0  0  0  0  0  0  0  0  0  0  0
    5.0352   -0.9299    0.8828 H   0  0  0  0  0  0  0  0  0  0  0  0
    4.0478    0.7117    3.4326 H   0  0  0  0  0  0  0  0  0  0  0  0
    3.7600   -0.9531    3.0200 H   0  0  0  0  0  0  0  0  0  0  0  0
    2.3381    0.1971    3.2754 H   0  0  0  0  0  0  0  0  0  0  0  0
    3.3637    3.5695   -0.2894 H   0  0  0  0  0  0  0  0  0  0  0  0
    2.7679    2.2261   -2.1697 H   0  0  0  0  0  0  0  0  0  0  0  0
    4.2573   -0.4316   -1.7647 H   0  0  0  0  0  0  0  0  0  0  0  0
    3.0428   -0.2791   -3.0427 H   0  0  0  0  0  0  0  0  0  0  0  0
    3.0010   -1.6306   -1.8197 H   0  0  0  0  0  0  0  0  0  0  0  0
    2.0680   -1.9774    2.6041 H   0  0  0  0  0  0  0  0  0  0  0  0
    1.4355   -2.1985   -3.0374 H   0  0  0  0  0  0  0  0  0  0  0  0
    0.0407   -1.3873   -3.7547 H   0  0  0  0  0  0  0  0  0  0  0  0
   -0.1626   -2.9028   -2.8142 H   0  0  0  0  0  0  0  0  0  0  0  0
    0.8296    0.6737   -2.6371 H   0  0  0  0  0  0  0  0  0  0  0  0
   -0.8801    1.7974   -1.6538 H   0  0  0  0  0  0  0  0  0  0  0  0
    0.4344    2.3606   -0.6495 H   0  0  0  0  0  0  0  0  0  0  0  0
   -1.4955    1.7761    0.8062 H   0  0  0  0  0  0  0  0  0  0  0  0
   -0.1955    0.5800    1.0203 H   0  0  0  0  0  0  0  0  0  0  0  0
   -2.5426   -0.5789    1.9551 H   0  0  0  0  0  0  0  0  0  0  0  0
   -1.1665   -1.5387    1.4380 H   0  0  0  0  0  0  0  0  0  0  0  0
   -2.7848   -1.9834    0.8414 H   0  0  0  0  0  0  0  0  0  0  0  0
   -3.1443    1.1911   -1.3143 H   0  0  0  0  0  0  0  0  0  0  0  0
   -4.5797    2.9498   -0.1463 H   0  0  0  0  0  0  0  0  0  0  0  0
   -6.5537    0.7331    2.7850 H   0  0  0  0  0  0  0  0  0  0  0  0
   -4.9209   -0.9642    1.5653 H   0  0  0  0  0  0  0  0  0  0  0  0
   -4.6455   -0.5151   -2.1985 H   0  0  0  0  0  0  0  0  0  0  0  0
   -4.2488   -1.6608   -0.8597 H   0  0  0  0  0  0  0  0  0  0  0  0
   -2.5317   -2.2298   -2.8673 H   0  0  0  0  0  0  0  0  0  0  0  0
  1  2  1  0  0  0  0
  1 32  1  0  0  0  0
  1 33  1  0  0  0  0
  1 34  1  0  0  0  0
  2  3  1  0  0  0  0
  2  4  1  0  0  0  0
  3 35  1  0  0  0  0
  3 36  1  0  0  0  0
  3 37  1  0  0  0  0
  4  5  2  0  0  0  0
  4  6  1  0  0  0  0
  6  7  2  0  0  0  0
  6 38  1  0  0  0  0
  7  8  1  0  0  0  0
  7 39  1  0  0  0  0
  8  9  1  6  0  0  0
  8 10  1  0  0  0  0
  9 40  1  0  0  0  0
  9 41  1  0  0  0  0
  9 42  1  0  0  0  0
 10 11  2  0  0  0  0
 10  2  1  0  0  0  0
 11 12  1  0  0  0  0
 11 13  1  0  0  0  0
 12 43  1  0  0  0  0
 13 14  2  0  0  0  0
 13 15  1  0  0  0  0
 15 16  1  6  0  0  0
 15 17  1  0  0  0  0
 16 44  1  0  0  0  0
 16 45  1  0  0  0  0
 16 46  1  0  0  0  0
 17 18  1  0  0  0  0
 17  8  1  0  0  0  0
 17 47  1  6  0  0  0
 18 19  1  0  0  0  0
 18 48  1  0  0  0  0
 18 49  1  0  0  0  0
 19 20  1  0  0  0  0
 19 50  1  0  0  0  0
 19 51  1  0  0  0  0
 20 21  1  1  0  0  0
 20 22  1  0  0  0  0
 21 52  1  0  0  0  0
 21 53  1  0  0  0  0
 21 54  1  0  0  0  0
 22 23  1  0  0  0  0
 22 28  1  0  0  0  0
 22 55  1  6  0  0  0
 23 24  2  0  0  0  0
 24 25  1  0  0  0  0
 24 56  1  0  0  0  0
 25 26  1  0  0  0  0
 26 27  2  0  0  0  0
 26 57  1  0  0  0  0
 27 23  1  0  0  0  0
 27 58  1  0  0  0  0
 28 59  1  0  0  0  0
 28 60  1  0  0  0  0
 29 28  1  0  0  0  0
 29 30  1  0  0  0  0
 29 61  1  6  0  0  0
 31 30  1  6  0  0  0
 31 15  1  0  0  0  0
 31 20  1  0  0  0  0
 31 29  1  0  0  0  0
M  END
>  <IDENTIFIER>
CNP0119210.6

>  <Energy>
2410.58

$$$$
