
 OpenBabel09102512243D

 47 47  0  0  0  0  0  0  0  0999 V2000
   -6.8333   -0.3902   -2.2189 C   0  0  0  0  0  0  0  0  0  0  0  0
   -5.7273   -0.7595   -1.2637 C   0  0  0  0  0  0  0  0  0  0  0  0
   -5.8919   -1.9655   -0.3703 C   0  0  0  0  0  0  0  0  0  0  0  0
   -4.6160    0.0102   -1.2358 C   0  0  0  0  0  0  0  0  0  0  0  0
   -3.4245   -0.2205   -0.3342 C   0  0  0  0  0  0  0  0  0  0  0  0
   -3.2249    0.9959    0.5808 C   0  0  0  0  0  0  0  0  0  0  0  0
   -2.0773    0.8308    1.6098 C   0  0  2  0  0  0  0  0  0  0  0  0
   -2.0982    2.0514    2.5500 C   0  0  0  0  0  0  0  0  0  0  0  0
   -0.6966    0.6705    0.9170 C   0  0  0  0  0  0  0  0  0  0  0  0
    0.4633    0.4496    1.9095 C   0  0  0  0  0  0  0  0  0  0  0  0
    1.6713    0.2582    1.2602 O   0  0  0  0  0  0  0  0  0  0  0  0
    2.3278    1.2043    0.5342 C   0  0  0  0  0  0  0  0  0  0  0  0
    1.8431    2.3154    0.3743 O   0  0  0  0  0  0  0  0  0  0  0  0
    3.6613    0.9267   -0.0384 C   0  0  0  0  0  0  0  0  0  0  0  0
    4.2972   -0.2446    0.1511 C   0  0  0  0  0  0  0  0  0  0  0  0
    5.6546   -0.5638   -0.3799 C   0  0  0  0  0  0  0  0  0  0  0  0
    6.2182   -1.8127   -0.0593 C   0  0  0  0  0  0  0  0  0  0  0  0
    7.4917   -2.1611   -0.5203 C   0  0  0  0  0  0  0  0  0  0  0  0
    8.2193   -1.2692   -1.3094 C   0  0  0  0  0  0  0  0  0  0  0  0
    7.6750   -0.0276   -1.6392 C   0  0  0  0  0  0  0  0  0  0  0  0
    6.4028    0.3282   -1.1805 C   0  0  0  0  0  0  0  0  0  0  0  0
   -7.6897   -1.0929   -2.1493 H   0  0  0  0  0  0  0  0  0  0  0  0
   -6.4519   -0.4103   -3.2617 H   0  0  0  0  0  0  0  0  0  0  0  0
   -7.2038    0.6309   -1.9870 H   0  0  0  0  0  0  0  0  0  0  0  0
   -6.8682   -2.4668   -0.5351 H   0  0  0  0  0  0  0  0  0  0  0  0
   -5.8435   -1.6560    0.6952 H   0  0  0  0  0  0  0  0  0  0  0  0
   -5.0902   -2.7044   -0.5811 H   0  0  0  0  0  0  0  0  0  0  0  0
   -4.5598    0.8671   -1.9038 H   0  0  0  0  0  0  0  0  0  0  0  0
   -2.5395   -0.3739   -0.9834 H   0  0  0  0  0  0  0  0  0  0  0  0
   -3.5491   -1.1219    0.2988 H   0  0  0  0  0  0  0  0  0  0  0  0
   -4.1735    1.1395    1.1462 H   0  0  0  0  0  0  0  0  0  0  0  0
   -3.0504    1.9045   -0.0382 H   0  0  0  0  0  0  0  0  0  0  0  0
   -2.2851   -0.0759    2.2204 H   0  0  0  0  0  0  0  0  0  0  0  0
   -1.8754    2.9832    1.9866 H   0  0  0  0  0  0  0  0  0  0  0  0
   -1.3691    1.9440    3.3766 H   0  0  0  0  0  0  0  0  0  0  0  0
   -3.0973    2.1539    3.0246 H   0  0  0  0  0  0  0  0  0  0  0  0
   -0.5066    1.5672    0.2919 H   0  0  0  0  0  0  0  0  0  0  0  0
   -0.7149   -0.2176    0.2532 H   0  0  0  0  0  0  0  0  0  0  0  0
    0.2438   -0.4613    2.5057 H   0  0  0  0  0  0  0  0  0  0  0  0
    0.5753    1.3027    2.6092 H   0  0  0  0  0  0  0  0  0  0  0  0
    4.1164    1.7255   -0.6084 H   0  0  0  0  0  0  0  0  0  0  0  0
    3.8027   -1.0108    0.7427 H   0  0  0  0  0  0  0  0  0  0  0  0
    5.6737   -2.5206    0.5539 H   0  0  0  0  0  0  0  0  0  0  0  0
    7.9154   -3.1235   -0.2641 H   0  0  0  0  0  0  0  0  0  0  0  0
    9.2052   -1.5395   -1.6650 H   0  0  0  0  0  0  0  0  0  0  0  0
    8.2404    0.6631   -2.2517 H   0  0  0  0  0  0  0  0  0  0  0  0
    6.0274    1.2993   -1.4620 H   0  0  0  0  0  0  0  0  0  0  0  0
  1  2  1  0  0  0  0
  1 22  1  0  0  0  0
  1 23  1  0  0  0  0
  1 24  1  0  0  0  0
  2  3  1  0  0  0  0
  2  4  2  0  0  0  0
  3 25  1  0  0  0  0
  3 26  1  0  0  0  0
  3 27  1  0  0  0  0
  4  5  1  0  0  0  0
  4 28  1  0  0  0  0
  5  6  1  0  0  0  0
  5 29  1  0  0  0  0
  5 30  1  0  0  0  0
  6  7  1  0  0  0  0
  6 31  1  0  0  0  0
  6 32  1  0  0  0  0
  7  8  1  0  0  0  0
  7  9  1  0  0  0  0
  7 33  1  1  0  0  0
  8 34  1  0  0  0  0
  8 35  1  0  0  0  0
  8 36  1  0  0  0  0
  9 10  1  0  0  0  0
  9 37  1  0  0  0  0
  9 38  1  0  0  0  0
 10 11  1  0  0  0  0
 10 39  1  0  0  0  0
 10 40  1  0  0  0  0
 11 12  1  0  0  0  0
 12 13  2  0  0  0  0
 12 14  1  0  0  0  0
 14 15  2  0  0  0  0
 14 41  1  0  0  0  0
 15 16  1  0  0  0  0
 15 42  1  0  0  0  0
 16 17  2  0  0  0  0
 17 18  1  0  0  0  0
 17 43  1  0  0  0  0
 18 19  2  0  0  0  0
 18 44  1  0  0  0  0
 19 20  1  0  0  0  0
 19 45  1  0  0  0  0
 20 21  2  0  0  0  0
 20 46  1  0  0  0  0
 21 16  1  0  0  0  0
 21 47  1  0  0  0  0
M  END
>  <IDENTIFIER>
CNP0190523.1

>  <Energy>
155.31

$$$$
