
 OpenBabel09042516093D

 77 80  0  0  0  0  0  0  0  0999 V2000
   -4.0469    3.4786    3.3662 C   0  0  0  0  0  0  0  0  0  0  0  0
   -3.3399    2.1649    3.2747 C   0  0  0  0  0  0  0  0  0  0  0  0
   -2.9541    1.6043    4.2910 O   0  0  0  0  0  0  0  0  0  0  0  0
   -3.1081    1.6300    2.0510 O   0  0  0  0  0  0  0  0  0  0  0  0
   -2.3721    0.4883    1.8199 C   0  0  0  0  0  0  0  0  0  0  0  0
   -2.1680    0.1485    0.2864 C   0  0  2  0  0  0  0  0  0  0  0  0
   -1.3480   -1.1997    0.2917 C   0  0  0  0  0  0  0  0  0  0  0  0
   -0.2771   -1.2712   -0.8024 C   0  0  0  0  0  0  0  0  0  0  0  0
    0.7331   -0.0459   -0.7828 C   0  0  1  0  0  0  0  0  0  0  0  0
    0.0684    1.2598   -0.1694 C   0  0  1  0  0  0  0  0  0  0  0  0
    0.8703    2.5030   -0.5546 C   0  0  0  0  0  0  0  0  0  0  0  0
    2.2986    2.3701    0.0187 C   0  0  0  0  0  0  0  0  0  0  0  0
    2.9607    1.1017   -0.5508 C   0  0  1  0  0  0  0  0  0  0  0  0
    4.4499    0.9662   -0.2197 C   0  0  0  0  0  0  0  0  0  0  0  0
    5.1007   -0.0851   -1.1677 C   0  0  1  0  0  0  0  0  0  0  0  0
    6.3145   -0.6776   -0.5399 N   0  0  0  0  0  0  0  0  0  0  0  0
    6.0508   -1.6955    0.4918 C   0  0  0  0  0  0  0  0  0  0  0  0
    7.2627   -1.2052   -1.5358 C   0  0  0  0  0  0  0  0  0  0  0  0
    4.0694   -1.0992   -1.7759 C   0  0  0  0  0  0  0  0  0  0  0  0
    2.9589   -1.4841   -0.7914 C   0  0  0  0  0  0  0  0  0  0  0  0
    2.1787   -0.2415   -0.1838 C   0  0  2  0  0  0  0  0  0  0  0  0
    2.0897   -0.5073    1.3524 C   0  0  0  0  0  0  0  0  0  0  0  0
   -1.3999    1.2330   -0.5662 C   0  0  2  0  0  0  0  0  0  0  0  0
   -2.3245    2.4324   -0.5653 C   0  0  0  0  0  0  0  0  0  0  0  0
   -3.7196    1.7604   -0.7294 C   0  0  0  0  0  0  0  0  0  0  0  0
   -3.4902    0.2226   -0.5384 C   0  0  2  0  0  0  0  0  0  0  0  0
   -4.7747   -0.5996   -0.2282 C   0  0  2  0  0  0  0  0  0  0  0  0
   -5.4772   -0.3154    1.1032 C   0  0  0  0  0  0  0  0  0  0  0  0
   -4.4903   -1.9555   -0.3120 O   0  0  0  0  0  0  0  0  0  0  0  0
   -5.0105   -2.8128   -1.2315 C   0  0  0  0  0  0  0  0  0  0  0  0
   -4.5801   -4.2433   -1.2384 C   0  0  0  0  0  0  0  0  0  0  0  0
   -5.8245   -2.4344   -2.0632 O   0  0  0  0  0  0  0  0  0  0  0  0
   -4.1448    3.8031    4.4241 H   0  0  0  0  0  0  0  0  0  0  0  0
   -5.0572    3.3898    2.9166 H   0  0  0  0  0  0  0  0  0  0  0  0
   -3.4675    4.2454    2.8092 H   0  0  0  0  0  0  0  0  0  0  0  0
   -2.8500   -0.3660    2.3346 H   0  0  0  0  0  0  0  0  0  0  0  0
   -1.3905    0.6016    2.3236 H   0  0  0  0  0  0  0  0  0  0  0  0
   -2.0273   -2.0763    0.2924 H   0  0  0  0  0  0  0  0  0  0  0  0
   -0.7489   -1.2811    1.2227 H   0  0  0  0  0  0  0  0  0  0  0  0
   -0.8519   -1.2410   -1.7544 H   0  0  0  0  0  0  0  0  0  0  0  0
    0.2306   -2.2523   -0.7934 H   0  0  0  0  0  0  0  0  0  0  0  0
    0.9066    0.1216   -1.8716 H   0  0  0  0  0  0  0  0  0  0  0  0
    0.0675    1.2659    0.9287 H   0  0  0  0  0  0  0  0  0  0  0  0
    0.3936    3.4127   -0.1293 H   0  0  0  0  0  0  0  0  0  0  0  0
    0.9000    2.6095   -1.6611 H   0  0  0  0  0  0  0  0  0  0  0  0
    2.2810    2.3411    1.1282 H   0  0  0  0  0  0  0  0  0  0  0  0
    2.8793    3.2676   -0.2860 H   0  0  0  0  0  0  0  0  0  0  0  0
    2.9235    1.2731   -1.6514 H   0  0  0  0  0  0  0  0  0  0  0  0
    4.5352    0.6936    0.8476 H   0  0  0  0  0  0  0  0  0  0  0  0
    5.0027    1.9241   -0.3360 H   0  0  0  0  0  0  0  0  0  0  0  0
    5.4346    0.4903   -2.0628 H   0  0  0  0  0  0  0  0  0  0  0  0
    5.3620   -1.3156    1.2696 H   0  0  0  0  0  0  0  0  0  0  0  0
    6.9974   -1.9562    1.0120 H   0  0  0  0  0  0  0  0  0  0  0  0
    5.6408   -2.6263    0.0447 H   0  0  0  0  0  0  0  0  0  0  0  0
    7.5343   -0.4171   -2.2699 H   0  0  0  0  0  0  0  0  0  0  0  0
    6.8432   -2.0800   -2.0762 H   0  0  0  0  0  0  0  0  0  0  0  0
    8.2047   -1.5186   -1.0362 H   0  0  0  0  0  0  0  0  0  0  0  0
    4.5741   -1.9838   -2.2140 H   0  0  0  0  0  0  0  0  0  0  0  0
    3.5450   -0.6088   -2.6249 H   0  0  0  0  0  0  0  0  0  0  0  0
    3.4569   -2.0595    0.0109 H   0  0  0  0  0  0  0  0  0  0  0  0
    2.2848   -2.2107   -1.2770 H   0  0  0  0  0  0  0  0  0  0  0  0
    1.5201   -1.4398    1.5440 H   0  0  0  0  0  0  0  0  0  0  0  0
    1.6264    0.3045    1.9362 H   0  0  0  0  0  0  0  0  0  0  0  0
    3.0911   -0.6566    1.8006 H   0  0  0  0  0  0  0  0  0  0  0  0
   -1.3765    0.9750   -1.6555 H   0  0  0  0  0  0  0  0  0  0  0  0
   -2.0979    3.1925   -1.3430 H   0  0  0  0  0  0  0  0  0  0  0  0
   -2.2398    2.9463    0.4099 H   0  0  0  0  0  0  0  0  0  0  0  0
   -4.1582    1.9260   -1.7374 H   0  0  0  0  0  0  0  0  0  0  0  0
   -4.4027    2.2137    0.0173 H   0  0  0  0  0  0  0  0  0  0  0  0
   -3.2066   -0.1567   -1.5515 H   0  0  0  0  0  0  0  0  0  0  0  0
   -5.5048   -0.3089   -1.0165 H   0  0  0  0  0  0  0  0  0  0  0  0
   -4.8931   -0.6563    1.9715 H   0  0  0  0  0  0  0  0  0  0  0  0
   -6.4311   -0.8841    1.1333 H   0  0  0  0  0  0  0  0  0  0  0  0
   -5.7204    0.7604    1.2110 H   0  0  0  0  0  0  0  0  0  0  0  0
   -3.8388   -4.4277   -0.4332 H   0  0  0  0  0  0  0  0  0  0  0  0
   -4.1162   -4.4868   -2.2182 H   0  0  0  0  0  0  0  0  0  0  0  0
   -5.4610   -4.8998   -1.0795 H   0  0  0  0  0  0  0  0  0  0  0  0
  1  2  1  0  0  0  0
  1 33  1  0  0  0  0
  1 34  1  0  0  0  0
  1 35  1  0  0  0  0
  2  3  2  0  0  0  0
  2  4  1  0  0  0  0
  4  5  1  0  0  0  0
  5 36  1  0  0  0  0
  5 37  1  0  0  0  0
  6  5  1  1  0  0  0
  6  7  1  0  0  0  0
  7  8  1  0  0  0  0
  7 38  1  0  0  0  0
  7 39  1  0  0  0  0
  8 40  1  0  0  0  0
  8 41  1  0  0  0  0
  9  8  1  0  0  0  0
  9 10  1  0  0  0  0
  9 42  1  6  0  0  0
 10 11  1  0  0  0  0
 10 23  1  0  0  0  0
 10 43  1  1  0  0  0
 11 12  1  0  0  0  0
 11 44  1  0  0  0  0
 11 45  1  0  0  0  0
 12 46  1  0  0  0  0
 12 47  1  0  0  0  0
 13 12  1  0  0  0  0
 13 14  1  0  0  0  0
 13 48  1  6  0  0  0
 14 15  1  0  0  0  0
 14 49  1  0  0  0  0
 14 50  1  0  0  0  0
 15 16  1  0  0  0  0
 15 19  1  0  0  0  0
 15 51  1  6  0  0  0
 16 17  1  0  0  0  0
 16 18  1  0  0  0  0
 17 52  1  0  0  0  0
 17 53  1  0  0  0  0
 17 54  1  0  0  0  0
 18 55  1  0  0  0  0
 18 56  1  0  0  0  0
 18 57  1  0  0  0  0
 19 20  1  0  0  0  0
 19 58  1  0  0  0  0
 19 59  1  0  0  0  0
 20 21  1  0  0  0  0
 20 60  1  0  0  0  0
 20 61  1  0  0  0  0
 21 22  1  1  0  0  0
 21  9  1  0  0  0  0
 21 13  1  0  0  0  0
 22 62  1  0  0  0  0
 22 63  1  0  0  0  0
 22 64  1  0  0  0  0
 23 24  1  0  0  0  0
 23  6  1  0  0  0  0
 23 65  1  6  0  0  0
 24 25  1  0  0  0  0
 24 66  1  0  0  0  0
 24 67  1  0  0  0  0
 25 68  1  0  0  0  0
 25 69  1  0  0  0  0
 26 25  1  0  0  0  0
 26 27  1  0  0  0  0
 26  6  1  0  0  0  0
 26 70  1  6  0  0  0
 27 28  1  0  0  0  0
 27 29  1  0  0  0  0
 27 71  1  6  0  0  0
 28 72  1  0  0  0  0
 28 73  1  0  0  0  0
 28 74  1  0  0  0  0
 29 30  1  0  0  0  0
 30 31  1  0  0  0  0
 30 32  2  0  0  0  0
 31 75  1  0  0  0  0
 31 76  1  0  0  0  0
 31 77  1  0  0  0  0
M  END
>  <IDENTIFIER>
CNP0074418.1

>  <Energy>
1017.67

$$$$
