
 OpenBabel09052509323D

 51 56  0  0  0  0  0  0  0  0999 V2000
    5.1933    1.9449   -1.1450 C   0  0  0  0  0  0  0  0  0  0  0  0
    4.4902    1.9221    0.2105 C   0  0  0  0  0  0  0  0  0  0  0  0
    3.5589    0.9001    0.2854 O   0  0  0  0  0  0  0  0  0  0  0  0
    3.7739   -0.4368    0.4023 C   0  0  0  0  0  0  0  0  0  0  0  0
    5.0889   -0.9405    0.5274 C   0  0  0  0  0  0  0  0  0  0  0  0
    5.3291   -2.3061    0.6202 C   0  0  0  0  0  0  0  0  0  0  0  0
    4.2692   -3.1986    0.5962 C   0  0  0  0  0  0  0  0  0  0  0  0
    2.9616   -2.7320    0.4834 C   0  0  0  0  0  0  0  0  0  0  0  0
    2.6678   -1.3475    0.3868 C   0  0  0  0  0  0  0  0  0  0  0  0
    1.2842   -0.9133    0.2705 N   0  0  0  0  0  0  0  0  0  0  0  0
    0.2232   -1.6916   -0.1447 C   0  0  0  0  0  0  0  0  0  0  0  0
    0.3058   -2.8107   -0.6243 O   0  0  0  0  0  0  0  0  0  0  0  0
   -1.0564   -1.0164    0.2250 C   0  0  1  0  0  0  0  0  0  0  0  0
   -0.6148    0.4189   -0.0244 C   0  0  2  0  0  0  0  0  0  0  0  0
    0.7502    0.3224    0.5703 C   0  0  0  0  0  0  0  0  0  0  0  0
    1.3110    1.2196    1.1757 O   0  0  0  0  0  0  0  0  0  0  0  0
   -1.8380    1.3930    0.0452 C   0  0  2  0  0  0  0  0  0  0  0  0
   -1.2488    3.2571    0.0890 Br  0  0  0  0  0  0  0  0  0  0  0  0
   -2.7944    0.9678    1.1616 C   0  0  0  0  0  0  0  0  0  0  0  0
   -3.2753    1.7936    2.1858 C   0  0  0  0  0  0  0  0  0  0  0  0
   -4.1816    1.2775    3.1175 C   0  0  0  0  0  0  0  0  0  0  0  0
   -4.6111   -0.0531    3.0308 C   0  0  0  0  0  0  0  0  0  0  0  0
   -4.1389   -0.8895    2.0119 C   0  0  0  0  0  0  0  0  0  0  0  0
   -3.2305   -0.3872    1.0680 C   0  0  0  0  0  0  0  0  0  0  0  0
   -2.5801   -1.1874   -0.0917 C   0  0  2  0  0  0  0  0  0  0  0  0
   -3.0829   -3.0768   -0.1280 Br  0  0  0  0  0  0  0  0  0  0  0  0
   -2.9605   -0.3716   -1.3293 C   0  0  0  0  0  0  0  0  0  0  0  0
   -3.6292   -0.8608   -2.4586 C   0  0  0  0  0  0  0  0  0  0  0  0
   -3.9482    0.0133   -3.5024 C   0  0  0  0  0  0  0  0  0  0  0  0
   -3.6069    1.3701   -3.4235 C   0  0  0  0  0  0  0  0  0  0  0  0
   -2.9392    1.8728   -2.3002 C   0  0  0  0  0  0  0  0  0  0  0  0
   -2.6132    1.0095   -1.2438 C   0  0  0  0  0  0  0  0  0  0  0  0
    5.8997    2.8012   -1.1777 H   0  0  0  0  0  0  0  0  0  0  0  0
    4.4433    2.0691   -1.9543 H   0  0  0  0  0  0  0  0  0  0  0  0
    5.7634    1.0131   -1.3277 H   0  0  0  0  0  0  0  0  0  0  0  0
    3.9500    2.8860    0.3209 H   0  0  0  0  0  0  0  0  0  0  0  0
    5.2167    1.8510    1.0484 H   0  0  0  0  0  0  0  0  0  0  0  0
    5.9455   -0.2833    0.5521 H   0  0  0  0  0  0  0  0  0  0  0  0
    6.3433   -2.6736    0.7117 H   0  0  0  0  0  0  0  0  0  0  0  0
    4.4593   -4.2618    0.6721 H   0  0  0  0  0  0  0  0  0  0  0  0
    2.1901   -3.4826    0.4956 H   0  0  0  0  0  0  0  0  0  0  0  0
   -1.0276   -1.2200    1.3301 H   0  0  0  0  0  0  0  0  0  0  0  0
   -0.3045    0.5221   -1.1002 H   0  0  0  0  0  0  0  0  0  0  0  0
   -2.9651    2.8258    2.2676 H   0  0  0  0  0  0  0  0  0  0  0  0
   -4.5562    1.9129    3.9098 H   0  0  0  0  0  0  0  0  0  0  0  0
   -5.3122   -0.4378    3.7600 H   0  0  0  0  0  0  0  0  0  0  0  0
   -4.4816   -1.9134    1.9749 H   0  0  0  0  0  0  0  0  0  0  0  0
   -3.9101   -1.9018   -2.5383 H   0  0  0  0  0  0  0  0  0  0  0  0
   -4.4651   -0.3608   -4.3766 H   0  0  0  0  0  0  0  0  0  0  0  0
   -3.8593    2.0337   -4.2403 H   0  0  0  0  0  0  0  0  0  0  0  0
   -2.6811    2.9215   -2.2712 H   0  0  0  0  0  0  0  0  0  0  0  0
  1  2  1  0  0  0  0
  1 33  1  0  0  0  0
  1 34  1  0  0  0  0
  1 35  1  0  0  0  0
  2  3  1  0  0  0  0
  2 36  1  0  0  0  0
  2 37  1  0  0  0  0
  3  4  1  0  0  0  0
  4  5  2  0  0  0  0
  5  6  1  0  0  0  0
  5 38  1  0  0  0  0
  6  7  2  0  0  0  0
  6 39  1  0  0  0  0
  7  8  1  0  0  0  0
  7 40  1  0  0  0  0
  8  9  2  0  0  0  0
  8 41  1  0  0  0  0
  9 10  1  0  0  0  0
  9  4  1  0  0  0  0
 10 11  1  0  0  0  0
 11 12  2  0  0  0  0
 13 11  1  0  0  0  0
 13 14  1  0  0  0  0
 13 42  1  1  0  0  0
 14 15  1  0  0  0  0
 14 17  1  0  0  0  0
 14 43  1  6  0  0  0
 15 16  2  0  0  0  0
 15 10  1  0  0  0  0
 17 18  1  1  0  0  0
 17 19  1  0  0  0  0
 19 20  2  0  0  0  0
 20 21  1  0  0  0  0
 20 44  1  0  0  0  0
 21 22  2  0  0  0  0
 21 45  1  0  0  0  0
 22 23  1  0  0  0  0
 22 46  1  0  0  0  0
 23 24  2  0  0  0  0
 23 47  1  0  0  0  0
 24 25  1  0  0  0  0
 24 19  1  0  0  0  0
 25 26  1  6  0  0  0
 25 27  1  0  0  0  0
 25 13  1  0  0  0  0
 27 28  2  0  0  0  0
 28 29  1  0  0  0  0
 28 48  1  0  0  0  0
 29 30  2  0  0  0  0
 29 49  1  0  0  0  0
 30 31  1  0  0  0  0
 30 50  1  0  0  0  0
 31 32  2  0  0  0  0
 31 51  1  0  0  0  0
 32 17  1  0  0  0  0
 32 27  1  0  0  0  0
M  END
>  <IDENTIFIER>
CNP0060538.3

>  <Energy>
975.239

$$$$
