
 OpenBabel09122508133D

 32 35  0  0  0  0  0  0  0  0999 V2000
    4.5568    1.0777   -0.2684 O   0  0  0  0  0  0  0  0  0  0  0  0
    3.6682    0.2807   -0.0068 C   0  0  0  0  0  0  0  0  0  0  0  0
    4.0293   -0.9198    0.5025 O   0  0  0  0  0  0  0  0  0  0  0  0
    2.2312    0.7141   -0.0536 C   0  0  0  0  0  0  0  0  0  0  0  0
    2.0433    2.0880    0.1997 C   0  0  0  0  0  0  0  0  0  0  0  0
    0.7722    2.5747    0.3600 C   0  0  0  0  0  0  0  0  0  0  0  0
   -0.3162    1.7875    0.3205 C   0  0  0  0  0  0  0  0  0  0  0  0
   -1.3826    2.5658    0.5437 O   0  0  0  0  0  0  0  0  0  0  0  0
   -0.9572    3.8748    0.7192 C   0  0  0  0  0  0  0  0  0  0  0  0
    0.4228    3.8400    0.6083 O   0  0  0  0  0  0  0  0  0  0  0  0
   -0.2484    0.3972    0.0592 C   0  0  0  0  0  0  0  0  0  0  0  0
    1.0687   -0.1564   -0.2147 C   0  0  0  0  0  0  0  0  0  0  0  0
    1.1412   -1.5351   -0.6380 C   0  0  0  0  0  0  0  0  0  0  0  0
    2.3132   -2.1465   -1.2000 N   0  3  0  0  0  0  0  0  0  0  0  0
    3.0634   -1.4919   -1.8562 O   0  0  0  0  0  0  0  0  0  0  0  0
    2.3761   -3.4570   -1.3240 O   0  5  0  0  0  0  0  0  0  0  0  0
   -0.0187   -2.3212   -0.6258 C   0  0  0  0  0  0  0  0  0  0  0  0
   -1.2609   -1.8128   -0.2791 C   0  0  0  0  0  0  0  0  0  0  0  0
   -2.3726   -2.6752   -0.2969 C   0  0  0  0  0  0  0  0  0  0  0  0
   -3.6396   -2.2031    0.0240 C   0  0  0  0  0  0  0  0  0  0  0  0
   -3.8121   -0.8673    0.3594 C   0  0  0  0  0  0  0  0  0  0  0  0
   -2.7212    0.0041    0.3715 C   0  0  0  0  0  0  0  0  0  0  0  0
   -1.4096   -0.4447    0.0500 C   0  0  0  0  0  0  0  0  0  0  0  0
    3.3975   -1.5226    0.9173 H   0  0  0  0  0  0  0  0  0  0  0  0
    2.8746    2.7729    0.3166 H   0  0  0  0  0  0  0  0  0  0  0  0
   -1.2528    4.2425    1.7239 H   0  0  0  0  0  0  0  0  0  0  0  0
   -1.3882    4.5262   -0.0712 H   0  0  0  0  0  0  0  0  0  0  0  0
    0.0353   -3.3584   -0.9364 H   0  0  0  0  0  0  0  0  0  0  0  0
   -2.2608   -3.7207   -0.5600 H   0  0  0  0  0  0  0  0  0  0  0  0
   -4.4889   -2.8741    0.0125 H   0  0  0  0  0  0  0  0  0  0  0  0
   -4.7991   -0.5018    0.6138 H   0  0  0  0  0  0  0  0  0  0  0  0
   -2.9571    1.0100    0.6514 H   0  0  0  0  0  0  0  0  0  0  0  0
  1  2  2  0  0  0  0
  2  3  1  0  0  0  0
  2  4  1  0  0  0  0
  3 24  1  0  0  0  0
  4  5  2  0  0  0  0
  5  6  1  0  0  0  0
  5 25  1  0  0  0  0
  6  7  2  0  0  0  0
  7  8  1  0  0  0  0
  7 11  1  0  0  0  0
  8  9  1  0  0  0  0
  9 10  1  0  0  0  0
  9 26  1  0  0  0  0
  9 27  1  0  0  0  0
 10  6  1  0  0  0  0
 11 12  2  0  0  0  0
 12 13  1  0  0  0  0
 12  4  1  0  0  0  0
 13 14  1  0  0  0  0
 13 17  2  0  0  0  0
 14 15  2  0  0  0  0
 14 16  1  0  0  0  0
 17 18  1  0  0  0  0
 17 28  1  0  0  0  0
 18 19  2  0  0  0  0
 19 20  1  0  0  0  0
 19 29  1  0  0  0  0
 20 21  2  0  0  0  0
 20 30  1  0  0  0  0
 21 22  1  0  0  0  0
 21 31  1  0  0  0  0
 22 23  2  0  0  0  0
 22 32  1  0  0  0  0
 23 18  1  0  0  0  0
 23 11  1  0  0  0  0
M  CHG  2  14   1  16  -1
M  END
>  <IDENTIFIER>
CNP0577327.0

>  <Energy>
524.175

$$$$
