
 OpenBabel09052521573D

 47 49  0  0  0  0  0  0  0  0999 V2000
   -1.5246    4.1434    0.5166 C   0  0  0  0  0  0  0  0  0  0  0  0
   -1.9022    2.9213    0.1235 C   0  0  0  0  0  0  0  0  0  0  0  0
   -3.1450    2.5690   -0.5226 C   0  0  0  0  0  0  0  0  0  0  0  0
   -4.0423    3.3477   -0.8036 O   0  0  0  0  0  0  0  0  0  0  0  0
   -3.2173    1.2492   -0.7509 O   0  0  0  0  0  0  0  0  0  0  0  0
   -2.0198    0.6187   -0.4505 C   0  0  2  0  0  0  0  0  0  0  0  0
   -2.2010   -0.6642    0.3838 C   0  0  1  0  0  0  0  0  0  0  0  0
   -3.0622   -1.6392   -0.3685 C   0  0  0  0  0  0  0  0  0  0  0  0
   -4.5483   -1.5198   -0.5317 C   0  0  0  0  0  0  0  0  0  0  0  0
   -2.3368   -2.5888   -0.9504 C   0  0  0  0  0  0  0  0  0  0  0  0
   -0.8848   -2.3996   -0.6802 C   0  0  0  0  0  0  0  0  0  0  0  0
   -0.9060   -1.4911    0.5651 C   0  0  1  0  0  0  0  0  0  0  0  0
    0.4693   -0.8242    0.9969 C   0  0  2  0  0  0  0  0  0  0  0  0
    1.5189   -1.9614    1.1269 C   0  0  0  0  0  0  0  0  0  0  0  0
    0.3469   -0.1992    2.2536 O   0  0  0  0  0  0  0  0  0  0  0  0
    0.9907    0.2363   -0.0401 C   0  0  2  0  0  0  0  0  0  0  0  0
    2.3418    0.4832    0.1670 O   0  0  0  0  0  0  0  0  0  0  0  0
    3.3543    0.2437   -0.7064 C   0  0  0  0  0  0  0  0  0  0  0  0
    3.1337   -0.2403   -1.8088 O   0  0  0  0  0  0  0  0  0  0  0  0
    4.7562    0.5881   -0.2766 C   0  0  0  0  0  0  0  0  0  0  0  0
    5.8119    0.2721   -1.3350 C   0  0  0  0  0  0  0  0  0  0  0  0
    0.3011    1.6268   -0.0068 C   0  0  0  0  0  0  0  0  0  0  0  0
   -1.1845    1.6356    0.3532 C   0  0  1  0  0  0  0  0  0  0  0  0
   -2.1557    5.0050    0.3236 H   0  0  0  0  0  0  0  0  0  0  0  0
   -0.5822    4.2904    1.0331 H   0  0  0  0  0  0  0  0  0  0  0  0
   -1.5475    0.3915   -1.4338 H   0  0  0  0  0  0  0  0  0  0  0  0
   -2.6324   -0.4271    1.3827 H   0  0  0  0  0  0  0  0  0  0  0  0
   -4.9305   -0.6398    0.0265 H   0  0  0  0  0  0  0  0  0  0  0  0
   -5.0408   -2.4312   -0.1326 H   0  0  0  0  0  0  0  0  0  0  0  0
   -4.8028   -1.4049   -1.6061 H   0  0  0  0  0  0  0  0  0  0  0  0
   -2.7478   -3.3429   -1.6094 H   0  0  0  0  0  0  0  0  0  0  0  0
   -0.4380   -1.9387   -1.5843 H   0  0  0  0  0  0  0  0  0  0  0  0
   -0.3755   -3.3589   -0.4464 H   0  0  0  0  0  0  0  0  0  0  0  0
   -1.1727   -2.2011    1.3874 H   0  0  0  0  0  0  0  0  0  0  0  0
    1.1695   -2.7387    1.8398 H   0  0  0  0  0  0  0  0  0  0  0  0
    2.4833   -1.5725    1.5168 H   0  0  0  0  0  0  0  0  0  0  0  0
    1.7173   -2.4422    0.1457 H   0  0  0  0  0  0  0  0  0  0  0  0
    0.0162   -0.8723    2.9043 H   0  0  0  0  0  0  0  0  0  0  0  0
    0.8339   -0.2048   -1.0454 H   0  0  0  0  0  0  0  0  0  0  0  0
    4.9935    0.0171    0.6465 H   0  0  0  0  0  0  0  0  0  0  0  0
    4.7979    1.6733   -0.0421 H   0  0  0  0  0  0  0  0  0  0  0  0
    5.8106   -0.8138   -1.5688 H   0  0  0  0  0  0  0  0  0  0  0  0
    6.8159    0.5512   -0.9507 H   0  0  0  0  0  0  0  0  0  0  0  0
    5.6136    0.8504   -2.2625 H   0  0  0  0  0  0  0  0  0  0  0  0
    0.4820    2.1106   -0.9921 H   0  0  0  0  0  0  0  0  0  0  0  0
    0.7889    2.2618    0.7664 H   0  0  0  0  0  0  0  0  0  0  0  0
   -1.2940    1.4590    1.4460 H   0  0  0  0  0  0  0  0  0  0  0  0
  1  2  2  0  0  0  0
  1 24  1  0  0  0  0
  1 25  1  0  0  0  0
  2  3  1  0  0  0  0
  3  4  2  0  0  0  0
  3  5  1  0  0  0  0
  6  5  1  0  0  0  0
  6  7  1  0  0  0  0
  6 26  1  6  0  0  0
  7  8  1  0  0  0  0
  7 27  1  1  0  0  0
  8  9  1  0  0  0  0
  8 10  2  0  0  0  0
  9 28  1  0  0  0  0
  9 29  1  0  0  0  0
  9 30  1  0  0  0  0
 10 11  1  0  0  0  0
 10 31  1  0  0  0  0
 11 32  1  0  0  0  0
 11 33  1  0  0  0  0
 12 11  1  0  0  0  0
 12 13  1  0  0  0  0
 12  7  1  0  0  0  0
 12 34  1  1  0  0  0
 13 14  1  0  0  0  0
 13 15  1  1  0  0  0
 13 16  1  0  0  0  0
 14 35  1  0  0  0  0
 14 36  1  0  0  0  0
 14 37  1  0  0  0  0
 15 38  1  0  0  0  0
 16 17  1  0  0  0  0
 16 22  1  0  0  0  0
 16 39  1  6  0  0  0
 17 18  1  0  0  0  0
 18 19  2  0  0  0  0
 18 20  1  0  0  0  0
 20 21  1  0  0  0  0
 20 40  1  0  0  0  0
 20 41  1  0  0  0  0
 21 42  1  0  0  0  0
 21 43  1  0  0  0  0
 21 44  1  0  0  0  0
 22 45  1  0  0  0  0
 22 46  1  0  0  0  0
 23 22  1  0  0  0  0
 23  2  1  0  0  0  0
 23  6  1  0  0  0  0
 23 47  1  1  0  0  0
M  END
>  <IDENTIFIER>
CNP0236868.1

>  <Energy>
512.248

$$$$
