
 OpenBabel09062506353D

185205  0  0  0  0  0  0  0  0999 V2000
   -6.3568    9.7519    2.3819 C   0  0  0  0  0  0  0  0  0  0  0  0
   -5.5815    8.4954    2.2358 C   0  0  0  0  0  0  0  0  0  0  0  0
   -4.5436    8.1885    3.1182 C   0  0  0  0  0  0  0  0  0  0  0  0
   -3.8152    7.0164    2.9766 C   0  0  0  0  0  0  0  0  0  0  0  0
   -2.8094    6.7380    3.8283 O   0  0  0  0  0  0  0  0  0  0  0  0
   -4.1213    6.1377    1.9400 C   0  0  0  0  0  0  0  0  0  0  0  0
   -3.3422    4.9184    1.7677 C   0  0  0  0  0  0  0  0  0  0  0  0
   -2.4498    4.6587    2.5603 O   0  0  0  0  0  0  0  0  0  0  0  0
   -3.6064    4.0328    0.6306 C   0  0  0  0  0  0  0  0  0  0  0  0
   -2.7909    2.9216    0.4701 C   0  0  0  0  0  0  0  0  0  0  0  0
   -3.0226    2.0968   -0.6136 C   0  0  0  0  0  0  0  0  0  0  0  0
   -4.1063    2.2706   -1.5232 C   0  0  0  0  0  0  0  0  0  0  0  0
   -4.4488    1.3828   -2.6170 C   0  0  0  0  0  0  0  0  0  0  0  0
   -5.5187    1.6564   -3.3970 N   0  0  0  0  0  0  0  0  0  0  0  0
   -6.2878    2.7329   -3.2230 C   0  0  0  0  0  0  0  0  0  0  0  0
   -6.0153    3.6027   -2.2140 C   0  0  0  0  0  0  0  0  0  0  0  0
   -4.9352    3.4062   -1.3318 C   0  0  0  0  0  0  0  0  0  0  0  0
   -4.6709    4.3087   -0.2690 C   0  0  0  0  0  0  0  0  0  0  0  0
   -5.4757    5.5537   -0.0431 C   0  0  0  0  0  0  0  0  0  0  0  0
   -6.3767    5.9069   -0.7801 O   0  0  0  0  0  0  0  0  0  0  0  0
   -5.1583    6.4434    1.0550 C   0  0  0  0  0  0  0  0  0  0  0  0
   -5.8913    7.6223    1.2058 C   0  0  0  0  0  0  0  0  0  0  0  0
   -3.8025    0.1732   -2.9399 N   0  0  0  0  0  0  0  0  0  0  0  0
   -2.7579   -0.3718   -2.1501 C   0  0  0  0  0  0  0  0  0  0  0  0
   -2.5251   -1.8103   -2.4922 C   0  0  1  0  0  0  0  0  0  0  0  0
   -2.1778   -1.9221   -3.8391 O   0  0  0  0  0  0  0  0  0  0  0  0
   -1.7127   -2.6704   -1.4139 C   0  0  2  0  0  0  0  0  0  0  0  0
   -2.1200   -4.1210   -1.7295 C   0  0  0  0  0  0  0  0  0  0  0  0
   -1.1607   -4.5714   -2.8356 C   0  0  0  0  0  0  0  0  0  0  0  0
   -0.6965   -5.9880   -2.5372 C   0  0  0  0  0  0  0  0  0  0  0  0
   -1.7102   -6.8540   -3.2130 C   0  0  0  0  0  0  0  0  0  0  0  0
   -2.0363   -6.1150   -4.5084 C   0  0  0  0  0  0  0  0  0  0  0  0
   -1.9206   -4.6356   -4.1896 C   0  0  0  0  0  0  0  0  0  0  0  0
    0.0631   -3.6474   -2.7127 C   0  0  1  0  0  0  0  0  0  0  0  0
    0.2534   -2.6405   -3.7567 C   0  0  0  0  0  0  0  0  0  0  0  0
    0.6619   -1.6906   -4.3625 C   0  0  0  0  0  0  0  0  0  0  0  0
    1.1351   -0.5354   -5.0653 C   0  0  0  0  0  0  0  0  0  0  0  0
    1.9645    0.6404   -4.4318 C   0  0  2  0  0  0  0  0  0  0  0  0
    2.9318    1.0174   -5.5941 C   0  0  0  0  0  0  0  0  0  0  0  0
    3.9955   -0.1502   -5.8202 C   0  0  0  0  0  0  0  0  0  0  0  0
    4.4208   -0.8761   -4.4995 C   0  0  0  0  0  0  0  0  0  0  0  0
    4.2822    0.1433   -3.4175 C   0  0  2  0  0  0  0  0  0  0  0  0
    5.1001    0.0068   -2.1787 C   0  0  0  0  0  0  0  0  0  0  0  0
    5.3847    1.4666   -1.6785 C   0  0  2  0  0  0  0  0  0  0  0  0
    6.3983    2.1289   -2.7070 C   0  0  0  0  0  0  0  0  0  0  0  0
    7.6653    2.6684   -2.0889 C   0  0  0  0  0  0  0  0  0  0  0  0
    7.3156    3.4280   -0.8549 C   0  0  0  0  0  0  0  0  0  0  0  0
    7.6891    4.5769   -0.7002 O   0  0  0  0  0  0  0  0  0  0  0  0
    6.5316    2.7242    0.2125 C   0  0  0  0  0  0  0  0  0  0  0  0
    6.0674    1.3358   -0.2999 C   0  0  1  0  0  0  0  0  0  0  0  0
    5.3099    0.5388    0.7652 C   0  0  0  0  0  0  0  0  0  0  0  0
    6.1991    0.4749    1.9489 C   0  0  0  0  0  0  0  0  0  0  0  0
    7.2978   -0.3902    1.9221 C   0  0  0  0  0  0  0  0  0  0  0  0
    8.1790   -0.4186    2.9828 C   0  0  0  0  0  0  0  0  0  0  0  0
    7.9935    0.4413    4.0719 C   0  0  0  0  0  0  0  0  0  0  0  0
    6.9059    1.3339    4.0829 C   0  0  0  0  0  0  0  0  0  0  0  0
    6.0083    1.3481    3.0202 C   0  0  0  0  0  0  0  0  0  0  0  0
    6.7078    2.2500    5.2064 C   0  0  0  0  0  0  0  0  0  0  0  0
    7.5334    2.2109    6.2507 C   0  0  0  0  0  0  0  0  0  0  0  0
    8.6349    1.3083    6.2891 N   0  0  0  0  0  0  0  0  0  0  0  0
    8.9807    0.3985    5.2071 C   0  0  2  0  0  0  0  0  0  0  0  0
   10.3194    0.7292    4.7127 N   0  0  0  0  0  0  0  0  0  0  0  0
    4.1051    2.3360   -1.7759 C   0  0  0  0  0  0  0  0  0  0  0  0
    2.9862    1.9412   -2.4688 C   0  0  0  0  0  0  0  0  0  0  0  0
    2.0863    2.9470   -2.5103 N   0  0  0  0  0  0  0  0  0  0  0  0
    2.6891    3.9571   -1.8596 C   0  0  0  0  0  0  0  0  0  0  0  0
    3.9219    3.6246   -1.4255 N   0  0  0  0  0  0  0  0  0  0  0  0
    2.8257    0.5633   -3.0877 C   0  0  1  0  0  0  0  0  0  0  0  0
    2.0826   -0.2268   -2.0266 C   0  0  0  0  0  0  0  0  0  0  0  0
    1.9414   -1.5792   -1.9431 C   0  0  0  0  0  0  0  0  0  0  0  0
    0.7800   -1.7765   -1.2060 C   0  0  0  0  0  0  0  0  0  0  0  0
    0.4600   -0.5996   -0.6507 C   0  0  0  0  0  0  0  0  0  0  0  0
    1.2370    0.3518   -1.1715 N   0  0  0  0  0  0  0  0  0  0  0  0
   -0.6048   -0.3066    0.2759 C   0  0  0  0  0  0  0  0  0  0  0  0
   -0.4544    0.8596    0.9302 C   0  0  0  0  0  0  0  0  0  0  0  0
   -1.4545    1.3949    1.8775 C   0  0  1  0  0  0  0  0  0  0  0  0
   -1.8045    2.6538    1.3993 O   0  0  0  0  0  0  0  0  0  0  0  0
   -2.6140    0.6048    1.9242 O   0  0  0  0  0  0  0  0  0  0  0  0
   -2.3266   -0.7901    2.0183 C   0  0  2  0  0  0  0  0  0  0  0  0
   -1.7494   -1.2016    0.6682 C   0  0  0  0  0  0  0  0  0  0  0  0
   -2.2359   -2.2601   -0.0447 C   0  0  0  0  0  0  0  0  0  0  0  0
   -3.6240   -2.7284    0.2705 C   0  0  0  0  0  0  0  0  0  0  0  0
   -4.0332   -2.7431    1.7105 C   0  0  1  0  0  0  0  0  0  0  0  0
   -5.5790   -2.8703    1.6912 C   0  0  0  0  0  0  0  0  0  0  0  0
   -5.9195   -4.0931    2.4425 C   0  0  0  0  0  0  0  0  0  0  0  0
   -4.6473   -4.9575    2.4461 C   0  0  0  0  0  0  0  0  0  0  0  0
   -4.6196   -5.8368    3.6889 C   0  0  0  0  0  0  0  0  0  0  0  0
   -5.7243   -6.8215    3.3819 C   0  0  0  0  0  0  0  0  0  0  0  0
   -5.6064   -7.0760    1.8665 C   0  0  0  0  0  0  0  0  0  0  0  0
   -4.6997   -5.9662    1.3074 C   0  0  0  0  0  0  0  0  0  0  0  0
   -3.4518   -4.0070    2.3751 C   0  0  0  0  0  0  0  0  0  0  0  0
   -3.6976   -1.4197    2.3676 C   0  0  1  0  0  0  0  0  0  0  0  0
   -4.0501   -1.4219    3.7384 O   0  0  0  0  0  0  0  0  0  0  0  0
   -1.2435   -1.1117    3.1326 C   0  0  1  0  0  0  0  0  0  0  0  0
   -0.0094   -1.6072    2.6458 O   0  0  0  0  0  0  0  0  0  0  0  0
   -1.1287    0.1044    4.0850 C   0  0  2  0  0  0  0  0  0  0  0  0
   -2.3105    0.2207    4.8495 O   0  0  0  0  0  0  0  0  0  0  0  0
   -0.8655    1.4479    3.3188 C   0  0  1  0  0  0  0  0  0  0  0  0
    0.4981    1.7910    3.3295 O   0  0  0  0  0  0  0  0  0  0  0  0
   -0.1490   -2.9399   -1.3526 C   0  0  1  0  0  0  0  0  0  0  0  0
   -5.9801   10.3310    3.2470 H   0  0  0  0  0  0  0  0  0  0  0  0
   -7.4254    9.5018    2.5427 H   0  0  0  0  0  0  0  0  0  0  0  0
   -6.2471   10.3567    1.4576 H   0  0  0  0  0  0  0  0  0  0  0  0
   -4.2890    8.8581    3.9176 H   0  0  0  0  0  0  0  0  0  0  0  0
   -2.5532    7.3247    4.5457 H   0  0  0  0  0  0  0  0  0  0  0  0
   -2.3046    1.3517   -0.6560 H   0  0  0  0  0  0  0  0  0  0  0  0
   -7.1291    2.9215   -3.8689 H   0  0  0  0  0  0  0  0  0  0  0  0
   -6.7115    4.3920   -2.1930 H   0  0  0  0  0  0  0  0  0  0  0  0
   -6.6971    7.8684    0.5186 H   0  0  0  0  0  0  0  0  0  0  0  0
   -4.2303   -0.4087   -3.6810 H   0  0  0  0  0  0  0  0  0  0  0  0
   -3.1848   -0.3660   -1.1465 H   0  0  0  0  0  0  0  0  0  0  0  0
   -1.8242    0.2147   -2.2968 H   0  0  0  0  0  0  0  0  0  0  0  0
   -3.5579   -2.2136   -2.4396 H   0  0  0  0  0  0  0  0  0  0  0  0
   -1.6675   -1.1103   -4.0932 H   0  0  0  0  0  0  0  0  0  0  0  0
   -3.1922   -4.3222   -1.9565 H   0  0  0  0  0  0  0  0  0  0  0  0
   -1.9403   -4.6975   -0.7945 H   0  0  0  0  0  0  0  0  0  0  0  0
   -0.5549   -6.1886   -1.4498 H   0  0  0  0  0  0  0  0  0  0  0  0
    0.2798   -6.1638   -3.0262 H   0  0  0  0  0  0  0  0  0  0  0  0
   -2.6081   -6.8907   -2.5678 H   0  0  0  0  0  0  0  0  0  0  0  0
   -1.2865   -7.8645   -3.3835 H   0  0  0  0  0  0  0  0  0  0  0  0
   -3.0353   -6.3945   -4.9055 H   0  0  0  0  0  0  0  0  0  0  0  0
   -1.2544   -6.3267   -5.2641 H   0  0  0  0  0  0  0  0  0  0  0  0
   -2.9535   -4.2171   -4.0924 H   0  0  0  0  0  0  0  0  0  0  0  0
   -1.4390   -4.0860   -5.0242 H   0  0  0  0  0  0  0  0  0  0  0  0
    1.0190   -4.1774   -2.8342 H   0  0  0  0  0  0  0  0  0  0  0  0
    0.2743   -0.0648   -5.5779 H   0  0  0  0  0  0  0  0  0  0  0  0
    1.7231   -1.0794   -5.7878 H   0  0  0  0  0  0  0  0  0  0  0  0
    1.1887    1.4018   -4.1993 H   0  0  0  0  0  0  0  0  0  0  0  0
    3.4558    1.9611   -5.3173 H   0  0  0  0  0  0  0  0  0  0  0  0
    2.4099    1.2250   -6.5468 H   0  0  0  0  0  0  0  0  0  0  0  0
    4.8876    0.3284   -6.2812 H   0  0  0  0  0  0  0  0  0  0  0  0
    3.6732   -0.9404   -6.5217 H   0  0  0  0  0  0  0  0  0  0  0  0
    5.4861   -1.1882   -4.5921 H   0  0  0  0  0  0  0  0  0  0  0  0
    3.8070   -1.7593   -4.2452 H   0  0  0  0  0  0  0  0  0  0  0  0
    4.7439    0.9872   -3.9383 H   0  0  0  0  0  0  0  0  0  0  0  0
    6.0685   -0.4888   -2.3883 H   0  0  0  0  0  0  0  0  0  0  0  0
    4.5382   -0.6534   -1.4959 H   0  0  0  0  0  0  0  0  0  0  0  0
    5.8952    2.9338   -3.2924 H   0  0  0  0  0  0  0  0  0  0  0  0
    6.7579    1.3925   -3.4606 H   0  0  0  0  0  0  0  0  0  0  0  0
    8.2304    3.2542   -2.8348 H   0  0  0  0  0  0  0  0  0  0  0  0
    8.2975    1.8034   -1.7894 H   0  0  0  0  0  0  0  0  0  0  0  0
    5.6553    3.3101    0.5512 H   0  0  0  0  0  0  0  0  0  0  0  0
    7.2104    2.6213    1.0760 H   0  0  0  0  0  0  0  0  0  0  0  0
    6.9702    0.7274   -0.5008 H   0  0  0  0  0  0  0  0  0  0  0  0
    5.1633   -0.5143    0.4548 H   0  0  0  0  0  0  0  0  0  0  0  0
    4.3241    0.9922    0.9893 H   0  0  0  0  0  0  0  0  0  0  0  0
    7.4729   -1.0386    1.0722 H   0  0  0  0  0  0  0  0  0  0  0  0
    9.0103   -1.1082    2.9440 H   0  0  0  0  0  0  0  0  0  0  0  0
    5.1892    2.0596    3.0043 H   0  0  0  0  0  0  0  0  0  0  0  0
    5.8764    2.9501    5.1963 H   0  0  0  0  0  0  0  0  0  0  0  0
    7.3586    2.8794    7.0855 H   0  0  0  0  0  0  0  0  0  0  0  0
    9.2318    1.3088    7.1273 H   0  0  0  0  0  0  0  0  0  0  0  0
    8.9764   -0.6371    5.6116 H   0  0  0  0  0  0  0  0  0  0  0  0
   10.2962    1.6793    4.2741 H   0  0  0  0  0  0  0  0  0  0  0  0
   10.6125    0.0508    3.9725 H   0  0  0  0  0  0  0  0  0  0  0  0
    2.2442    4.9357   -1.7383 H   0  0  0  0  0  0  0  0  0  0  0  0
    4.5789    4.2754   -0.9574 H   0  0  0  0  0  0  0  0  0  0  0  0
    2.4488   -2.3082   -2.5514 H   0  0  0  0  0  0  0  0  0  0  0  0
    1.1001    1.3703   -1.0420 H   0  0  0  0  0  0  0  0  0  0  0  0
    0.4201    1.4872    0.8288 H   0  0  0  0  0  0  0  0  0  0  0  0
   -3.8305   -3.7365   -0.0849 H   0  0  0  0  0  0  0  0  0  0  0  0
   -4.2824   -2.0485   -0.3080 H   0  0  0  0  0  0  0  0  0  0  0  0
   -5.9769   -2.9676    0.6548 H   0  0  0  0  0  0  0  0  0  0  0  0
   -6.1238   -2.0015    2.1227 H   0  0  0  0  0  0  0  0  0  0  0  0
   -6.8079   -4.5781    1.9763 H   0  0  0  0  0  0  0  0  0  0  0  0
   -6.1674   -3.7720    3.4703 H   0  0  0  0  0  0  0  0  0  0  0  0
   -4.7900   -5.2541    4.6284 H   0  0  0  0  0  0  0  0  0  0  0  0
   -3.6402   -6.3503    3.7684 H   0  0  0  0  0  0  0  0  0  0  0  0
   -6.6872   -6.2851    3.5613 H   0  0  0  0  0  0  0  0  0  0  0  0
   -5.7297   -7.7212    4.0224 H   0  0  0  0  0  0  0  0  0  0  0  0
   -6.6229   -7.0124    1.4229 H   0  0  0  0  0  0  0  0  0  0  0  0
   -5.1460   -8.0597    1.6551 H   0  0  0  0  0  0  0  0  0  0  0  0
   -5.0329   -5.5583    0.3287 H   0  0  0  0  0  0  0  0  0  0  0  0
   -3.6765   -6.3904    1.1770 H   0  0  0  0  0  0  0  0  0  0  0  0
   -2.5455   -4.4374    1.8785 H   0  0  0  0  0  0  0  0  0  0  0  0
   -3.1105   -3.8414    3.4029 H   0  0  0  0  0  0  0  0  0  0  0  0
   -4.4045   -0.7172    1.8783 H   0  0  0  0  0  0  0  0  0  0  0  0
   -3.4889   -2.0568    4.2537 H   0  0  0  0  0  0  0  0  0  0  0  0
   -1.5378   -1.9824    3.7217 H   0  0  0  0  0  0  0  0  0  0  0  0
    0.5705   -0.8999    2.2967 H   0  0  0  0  0  0  0  0  0  0  0  0
   -0.3252   -0.0889    4.8171 H   0  0  0  0  0  0  0  0  0  0  0  0
   -3.0410    0.5833    4.2831 H   0  0  0  0  0  0  0  0  0  0  0  0
   -1.3980    2.2398    3.8903 H   0  0  0  0  0  0  0  0  0  0  0  0
    1.0149    0.9876    3.0671 H   0  0  0  0  0  0  0  0  0  0  0  0
    0.0361   -3.6239   -0.4875 H   0  0  0  0  0  0  0  0  0  0  0  0
  1  2  1  0  0  0  0
  1101  1  0  0  0  0
  1102  1  0  0  0  0
  1103  1  0  0  0  0
  2  3  2  0  0  0  0
  3  4  1  0  0  0  0
  3104  1  0  0  0  0
  4  5  1  0  0  0  0
  4  6  2  0  0  0  0
  5105  1  0  0  0  0
  6  7  1  0  0  0  0
  7  8  2  0  0  0  0
  7  9  1  0  0  0  0
  9 10  2  0  0  0  0
 10 11  1  0  0  0  0
 11 12  2  0  0  0  0
 11106  1  0  0  0  0
 12 13  1  0  0  0  0
 13 14  2  0  0  0  0
 13 23  1  0  0  0  0
 14 15  1  0  0  0  0
 15 16  2  0  0  0  0
 15107  1  0  0  0  0
 16 17  1  0  0  0  0
 16108  1  0  0  0  0
 17 18  2  0  0  0  0
 17 12  1  0  0  0  0
 18 19  1  0  0  0  0
 18  9  1  0  0  0  0
 19 20  2  0  0  0  0
 19 21  1  0  0  0  0
 21 22  2  0  0  0  0
 21  6  1  0  0  0  0
 22  2  1  0  0  0  0
 22109  1  0  0  0  0
 23 24  1  0  0  0  0
 23110  1  0  0  0  0
 24 25  1  0  0  0  0
 24111  1  0  0  0  0
 24112  1  0  0  0  0
 25 26  1  0  0  0  0
 25 27  1  0  0  0  0
 25113  1  1  0  0  0
 26114  1  0  0  0  0
 27 28  1  0  0  0  0
 27 81  1  1  0  0  0
 28115  1  0  0  0  0
 28116  1  0  0  0  0
 29 28  1  0  0  0  0
 29 30  1  0  0  0  0
 29 34  1  0  0  0  0
 30 31  1  0  0  0  0
 30117  1  0  0  0  0
 30118  1  0  0  0  0
 31 32  1  0  0  0  0
 31119  1  0  0  0  0
 31120  1  0  0  0  0
 32 33  1  0  0  0  0
 32121  1  0  0  0  0
 32122  1  0  0  0  0
 33 29  1  0  0  0  0
 33123  1  0  0  0  0
 33124  1  0  0  0  0
 34 35  1  0  0  0  0
 34125  1  1  0  0  0
 35 36  3  0  0  0  0
 36 37  1  0  0  0  0
 37126  1  0  0  0  0
 37127  1  0  0  0  0
 38 37  1  0  0  0  0
 38 39  1  0  0  0  0
 38128  1  1  0  0  0
 39 40  1  0  0  0  0
 39129  1  0  0  0  0
 39130  1  0  0  0  0
 40 41  1  0  0  0  0
 40131  1  0  0  0  0
 40132  1  0  0  0  0
 41133  1  0  0  0  0
 41134  1  0  0  0  0
 42 41  1  0  0  0  0
 42 43  1  0  0  0  0
 42135  1  6  0  0  0
 43136  1  0  0  0  0
 43137  1  0  0  0  0
 44 43  1  0  0  0  0
 44 45  1  0  0  0  0
 44 63  1  1  0  0  0
 45 46  1  0  0  0  0
 45138  1  0  0  0  0
 45139  1  0  0  0  0
 46 47  1  0  0  0  0
 46140  1  0  0  0  0
 46141  1  0  0  0  0
 47 48  2  0  0  0  0
 47 49  1  0  0  0  0
 49 50  1  0  0  0  0
 49142  1  0  0  0  0
 49143  1  0  0  0  0
 50 51  1  0  0  0  0
 50 44  1  0  0  0  0
 50144  1  6  0  0  0
 51 52  1  0  0  0  0
 51145  1  0  0  0  0
 51146  1  0  0  0  0
 52 53  2  0  0  0  0
 53 54  1  0  0  0  0
 53147  1  0  0  0  0
 54 55  2  0  0  0  0
 54148  1  0  0  0  0
 55 56  1  0  0  0  0
 56 57  2  0  0  0  0
 56 58  1  0  0  0  0
 57 52  1  0  0  0  0
 57149  1  0  0  0  0
 58 59  2  0  0  0  0
 58150  1  0  0  0  0
 59 60  1  0  0  0  0
 59151  1  0  0  0  0
 60 61  1  0  0  0  0
 60152  1  0  0  0  0
 61 62  1  0  0  0  0
 61 55  1  0  0  0  0
 61153  1  1  0  0  0
 62154  1  0  0  0  0
 62155  1  0  0  0  0
 63 64  2  0  0  0  0
 64 65  1  0  0  0  0
 65 66  2  0  0  0  0
 66 67  1  0  0  0  0
 66156  1  0  0  0  0
 67 63  1  0  0  0  0
 67157  1  0  0  0  0
 68 64  1  1  0  0  0
 68 69  1  0  0  0  0
 68 38  1  0  0  0  0
 68 42  1  0  0  0  0
 69 70  2  0  0  0  0
 70 71  1  0  0  0  0
 70158  1  0  0  0  0
 71 72  2  0  0  0  0
 72 73  1  0  0  0  0
 72 74  1  0  0  0  0
 73 69  1  0  0  0  0
 73159  1  0  0  0  0
 74 75  2  0  0  0  0
 75160  1  0  0  0  0
 76 75  1  6  0  0  0
 76 77  1  0  0  0  0
 76 78  1  0  0  0  0
 77 10  1  0  0  0  0
 79 78  1  6  0  0  0
 79 80  1  0  0  0  0
 79 94  1  0  0  0  0
 80 81  2  0  0  0  0
 80 74  1  0  0  0  0
 81 82  1  0  0  0  0
 82161  1  0  0  0  0
 82162  1  0  0  0  0
 83 82  1  6  0  0  0
 83 84  1  0  0  0  0
 83 92  1  0  0  0  0
 84 85  1  0  0  0  0
 84163  1  0  0  0  0
 84164  1  0  0  0  0
 85165  1  0  0  0  0
 85166  1  0  0  0  0
 86 85  1  0  0  0  0
 86 87  1  0  0  0  0
 86 91  1  0  0  0  0
 87 88  1  0  0  0  0
 87167  1  0  0  0  0
 87168  1  0  0  0  0
 88 89  1  0  0  0  0
 88169  1  0  0  0  0
 88170  1  0  0  0  0
 89 90  1  0  0  0  0
 89171  1  0  0  0  0
 89172  1  0  0  0  0
 90 86  1  0  0  0  0
 90173  1  0  0  0  0
 90174  1  0  0  0  0
 91 83  1  0  0  0  0
 91175  1  0  0  0  0
 91176  1  0  0  0  0
 92 93  1  0  0  0  0
 92 79  1  0  0  0  0
 92177  1  6  0  0  0
 93178  1  0  0  0  0
 94 95  1  0  0  0  0
 94 96  1  0  0  0  0
 94179  1  1  0  0  0
 95180  1  0  0  0  0
 96 97  1  0  0  0  0
 96 98  1  0  0  0  0
 96181  1  1  0  0  0
 97182  1  0  0  0  0
 98 99  1  0  0  0  0
 98 76  1  0  0  0  0
 98183  1  1  0  0  0
 99184  1  0  0  0  0
100 71  1  0  0  0  0
100 27  1  0  0  0  0
100 34  1  0  0  0  0
100185  1  1  0  0  0
M  END
>  <IDENTIFIER>
CNP0419758.1

>  <Energy>
4351.41

$$$$
