
 OpenBabel09122501473D

 45 47  0  0  0  0  0  0  0  0999 V2000
    4.6871   -1.0577    0.7528 C   0  0  0  0  0  0  0  0  0  0  0  0
    4.0940    0.2149    0.3768 N   0  0  0  0  0  0  0  0  0  0  0  0
    4.5851    1.4136    0.7709 C   0  0  0  0  0  0  0  0  0  0  0  0
    5.5653    1.5368    1.4884 O   0  0  0  0  0  0  0  0  0  0  0  0
    3.9089    2.5561    0.1001 C   0  0  0  0  0  0  0  0  0  0  0  0
    2.6292    1.8667   -0.3556 C   0  0  0  0  0  0  0  0  0  0  0  0
    3.0544    0.4110   -0.6244 C   0  0  2  0  0  0  0  0  0  0  0  0
    1.9140   -0.6173   -0.6013 C   0  0  0  0  0  0  0  0  0  0  0  0
    2.1975   -1.9607   -0.8959 C   0  0  0  0  0  0  0  0  0  0  0  0
    1.1879   -2.9159   -0.9006 C   0  0  0  0  0  0  0  0  0  0  0  0
   -0.1197   -2.5343   -0.6223 C   0  0  0  0  0  0  0  0  0  0  0  0
   -0.4225   -1.2291   -0.3497 N   0  3  0  0  0  0  0  0  0  0  0  0
   -1.8229   -0.8445   -0.0848 C   0  0  2  0  0  0  0  0  0  0  0  0
   -2.2427    0.1178   -1.0336 O   0  0  0  0  0  0  0  0  0  0  0  0
   -3.6460    0.4150   -0.9658 C   0  0  2  0  0  0  0  0  0  0  0  0
   -3.8208    1.8790   -1.3033 C   0  0  0  0  0  0  0  0  0  0  0  0
   -4.9401    2.3596   -1.3858 O   0  0  0  0  0  0  0  0  0  0  0  0
   -2.7491    2.6605   -1.5455 O   0  5  0  0  0  0  0  0  0  0  0  0
   -4.3282    0.0782    0.4097 C   0  0  1  0  0  0  0  0  0  0  0  0
   -4.6393   -1.2926    0.4579 O   0  0  0  0  0  0  0  0  0  0  0  0
   -3.3623    0.4348    1.5570 C   0  0  2  0  0  0  0  0  0  0  0  0
   -3.1963    1.8336    1.6261 O   0  0  0  0  0  0  0  0  0  0  0  0
   -1.9967   -0.3093    1.3703 C   0  0  1  0  0  0  0  0  0  0  0  0
   -1.8559   -1.3680    2.2845 O   0  0  0  0  0  0  0  0  0  0  0  0
    0.5649   -0.2772   -0.3415 C   0  0  0  0  0  0  0  0  0  0  0  0
    5.5134   -0.9252    1.4830 H   0  0  0  0  0  0  0  0  0  0  0  0
    5.1088   -1.5550   -0.1434 H   0  0  0  0  0  0  0  0  0  0  0  0
    3.9218   -1.7061    1.2287 H   0  0  0  0  0  0  0  0  0  0  0  0
    4.5460    2.8782   -0.7514 H   0  0  0  0  0  0  0  0  0  0  0  0
    3.6695    3.4116    0.7684 H   0  0  0  0  0  0  0  0  0  0  0  0
    2.0647    2.3765   -1.1650 H   0  0  0  0  0  0  0  0  0  0  0  0
    1.9978    1.8576    0.5624 H   0  0  0  0  0  0  0  0  0  0  0  0
    3.5385    0.3629   -1.6258 H   0  0  0  0  0  0  0  0  0  0  0  0
    3.2009   -2.2789   -1.1346 H   0  0  0  0  0  0  0  0  0  0  0  0
    1.4171   -3.9496   -1.1252 H   0  0  0  0  0  0  0  0  0  0  0  0
   -0.8915   -3.2947   -0.6353 H   0  0  0  0  0  0  0  0  0  0  0  0
   -2.4582   -1.7475   -0.2177 H   0  0  0  0  0  0  0  0  0  0  0  0
   -4.1804   -0.1404   -1.7674 H   0  0  0  0  0  0  0  0  0  0  0  0
   -5.2917    0.6342    0.4941 H   0  0  0  0  0  0  0  0  0  0  0  0
   -5.2708   -1.4219    1.2134 H   0  0  0  0  0  0  0  0  0  0  0  0
   -3.8022    0.1428    2.5356 H   0  0  0  0  0  0  0  0  0  0  0  0
   -2.4921    2.1124    0.9878 H   0  0  0  0  0  0  0  0  0  0  0  0
   -1.1974    0.4204    1.6219 H   0  0  0  0  0  0  0  0  0  0  0  0
   -2.6152   -1.9909    2.1431 H   0  0  0  0  0  0  0  0  0  0  0  0
    0.2865    0.7461   -0.1428 H   0  0  0  0  0  0  0  0  0  0  0  0
  1  2  1  0  0  0  0
  1 26  1  0  0  0  0
  1 27  1  0  0  0  0
  1 28  1  0  0  0  0
  2  3  1  0  0  0  0
  3  4  2  0  0  0  0
  3  5  1  0  0  0  0
  5  6  1  0  0  0  0
  5 29  1  0  0  0  0
  5 30  1  0  0  0  0
  6  7  1  0  0  0  0
  6 31  1  0  0  0  0
  6 32  1  0  0  0  0
  7  8  1  0  0  0  0
  7  2  1  0  0  0  0
  7 33  1  6  0  0  0
  8  9  2  0  0  0  0
  9 10  1  0  0  0  0
  9 34  1  0  0  0  0
 10 11  2  0  0  0  0
 10 35  1  0  0  0  0
 11 12  1  0  0  0  0
 11 36  1  0  0  0  0
 12 25  2  0  0  0  0
 13 12  1  0  0  0  0
 13 14  1  0  0  0  0
 13 37  1  6  0  0  0
 14 15  1  0  0  0  0
 15 16  1  0  0  0  0
 15 19  1  0  0  0  0
 15 38  1  6  0  0  0
 16 17  2  0  0  0  0
 16 18  1  0  0  0  0
 19 20  1  0  0  0  0
 19 21  1  0  0  0  0
 19 39  1  1  0  0  0
 20 40  1  0  0  0  0
 21 22  1  0  0  0  0
 21 23  1  0  0  0  0
 21 41  1  1  0  0  0
 22 42  1  0  0  0  0
 23 24  1  0  0  0  0
 23 13  1  0  0  0  0
 23 43  1  1  0  0  0
 24 44  1  0  0  0  0
 25  8  1  0  0  0  0
 25 45  1  0  0  0  0
M  CHG  2  12   1  18  -1
M  END
>  <IDENTIFIER>
CNP0506105.0

>  <Energy>
566.965

$$$$
