
 OpenBabel09052507573D

 55 57  0  0  0  0  0  0  0  0999 V2000
    6.4902    1.0182   -0.1096 C   0  0  0  0  0  0  0  0  0  0  0  0
    6.0207   -0.4166   -0.0877 C   0  0  0  0  0  0  0  0  0  0  0  0
    7.0246   -1.5130    0.1648 C   0  0  0  0  0  0  0  0  0  0  0  0
    4.7279   -0.7677   -0.2809 C   0  0  0  0  0  0  0  0  0  0  0  0
    3.5915    0.1569   -0.5272 C   0  0  0  0  0  0  0  0  0  0  0  0
    3.7537    1.3672   -0.5764 O   0  0  0  0  0  0  0  0  0  0  0  0
    2.3546   -0.3822   -0.6751 O   0  0  0  0  0  0  0  0  0  0  0  0
    1.1645    0.3235   -0.7862 C   0  0  1  0  0  0  0  0  0  0  0  0
    0.5296   -0.0149   -2.1416 C   0  0  0  0  0  0  0  0  0  0  0  0
   -0.8237    0.6831   -2.3082 C   0  0  0  0  0  0  0  0  0  0  0  0
   -1.8096    0.2532   -1.1903 C   0  0  2  0  0  0  0  0  0  0  0  0
   -2.0051   -1.1440   -1.2837 O   0  0  0  0  0  0  0  0  0  0  0  0
   -3.1954    0.9813   -1.4013 C   0  0  0  0  0  0  0  0  0  0  0  0
   -4.1787    0.8630   -0.1935 C   0  0  1  0  0  0  0  0  0  0  0  0
   -4.3378    2.0853    0.4800 O   0  0  0  0  0  0  0  0  0  0  0  0
   -5.4183    0.3786   -0.5816 O   0  0  0  0  0  0  0  0  0  0  0  0
   -5.6610   -0.7836    0.0428 C   0  0  0  0  0  0  0  0  0  0  0  0
   -6.6778   -1.4376   -0.1235 O   0  0  0  0  0  0  0  0  0  0  0  0
   -4.5452   -1.1595    0.8865 C   0  0  0  0  0  0  0  0  0  0  0  0
   -4.4538   -2.4299    1.6862 C   0  0  0  0  0  0  0  0  0  0  0  0
   -3.6540   -0.1628    0.7719 C   0  0  0  0  0  0  0  0  0  0  0  0
   -2.2389   -0.0360    1.3436 C   0  0  1  0  0  0  0  0  0  0  0  0
   -1.8175   -1.2696    1.8710 O   0  0  0  0  0  0  0  0  0  0  0  0
   -1.2246    0.5642    0.2536 C   0  0  2  0  0  0  0  0  0  0  0  0
   -1.1070    2.1127    0.4714 C   0  0  0  0  0  0  0  0  0  0  0  0
    0.2216   -0.0856    0.3804 C   0  0  2  0  0  0  0  0  0  0  0  0
    0.9095    0.2017    1.7360 C   0  0  0  0  0  0  0  0  0  0  0  0
    7.5825    1.0944    0.0717 H   0  0  0  0  0  0  0  0  0  0  0  0
    5.9756    1.5985    0.6849 H   0  0  0  0  0  0  0  0  0  0  0  0
    6.2806    1.4693   -1.1023 H   0  0  0  0  0  0  0  0  0  0  0  0
    8.0487   -1.1110    0.3131 H   0  0  0  0  0  0  0  0  0  0  0  0
    7.0469   -2.2102   -0.6990 H   0  0  0  0  0  0  0  0  0  0  0  0
    6.7407   -2.0774    1.0792 H   0  0  0  0  0  0  0  0  0  0  0  0
    4.4746   -1.8250   -0.2476 H   0  0  0  0  0  0  0  0  0  0  0  0
    1.3514    1.4168   -0.7496 H   0  0  0  0  0  0  0  0  0  0  0  0
    0.3911   -1.1157   -2.2246 H   0  0  0  0  0  0  0  0  0  0  0  0
    1.2109    0.3042   -2.9600 H   0  0  0  0  0  0  0  0  0  0  0  0
   -1.2438    0.4166   -3.3028 H   0  0  0  0  0  0  0  0  0  0  0  0
   -0.6738    1.7826   -2.3043 H   0  0  0  0  0  0  0  0  0  0  0  0
   -2.4104   -1.3470   -2.1672 H   0  0  0  0  0  0  0  0  0  0  0  0
   -3.6679    0.5771   -2.3232 H   0  0  0  0  0  0  0  0  0  0  0  0
   -3.0458    2.0622   -1.6141 H   0  0  0  0  0  0  0  0  0  0  0  0
   -4.8546    2.6824   -0.1219 H   0  0  0  0  0  0  0  0  0  0  0  0
   -5.3850   -3.0227    1.5734 H   0  0  0  0  0  0  0  0  0  0  0  0
   -4.3122   -2.1917    2.7604 H   0  0  0  0  0  0  0  0  0  0  0  0
   -3.6204   -3.0638    1.3250 H   0  0  0  0  0  0  0  0  0  0  0  0
   -2.2678    0.6626    2.2073 H   0  0  0  0  0  0  0  0  0  0  0  0
   -1.7516   -1.9133    1.1216 H   0  0  0  0  0  0  0  0  0  0  0  0
   -0.7437    2.3462    1.4918 H   0  0  0  0  0  0  0  0  0  0  0  0
   -2.0655    2.6419    0.3832 H   0  0  0  0  0  0  0  0  0  0  0  0
   -0.4207    2.6011   -0.2431 H   0  0  0  0  0  0  0  0  0  0  0  0
    0.1170   -1.1873    0.2973 H   0  0  0  0  0  0  0  0  0  0  0  0
    1.1636    1.2756    1.8440 H   0  0  0  0  0  0  0  0  0  0  0  0
    1.8583   -0.3694    1.8157 H   0  0  0  0  0  0  0  0  0  0  0  0
    0.2732   -0.1035    2.5897 H   0  0  0  0  0  0  0  0  0  0  0  0
  1  2  1  0  0  0  0
  1 28  1  0  0  0  0
  1 29  1  0  0  0  0
  1 30  1  0  0  0  0
  2  3  1  0  0  0  0
  2  4  2  0  0  0  0
  3 31  1  0  0  0  0
  3 32  1  0  0  0  0
  3 33  1  0  0  0  0
  4  5  1  0  0  0  0
  4 34  1  0  0  0  0
  5  6  2  0  0  0  0
  5  7  1  0  0  0  0
  8  7  1  0  0  0  0
  8  9  1  0  0  0  0
  8 35  1  1  0  0  0
  9 10  1  0  0  0  0
  9 36  1  0  0  0  0
  9 37  1  0  0  0  0
 10 11  1  0  0  0  0
 10 38  1  0  0  0  0
 10 39  1  0  0  0  0
 11 12  1  6  0  0  0
 11 13  1  0  0  0  0
 12 40  1  0  0  0  0
 13 14  1  0  0  0  0
 13 41  1  0  0  0  0
 13 42  1  0  0  0  0
 14 15  1  1  0  0  0
 14 16  1  0  0  0  0
 15 43  1  0  0  0  0
 16 17  1  0  0  0  0
 17 18  2  0  0  0  0
 17 19  1  0  0  0  0
 19 20  1  0  0  0  0
 19 21  2  0  0  0  0
 20 44  1  0  0  0  0
 20 45  1  0  0  0  0
 20 46  1  0  0  0  0
 21 22  1  0  0  0  0
 21 14  1  0  0  0  0
 22 23  1  0  0  0  0
 22 24  1  0  0  0  0
 22 47  1  1  0  0  0
 23 48  1  0  0  0  0
 24 25  1  1  0  0  0
 24 26  1  0  0  0  0
 24 11  1  0  0  0  0
 25 49  1  0  0  0  0
 25 50  1  0  0  0  0
 25 51  1  0  0  0  0
 26 27  1  0  0  0  0
 26  8  1  0  0  0  0
 26 52  1  6  0  0  0
 27 53  1  0  0  0  0
 27 54  1  0  0  0  0
 27 55  1  0  0  0  0
M  END
>  <IDENTIFIER>
CNP0249190.0

>  <Energy>
576.261

$$$$
