
 OpenBabel09122503453D

 24 23  0  0  0  0  0  0  0  0999 V2000
    1.6382   -1.1379    0.6409 C   0  0  0  0  0  0  0  0  0  0  0  0
    1.2555    0.2843    0.2138 C   0  0  0  0  0  0  0  0  0  0  0  0
    2.4409    0.8853   -0.5691 C   0  0  0  0  0  0  0  0  0  0  0  0
   -0.0591    0.3606   -0.5913 C   0  0  0  0  0  0  0  0  0  0  0  0
    0.0052    0.8480   -1.7904 N   0  0  0  0  0  0  0  0  0  0  0  0
   -1.0495    0.9957   -2.5652 O   0  0  0  0  0  0  0  0  0  0  0  0
   -1.4313   -0.0217    0.0012 C   0  0  0  0  0  0  0  0  0  0  0  0
   -1.6860    0.7019    1.3266 C   0  0  0  0  0  0  0  0  0  0  0  0
   -1.6534   -1.5341    0.1382 C   0  0  0  0  0  0  0  0  0  0  0  0
    2.6222   -1.1295    1.1574 H   0  0  0  0  0  0  0  0  0  0  0  0
    1.7057   -1.8104   -0.2410 H   0  0  0  0  0  0  0  0  0  0  0  0
    0.9324   -1.5396    1.3833 H   0  0  0  0  0  0  0  0  0  0  0  0
    1.1448    0.9044    1.1288 H   0  0  0  0  0  0  0  0  0  0  0  0
    2.6339    0.3079   -1.4998 H   0  0  0  0  0  0  0  0  0  0  0  0
    3.3630    0.8744    0.0507 H   0  0  0  0  0  0  0  0  0  0  0  0
    2.2298    1.9432   -0.8362 H   0  0  0  0  0  0  0  0  0  0  0  0
   -0.9503    1.3702   -3.4501 H   0  0  0  0  0  0  0  0  0  0  0  0
   -2.2308    0.3095   -0.6944 H   0  0  0  0  0  0  0  0  0  0  0  0
   -0.9599    0.3770    2.1013 H   0  0  0  0  0  0  0  0  0  0  0  0
   -2.7109    0.4794    1.6938 H   0  0  0  0  0  0  0  0  0  0  0  0
   -1.5988    1.8002    1.1834 H   0  0  0  0  0  0  0  0  0  0  0  0
   -1.0238   -2.0088    0.9039 H   0  0  0  0  0  0  0  0  0  0  0  0
   -1.4816   -2.0327   -0.8393 H   0  0  0  0  0  0  0  0  0  0  0  0
   -2.7053   -1.7269    0.4407 H   0  0  0  0  0  0  0  0  0  0  0  0
  1  2  1  0  0  0  0
  1 10  1  0  0  0  0
  1 11  1  0  0  0  0
  1 12  1  0  0  0  0
  2  3  1  0  0  0  0
  2  4  1  0  0  0  0
  2 13  1  0  0  0  0
  3 14  1  0  0  0  0
  3 15  1  0  0  0  0
  3 16  1  0  0  0  0
  4  5  2  0  0  0  0
  4  7  1  0  0  0  0
  5  6  1  0  0  0  0
  6 17  1  0  0  0  0
  7  8  1  0  0  0  0
  7  9  1  0  0  0  0
  7 18  1  0  0  0  0
  8 19  1  0  0  0  0
  8 20  1  0  0  0  0
  8 21  1  0  0  0  0
  9 22  1  0  0  0  0
  9 23  1  0  0  0  0
  9 24  1  0  0  0  0
M  END
>  <IDENTIFIER>
CNP0192738.0

>  <Energy>
84.5347

$$$$
