
 OpenBabel09082507393D

182192  0  0  0  0  0  0  0  0999 V2000
    1.3169   -5.6159   -2.2444 C   0  0  0  0  0  0  0  0  0  0  0  0
    0.3764   -4.7661   -1.3870 C   0  0  0  0  0  0  0  0  0  0  0  0
   -0.6649   -4.1149   -2.3026 C   0  0  0  0  0  0  0  0  0  0  0  0
   -1.7231   -3.1357   -1.7010 C   0  0  2  0  0  0  0  0  0  0  0  0
   -1.0918   -1.8998   -1.0268 C   0  0  1  0  0  0  0  0  0  0  0  0
   -1.9648   -0.6687   -1.3446 C   0  0  0  0  0  0  0  0  0  0  0  0
   -1.4993    0.6806   -0.7933 C   0  0  1  0  0  0  0  0  0  0  0  0
   -2.2827    1.0703    0.5074 C   0  0  0  0  0  0  0  0  0  0  0  0
   -2.8792    2.4620    0.5184 C   0  0  0  0  0  0  0  0  0  0  0  0
   -2.1222    3.4707    1.1211 C   0  0  0  0  0  0  0  0  0  0  0  0
   -2.6100    4.7624    1.1856 C   0  0  0  0  0  0  0  0  0  0  0  0
   -3.8092    5.0571    0.6657 N   0  0  0  0  0  0  0  0  0  0  0  0
   -4.6141    4.1392    0.1010 C   0  0  0  0  0  0  0  0  0  0  0  0
   -4.1677    2.7818   -0.0089 C   0  0  0  0  0  0  0  0  0  0  0  0
   -5.7925    4.6741   -0.4642 N   0  0  0  0  0  0  0  0  0  0  0  0
   -7.1452    4.3199   -0.2061 C   0  0  0  0  0  0  0  0  0  0  0  0
   -7.5032    3.5375    0.8986 C   0  0  0  0  0  0  0  0  0  0  0  0
   -8.7113    2.8571    0.8528 C   0  0  0  0  0  0  0  0  0  0  0  0
   -8.9072    1.8171    1.7540 C   0  0  0  0  0  0  0  0  0  0  0  0
   -8.3856    1.8352    3.0058 O   0  0  0  0  0  0  0  0  0  0  0  0
   -9.5470    0.6920    1.2399 C   0  0  0  0  0  0  0  0  0  0  0  0
  -10.2021    0.7493   -0.0047 C   0  0  0  0  0  0  0  0  0  0  0  0
  -10.3040    1.9437   -0.7016 C   0  0  0  0  0  0  0  0  0  0  0  0
   -9.5120    2.9987   -0.2965 C   0  0  0  0  0  0  0  0  0  0  0  0
   -9.3582    4.0766   -1.1492 C   0  0  0  0  0  0  0  0  0  0  0  0
   -8.1470    4.7466   -1.1177 C   0  0  0  0  0  0  0  0  0  0  0  0
   -7.8676    5.7823   -2.1726 C   0  0  0  0  0  0  0  0  0  0  0  0
   -7.3477    7.0964   -1.6017 C   0  0  0  0  0  0  0  0  0  0  0  0
   -6.9006    8.0666   -2.5070 C   0  0  0  0  0  0  0  0  0  0  0  0
   -6.3342    9.2585   -2.0471 C   0  0  0  0  0  0  0  0  0  0  0  0
   -6.2040    9.4944   -0.6762 C   0  0  0  0  0  0  0  0  0  0  0  0
   -6.6565    8.5477    0.2397 C   0  0  0  0  0  0  0  0  0  0  0  0
   -7.2332    7.3632   -0.2118 C   0  0  0  0  0  0  0  0  0  0  0  0
   -9.3586   -0.6355    1.8783 C   0  0  0  0  0  0  0  0  0  0  0  0
   -8.0112   -1.2851    1.3984 C   0  0  2  0  0  0  0  0  0  0  0  0
   -7.8389   -1.2665    0.0005 O   0  0  0  0  0  0  0  0  0  0  0  0
   -7.8217   -2.7132    1.9613 C   0  0  0  0  0  0  0  0  0  0  0  0
   -8.9383   -3.6365    1.7009 N   0  0  0  0  0  0  0  0  0  0  0  0
   -9.0711   -4.2799    0.3822 C   0  0  0  0  0  0  0  0  0  0  0  0
   -8.3101   -5.6126    0.2449 C   0  0  2  0  0  0  0  0  0  0  0  0
   -8.4141   -6.4533    1.5243 C   0  0  0  0  0  0  0  0  0  0  0  0
   -6.8950   -5.5862   -0.2706 C   0  0  0  0  0  0  0  0  0  0  0  0
   -6.2239   -6.7634   -0.5452 C   0  0  0  0  0  0  0  0  0  0  0  0
   -5.0392   -6.5058   -1.0889 N   0  0  0  0  0  0  0  0  0  0  0  0
   -4.9329   -5.1760   -1.1817 C   0  0  0  0  0  0  0  0  0  0  0  0
   -6.0574   -4.5460   -0.6596 C   0  0  0  0  0  0  0  0  0  0  0  0
   -3.7605   -4.5638   -1.8375 C   0  0  0  0  0  0  0  0  0  0  0  0
   -2.9116   -3.7308   -0.8932 C   0  0  1  0  0  0  0  0  0  0  0  0
   -2.5094   -4.4634    0.2416 O   0  0  0  0  0  0  0  0  0  0  0  0
    0.0477    0.7473   -0.7018 C   0  0  0  0  0  0  0  0  0  0  0  0
    0.6575    0.0949    0.5689 C   0  0  2  0  0  0  0  0  0  0  0  0
    2.0618    0.3781    0.4930 C   0  0  0  0  0  0  0  0  0  0  0  0
    3.2175    0.6101    0.4294 C   0  0  0  0  0  0  0  0  0  0  0  0
    4.6414    0.7540    0.4697 C   0  0  2  0  0  0  0  0  0  0  0  0
    5.1814    1.9261   -0.3224 C   0  0  0  0  0  0  0  0  0  0  0  0
    4.3984    2.5344   -1.3312 C   0  0  0  0  0  0  0  0  0  0  0  0
    4.8998    3.5998   -2.0697 C   0  0  0  0  0  0  0  0  0  0  0  0
    6.1827    4.0764   -1.8189 C   0  0  0  0  0  0  0  0  0  0  0  0
    6.9704    3.4970   -0.8230 C   0  0  0  0  0  0  0  0  0  0  0  0
    6.5029    2.4153   -0.0596 C   0  0  0  0  0  0  0  0  0  0  0  0
    7.3906    1.9269    1.1029 C   0  0  0  0  0  0  0  0  0  0  0  0
    8.3058    0.6868    0.9390 C   0  0  0  0  0  0  0  0  0  0  0  0
    9.3684    0.7446   -0.1772 C   0  0  2  0  0  0  0  0  0  0  0  0
   10.0818   -0.6265   -0.2657 C   0  0  0  0  0  0  0  0  0  0  0  0
   10.4041    1.8294    0.1642 C   0  0  0  0  0  0  0  0  0  0  0  0
   11.5257    1.8924   -0.8679 C   0  0  0  0  0  0  0  0  0  0  0  0
   12.5930    2.8228   -0.4244 C   0  0  0  0  0  0  0  0  0  0  0  0
   13.5688    2.3846    0.4869 C   0  0  0  0  0  0  0  0  0  0  0  0
   14.6089    3.2367    0.8516 C   0  0  0  0  0  0  0  0  0  0  0  0
   14.6658    4.5301    0.3223 C   0  0  0  0  0  0  0  0  0  0  0  0
   13.6759    4.9728   -0.5722 C   0  0  0  0  0  0  0  0  0  0  0  0
   13.7063    6.2152   -1.0882 O   0  0  0  0  0  0  0  0  0  0  0  0
   12.6458    4.1138   -0.9456 C   0  0  0  0  0  0  0  0  0  0  0  0
    5.3618   -0.5347    0.1487 C   0  0  0  0  0  0  0  0  0  0  0  0
    6.1949   -0.6431   -0.9998 C   0  0  0  0  0  0  0  0  0  0  0  0
    7.0286   -1.7588   -1.1891 C   0  0  0  0  0  0  0  0  0  0  0  0
    7.8245   -1.8284   -2.2774 O   0  0  0  0  0  0  0  0  0  0  0  0
    7.0810   -2.7570   -0.1983 C   0  0  0  0  0  0  0  0  0  0  0  0
    7.9443   -3.8083   -0.2703 O   0  0  0  0  0  0  0  0  0  0  0  0
    8.0490   -4.7615    0.7394 C   0  0  0  0  0  0  0  0  0  0  0  0
    6.2108   -2.6660    0.8770 C   0  0  0  0  0  0  0  0  0  0  0  0
    5.2960   -1.6416    1.0254 C   0  0  0  0  0  0  0  0  0  0  0  0
    4.2053   -1.9296    2.0469 C   0  0  0  0  0  0  0  0  0  0  0  0
    3.5043   -3.1778    1.3916 C   0  0  0  0  0  0  0  0  0  0  0  0
    2.2429   -3.8031    1.8824 C   0  0  0  0  0  0  0  0  0  0  0  0
    1.9528   -4.8874    1.3954 O   0  0  0  0  0  0  0  0  0  0  0  0
    1.2815   -3.1431    2.8284 C   0  0  2  0  0  0  0  0  0  0  0  0
    0.1453   -3.9399    3.0807 O   0  0  0  0  0  0  0  0  0  0  0  0
    0.8933   -1.7588    2.3342 C   0  0  0  0  0  0  0  0  0  0  0  0
    1.0110   -0.8444    3.1372 O   0  0  0  0  0  0  0  0  0  0  0  0
    0.5204   -1.4360    0.8657 C   0  0  1  0  0  0  0  0  0  0  0  0
   -0.8142   -2.0627    0.4799 C   0  0  0  0  0  0  0  0  0  0  0  0
    2.0907   -6.0978   -1.6142 H   0  0  0  0  0  0  0  0  0  0  0  0
    1.8222   -4.9801   -3.0049 H   0  0  0  0  0  0  0  0  0  0  0  0
    0.7394   -6.4058   -2.7729 H   0  0  0  0  0  0  0  0  0  0  0  0
    0.9786   -3.9875   -0.8800 H   0  0  0  0  0  0  0  0  0  0  0  0
   -0.0906   -5.4182   -0.6268 H   0  0  0  0  0  0  0  0  0  0  0  0
   -1.1734   -4.9063   -2.8838 H   0  0  0  0  0  0  0  0  0  0  0  0
   -0.0850   -3.5232   -3.0475 H   0  0  0  0  0  0  0  0  0  0  0  0
   -2.1722   -2.7506   -2.6436 H   0  0  0  0  0  0  0  0  0  0  0  0
   -0.1285   -1.7648   -1.5648 H   0  0  0  0  0  0  0  0  0  0  0  0
   -3.0294   -0.8255   -1.0782 H   0  0  0  0  0  0  0  0  0  0  0  0
   -1.9473   -0.5835   -2.4549 H   0  0  0  0  0  0  0  0  0  0  0  0
   -1.8230    1.3974   -1.5811 H   0  0  0  0  0  0  0  0  0  0  0  0
   -1.6710    0.9647    1.4108 H   0  0  0  0  0  0  0  0  0  0  0  0
   -3.0810    0.3490    0.7647 H   0  0  0  0  0  0  0  0  0  0  0  0
   -1.1494    3.2635    1.5383 H   0  0  0  0  0  0  0  0  0  0  0  0
   -2.0443    5.5510    1.6439 H   0  0  0  0  0  0  0  0  0  0  0  0
   -4.7566    2.0085   -0.5063 H   0  0  0  0  0  0  0  0  0  0  0  0
   -5.5879    5.3877   -1.1667 H   0  0  0  0  0  0  0  0  0  0  0  0
   -6.7714    3.2693    1.6516 H   0  0  0  0  0  0  0  0  0  0  0  0
   -8.2697    2.6841    3.4752 H   0  0  0  0  0  0  0  0  0  0  0  0
  -10.6026   -0.1435   -0.4577 H   0  0  0  0  0  0  0  0  0  0  0  0
  -10.7923    1.9701   -1.6669 H   0  0  0  0  0  0  0  0  0  0  0  0
  -10.0517    4.2603   -1.9629 H   0  0  0  0  0  0  0  0  0  0  0  0
   -8.7653    5.9830   -2.7960 H   0  0  0  0  0  0  0  0  0  0  0  0
   -7.0945    5.3461   -2.8398 H   0  0  0  0  0  0  0  0  0  0  0  0
   -6.9727    7.8863   -3.5722 H   0  0  0  0  0  0  0  0  0  0  0  0
   -5.9828    9.9939   -2.7562 H   0  0  0  0  0  0  0  0  0  0  0  0
   -5.7513   10.4095   -0.3213 H   0  0  0  0  0  0  0  0  0  0  0  0
   -6.5534    8.7231    1.3037 H   0  0  0  0  0  0  0  0  0  0  0  0
   -7.5599    6.6649    0.5441 H   0  0  0  0  0  0  0  0  0  0  0  0
  -10.2263   -1.2318    1.5586 H   0  0  0  0  0  0  0  0  0  0  0  0
   -9.3761   -0.5625    2.9858 H   0  0  0  0  0  0  0  0  0  0  0  0
   -7.1742   -0.6664    1.7992 H   0  0  0  0  0  0  0  0  0  0  0  0
   -8.6773   -1.5563   -0.4277 H   0  0  0  0  0  0  0  0  0  0  0  0
   -7.7702   -2.5892    3.0642 H   0  0  0  0  0  0  0  0  0  0  0  0
   -6.8575   -3.1592    1.6481 H   0  0  0  0  0  0  0  0  0  0  0  0
   -9.8495   -3.2128    1.9790 H   0  0  0  0  0  0  0  0  0  0  0  0
   -8.9252   -3.6234   -0.4895 H   0  0  0  0  0  0  0  0  0  0  0  0
  -10.1411   -4.5908    0.3249 H   0  0  0  0  0  0  0  0  0  0  0  0
   -8.8410   -6.1573   -0.5662 H   0  0  0  0  0  0  0  0  0  0  0  0
   -7.8588   -5.9716    2.3573 H   0  0  0  0  0  0  0  0  0  0  0  0
   -7.9890   -7.4649    1.3651 H   0  0  0  0  0  0  0  0  0  0  0  0
   -9.4783   -6.5826    1.8039 H   0  0  0  0  0  0  0  0  0  0  0  0
   -6.5943   -7.7633   -0.3899 H   0  0  0  0  0  0  0  0  0  0  0  0
   -4.3434   -7.2132   -1.4124 H   0  0  0  0  0  0  0  0  0  0  0  0
   -6.2478   -3.4785   -0.6337 H   0  0  0  0  0  0  0  0  0  0  0  0
   -4.1106   -3.9450   -2.6911 H   0  0  0  0  0  0  0  0  0  0  0  0
   -3.1407   -5.3884   -2.2359 H   0  0  0  0  0  0  0  0  0  0  0  0
   -3.5636   -2.9070   -0.5348 H   0  0  0  0  0  0  0  0  0  0  0  0
   -2.1855   -5.3513   -0.0528 H   0  0  0  0  0  0  0  0  0  0  0  0
    0.3363    1.8212   -0.6748 H   0  0  0  0  0  0  0  0  0  0  0  0
    0.5138    0.3331   -1.6306 H   0  0  0  0  0  0  0  0  0  0  0  0
    0.3103    0.6677    1.4357 H   0  0  0  0  0  0  0  0  0  0  0  0
    4.8136    1.0074    1.5332 H   0  0  0  0  0  0  0  0  0  0  0  0
    3.3961    2.1884   -1.5580 H   0  0  0  0  0  0  0  0  0  0  0  0
    4.2875    4.0584   -2.8363 H   0  0  0  0  0  0  0  0  0  0  0  0
    6.5662    4.9102   -2.3892 H   0  0  0  0  0  0  0  0  0  0  0  0
    7.9524    3.9056   -0.6377 H   0  0  0  0  0  0  0  0  0  0  0  0
    6.7562    1.7504    1.9920 H   0  0  0  0  0  0  0  0  0  0  0  0
    8.0263    2.7722    1.4235 H   0  0  0  0  0  0  0  0  0  0  0  0
    7.7149   -0.2138    0.8287 H   0  0  0  0  0  0  0  0  0  0  0  0
    8.8284    0.5231    1.9035 H   0  0  0  0  0  0  0  0  0  0  0  0
    8.8749    0.9509   -1.1561 H   0  0  0  0  0  0  0  0  0  0  0  0
   10.6484   -0.8280    0.6659 H   0  0  0  0  0  0  0  0  0  0  0  0
   10.7561   -0.6934   -1.1417 H   0  0  0  0  0  0  0  0  0  0  0  0
    9.3871   -1.4561   -0.4059 H   0  0  0  0  0  0  0  0  0  0  0  0
   10.8310    1.6040    1.1668 H   0  0  0  0  0  0  0  0  0  0  0  0
    9.9211    2.8286    0.2143 H   0  0  0  0  0  0  0  0  0  0  0  0
   11.0919    2.1961   -1.8439 H   0  0  0  0  0  0  0  0  0  0  0  0
   12.0417    0.9275   -1.0187 H   0  0  0  0  0  0  0  0  0  0  0  0
   13.5353    1.3773    0.8908 H   0  0  0  0  0  0  0  0  0  0  0  0
   15.3725    2.8891    1.5359 H   0  0  0  0  0  0  0  0  0  0  0  0
   15.4782    5.1837    0.6051 H   0  0  0  0  0  0  0  0  0  0  0  0
   14.4037    6.8448   -0.8654 H   0  0  0  0  0  0  0  0  0  0  0  0
   11.8834    4.4471   -1.6398 H   0  0  0  0  0  0  0  0  0  0  0  0
    6.2381    0.1487   -1.7374 H   0  0  0  0  0  0  0  0  0  0  0  0
    7.8447   -1.1201   -2.9393 H   0  0  0  0  0  0  0  0  0  0  0  0
    8.8201   -5.5138    0.5076 H   0  0  0  0  0  0  0  0  0  0  0  0
    7.0755   -5.2896    0.8716 H   0  0  0  0  0  0  0  0  0  0  0  0
    8.3170   -4.2659    1.7042 H   0  0  0  0  0  0  0  0  0  0  0  0
    6.1957   -3.4329    1.6308 H   0  0  0  0  0  0  0  0  0  0  0  0
    3.5002   -1.1003    2.1725 H   0  0  0  0  0  0  0  0  0  0  0  0
    4.6212   -2.1568    3.0527 H   0  0  0  0  0  0  0  0  0  0  0  0
    4.2116   -4.0277    1.3779 H   0  0  0  0  0  0  0  0  0  0  0  0
    3.2971   -2.9364    0.3220 H   0  0  0  0  0  0  0  0  0  0  0  0
    1.8087   -3.0395    3.8013 H   0  0  0  0  0  0  0  0  0  0  0  0
   -0.1721   -4.3541    2.2394 H   0  0  0  0  0  0  0  0  0  0  0  0
    1.2559   -1.9464    0.2066 H   0  0  0  0  0  0  0  0  0  0  0  0
   -1.6666   -1.7261    1.1086 H   0  0  0  0  0  0  0  0  0  0  0  0
   -0.6526   -3.1269    0.6514 H   0  0  0  0  0  0  0  0  0  0  0  0
  1  2  1  0  0  0  0
  1 93  1  0  0  0  0
  1 94  1  0  0  0  0
  1 95  1  0  0  0  0
  2  3  1  0  0  0  0
  2 96  1  0  0  0  0
  2 97  1  0  0  0  0
  3 98  1  0  0  0  0
  3 99  1  0  0  0  0
  4  3  1  0  0  0  0
  4  5  1  0  0  0  0
  4100  1  6  0  0  0
  5  6  1  0  0  0  0
  5 92  1  0  0  0  0
  5101  1  6  0  0  0
  6  7  1  0  0  0  0
  6102  1  0  0  0  0
  6103  1  0  0  0  0
  7  8  1  0  0  0  0
  7 50  1  0  0  0  0
  7104  1  6  0  0  0
  8  9  1  0  0  0  0
  8105  1  0  0  0  0
  8106  1  0  0  0  0
  9 10  2  0  0  0  0
 10 11  1  0  0  0  0
 10107  1  0  0  0  0
 11 12  2  0  0  0  0
 11108  1  0  0  0  0
 12 13  1  0  0  0  0
 13 14  2  0  0  0  0
 13 15  1  0  0  0  0
 14  9  1  0  0  0  0
 14109  1  0  0  0  0
 15 16  1  0  0  0  0
 15110  1  0  0  0  0
 16 17  2  0  0  0  0
 17 18  1  0  0  0  0
 17111  1  0  0  0  0
 18 19  2  0  0  0  0
 19 20  1  0  0  0  0
 19 21  1  0  0  0  0
 20112  1  0  0  0  0
 21 22  2  0  0  0  0
 21 34  1  0  0  0  0
 22 23  1  0  0  0  0
 22113  1  0  0  0  0
 23 24  2  0  0  0  0
 23114  1  0  0  0  0
 24 25  1  0  0  0  0
 24 18  1  0  0  0  0
 25 26  2  0  0  0  0
 25115  1  0  0  0  0
 26 27  1  0  0  0  0
 26 16  1  0  0  0  0
 27 28  1  0  0  0  0
 27116  1  0  0  0  0
 27117  1  0  0  0  0
 28 29  2  0  0  0  0
 29 30  1  0  0  0  0
 29118  1  0  0  0  0
 30 31  2  0  0  0  0
 30119  1  0  0  0  0
 31 32  1  0  0  0  0
 31120  1  0  0  0  0
 32 33  2  0  0  0  0
 32121  1  0  0  0  0
 33 28  1  0  0  0  0
 33122  1  0  0  0  0
 34 35  1  0  0  0  0
 34123  1  0  0  0  0
 34124  1  0  0  0  0
 35 36  1  0  0  0  0
 35 37  1  0  0  0  0
 35125  1  1  0  0  0
 36126  1  0  0  0  0
 37 38  1  0  0  0  0
 37127  1  0  0  0  0
 37128  1  0  0  0  0
 38 39  1  0  0  0  0
 38129  1  0  0  0  0
 39 40  1  0  0  0  0
 39130  1  0  0  0  0
 39131  1  0  0  0  0
 40 41  1  0  0  0  0
 40 42  1  0  0  0  0
 40132  1  6  0  0  0
 41133  1  0  0  0  0
 41134  1  0  0  0  0
 41135  1  0  0  0  0
 42 43  2  0  0  0  0
 43 44  1  0  0  0  0
 43136  1  0  0  0  0
 44 45  1  0  0  0  0
 44137  1  0  0  0  0
 45 46  2  0  0  0  0
 45 47  1  0  0  0  0
 46 42  1  0  0  0  0
 46138  1  0  0  0  0
 47 48  1  0  0  0  0
 47139  1  0  0  0  0
 47140  1  0  0  0  0
 48 49  1  0  0  0  0
 48  4  1  0  0  0  0
 48141  1  1  0  0  0
 49142  1  0  0  0  0
 50143  1  0  0  0  0
 50144  1  0  0  0  0
 51 50  1  0  0  0  0
 51 52  1  0  0  0  0
 51145  1  1  0  0  0
 52 53  3  0  0  0  0
 53 54  1  0  0  0  0
 54 55  1  0  0  0  0
 54 74  1  0  0  0  0
 54146  1  1  0  0  0
 55 56  2  0  0  0  0
 56 57  1  0  0  0  0
 56147  1  0  0  0  0
 57 58  2  0  0  0  0
 57148  1  0  0  0  0
 58 59  1  0  0  0  0
 58149  1  0  0  0  0
 59 60  2  0  0  0  0
 59150  1  0  0  0  0
 60 61  1  0  0  0  0
 60 55  1  0  0  0  0
 61 62  1  0  0  0  0
 61151  1  0  0  0  0
 61152  1  0  0  0  0
 62 63  1  0  0  0  0
 62153  1  0  0  0  0
 62154  1  0  0  0  0
 63 64  1  0  0  0  0
 63 65  1  0  0  0  0
 63155  1  6  0  0  0
 64156  1  0  0  0  0
 64157  1  0  0  0  0
 64158  1  0  0  0  0
 65 66  1  0  0  0  0
 65159  1  0  0  0  0
 65160  1  0  0  0  0
 66 67  1  0  0  0  0
 66161  1  0  0  0  0
 66162  1  0  0  0  0
 67 68  2  0  0  0  0
 68 69  1  0  0  0  0
 68163  1  0  0  0  0
 69 70  2  0  0  0  0
 69164  1  0  0  0  0
 70 71  1  0  0  0  0
 70165  1  0  0  0  0
 71 72  1  0  0  0  0
 71 73  2  0  0  0  0
 72166  1  0  0  0  0
 73 67  1  0  0  0  0
 73167  1  0  0  0  0
 74 75  2  0  0  0  0
 75 76  1  0  0  0  0
 75168  1  0  0  0  0
 76 77  1  0  0  0  0
 76 78  2  0  0  0  0
 77169  1  0  0  0  0
 78 79  1  0  0  0  0
 78 81  1  0  0  0  0
 79 80  1  0  0  0  0
 80170  1  0  0  0  0
 80171  1  0  0  0  0
 80172  1  0  0  0  0
 81 82  2  0  0  0  0
 81173  1  0  0  0  0
 82 83  1  0  0  0  0
 82 74  1  0  0  0  0
 83 84  1  0  0  0  0
 83174  1  0  0  0  0
 83175  1  0  0  0  0
 84 85  1  0  0  0  0
 84176  1  0  0  0  0
 84177  1  0  0  0  0
 85 86  2  0  0  0  0
 85 87  1  0  0  0  0
 87 88  1  0  0  0  0
 87 89  1  0  0  0  0
 87178  1  1  0  0  0
 88179  1  0  0  0  0
 89 90  2  0  0  0  0
 89 91  1  0  0  0  0
 91 92  1  0  0  0  0
 91 51  1  0  0  0  0
 91180  1  6  0  0  0
 92181  1  0  0  0  0
 92182  1  0  0  0  0
M  END
>  <IDENTIFIER>
CNP0492440.1

>  <Energy>
2508.02

$$$$
