
 OpenBabel09042523343D

 83 87  0  0  0  0  0  0  0  0999 V2000
   -4.8240    2.0116    3.0344 C   0  0  0  0  0  0  0  0  0  0  0  0
   -4.6191    0.5846    2.6380 C   0  0  0  0  0  0  0  0  0  0  0  0
   -4.1737   -0.2218    3.4419 O   0  0  0  0  0  0  0  0  0  0  0  0
   -4.9191    0.2192    1.3667 O   0  0  0  0  0  0  0  0  0  0  0  0
   -4.7286   -1.0223    0.7701 C   0  0  1  0  0  0  0  0  0  0  0  0
   -6.1283   -1.5387    0.3831 C   0  0  0  0  0  0  0  0  0  0  0  0
   -6.8064   -0.5613   -0.6031 C   0  0  2  0  0  0  0  0  0  0  0  0
   -8.0967   -1.0061   -0.9369 O   0  0  0  0  0  0  0  0  0  0  0  0
   -5.9514   -0.3809   -1.8677 C   0  0  0  0  0  0  0  0  0  0  0  0
   -4.5057    0.0695   -1.5439 C   0  0  1  0  0  0  0  0  0  0  0  0
   -4.3947    1.5278   -1.1124 C   0  0  0  0  0  0  0  0  0  0  0  0
   -3.1641    2.0037   -0.8217 C   0  0  0  0  0  0  0  0  0  0  0  0
   -2.0142    1.0254   -0.9275 C   0  0  1  0  0  0  0  0  0  0  0  0
   -0.6334    1.4797   -0.4619 C   0  0  2  0  0  0  0  0  0  0  0  0
    0.0019    2.8107   -0.7671 C   0  0  0  0  0  0  0  0  0  0  0  0
    1.4496    2.5821   -0.2506 C   0  0  0  0  0  0  0  0  0  0  0  0
    1.6272    1.0274   -0.0488 C   0  0  2  0  0  0  0  0  0  0  0  0
    3.1446    0.5326   -0.0291 C   0  0  1  0  0  0  0  0  0  0  0  0
    3.8418    0.8090   -1.3967 C   0  0  0  0  0  0  0  0  0  0  0  0
    3.8044    1.2395    0.9965 O   0  0  0  0  0  0  0  0  0  0  0  0
    3.2511   -0.9979    0.3284 C   0  0  2  0  0  0  0  0  0  0  0  0
    2.2761   -1.3463    1.2823 O   0  0  0  0  0  0  0  0  0  0  0  0
    4.5968   -1.6031    0.8617 C   0  0  0  0  0  0  0  0  0  0  0  0
    5.9387   -1.3784    0.1294 C   0  0  2  0  0  0  0  0  0  0  0  0
    6.8233   -2.4514    0.3917 O   0  0  0  0  0  0  0  0  0  0  0  0
    8.0946   -2.0056   -0.0412 C   0  0  0  0  0  0  0  0  0  0  0  0
    8.0560   -0.5283    0.0501 C   0  0  0  0  0  0  0  0  0  0  0  0
    9.0246    0.2017   -0.0941 O   0  0  0  0  0  0  0  0  0  0  0  0
    6.7284   -0.0918    0.4989 C   0  0  2  0  0  0  0  0  0  0  0  0
    6.8164    0.2288    2.0013 C   0  0  0  0  0  0  0  0  0  0  0  0
    0.4588    0.4354   -0.9174 C   0  0  2  0  0  0  0  0  0  0  0  0
    0.8033    0.4981   -2.4414 C   0  0  0  0  0  0  0  0  0  0  0  0
   -0.0790   -1.0343   -0.6711 C   0  0  0  0  0  0  0  0  0  0  0  0
   -1.1722   -1.0943    0.4028 C   0  0  0  0  0  0  0  0  0  0  0  0
   -2.4020   -0.1959   -0.0171 C   0  0  2  0  0  0  0  0  0  0  0  0
   -3.7816   -0.8672   -0.4867 C   0  0  1  0  0  0  0  0  0  0  0  0
   -3.5148   -2.2431   -1.1585 C   0  0  0  0  0  0  0  0  0  0  0  0
   -4.5285    2.1800    4.0912 H   0  0  0  0  0  0  0  0  0  0  0  0
   -5.8930    2.2825    2.9077 H   0  0  0  0  0  0  0  0  0  0  0  0
   -4.2082    2.6656    2.3805 H   0  0  0  0  0  0  0  0  0  0  0  0
   -4.2664   -1.7374    1.4878 H   0  0  0  0  0  0  0  0  0  0  0  0
   -6.7524   -1.6194    1.3003 H   0  0  0  0  0  0  0  0  0  0  0  0
   -6.0625   -2.5550   -0.0560 H   0  0  0  0  0  0  0  0  0  0  0  0
   -6.9154    0.4292   -0.1105 H   0  0  0  0  0  0  0  0  0  0  0  0
   -8.0074   -1.9047   -1.3527 H   0  0  0  0  0  0  0  0  0  0  0  0
   -6.4286    0.3450   -2.5612 H   0  0  0  0  0  0  0  0  0  0  0  0
   -5.9165   -1.3527   -2.4017 H   0  0  0  0  0  0  0  0  0  0  0  0
   -3.9520    0.0180   -2.5079 H   0  0  0  0  0  0  0  0  0  0  0  0
   -5.2691    2.1642   -1.0207 H   0  0  0  0  0  0  0  0  0  0  0  0
   -3.0226    3.0249   -0.4833 H   0  0  0  0  0  0  0  0  0  0  0  0
   -1.9319    0.7346   -1.9913 H   0  0  0  0  0  0  0  0  0  0  0  0
   -0.7338    1.5245    0.6530 H   0  0  0  0  0  0  0  0  0  0  0  0
   -0.4988    3.6943   -0.3163 H   0  0  0  0  0  0  0  0  0  0  0  0
   -0.0031    2.9515   -1.8669 H   0  0  0  0  0  0  0  0  0  0  0  0
    1.6220    3.0718    0.7333 H   0  0  0  0  0  0  0  0  0  0  0  0
    2.1254    3.0514   -0.9905 H   0  0  0  0  0  0  0  0  0  0  0  0
    1.2843    0.8436    0.9952 H   0  0  0  0  0  0  0  0  0  0  0  0
    3.8121    1.8788   -1.6736 H   0  0  0  0  0  0  0  0  0  0  0  0
    3.4106    0.2228   -2.2168 H   0  0  0  0  0  0  0  0  0  0  0  0
    4.8933    0.5292   -1.4217 H   0  0  0  0  0  0  0  0  0  0  0  0
    3.9601    2.1716    0.6929 H   0  0  0  0  0  0  0  0  0  0  0  0
    2.9965   -1.5426   -0.6065 H   0  0  0  0  0  0  0  0  0  0  0  0
    2.4761   -0.8472    2.1175 H   0  0  0  0  0  0  0  0  0  0  0  0
    4.4070   -2.6999    0.8350 H   0  0  0  0  0  0  0  0  0  0  0  0
    4.7357   -1.3695    1.9355 H   0  0  0  0  0  0  0  0  0  0  0  0
    5.7420   -1.4441   -0.9673 H   0  0  0  0  0  0  0  0  0  0  0  0
    8.3069   -2.3369   -1.0807 H   0  0  0  0  0  0  0  0  0  0  0  0
    8.8687   -2.3903    0.6556 H   0  0  0  0  0  0  0  0  0  0  0  0
    6.3784    0.8093   -0.0301 H   0  0  0  0  0  0  0  0  0  0  0  0
    7.1803   -0.6494    2.5784 H   0  0  0  0  0  0  0  0  0  0  0  0
    5.8301    0.5350    2.4015 H   0  0  0  0  0  0  0  0  0  0  0  0
    7.5141    1.0778    2.1666 H   0  0  0  0  0  0  0  0  0  0  0  0
    1.4701   -0.3398   -2.7178 H   0  0  0  0  0  0  0  0  0  0  0  0
    1.2864    1.4451   -2.7537 H   0  0  0  0  0  0  0  0  0  0  0  0
   -0.0943    0.3609   -3.0752 H   0  0  0  0  0  0  0  0  0  0  0  0
    0.7396   -1.7530   -0.5094 H   0  0  0  0  0  0  0  0  0  0  0  0
   -0.5987   -1.4037   -1.5824 H   0  0  0  0  0  0  0  0  0  0  0  0
   -0.6919   -0.6895    1.3211 H   0  0  0  0  0  0  0  0  0  0  0  0
   -1.4722   -2.1231    0.6728 H   0  0  0  0  0  0  0  0  0  0  0  0
   -2.6225    0.2868    0.9559 H   0  0  0  0  0  0  0  0  0  0  0  0
   -3.0881   -2.9728   -0.4440 H   0  0  0  0  0  0  0  0  0  0  0  0
   -2.8193   -2.1267   -2.0150 H   0  0  0  0  0  0  0  0  0  0  0  0
   -4.4307   -2.7218   -1.5488 H   0  0  0  0  0  0  0  0  0  0  0  0
  1  2  1  0  0  0  0
  1 38  1  0  0  0  0
  1 39  1  0  0  0  0
  1 40  1  0  0  0  0
  2  3  2  0  0  0  0
  2  4  1  0  0  0  0
  5  4  1  0  0  0  0
  5  6  1  0  0  0  0
  5 41  1  1  0  0  0
  6  7  1  0  0  0  0
  6 42  1  0  0  0  0
  6 43  1  0  0  0  0
  7  8  1  0  0  0  0
  7  9  1  0  0  0  0
  7 44  1  1  0  0  0
  8 45  1  0  0  0  0
  9 46  1  0  0  0  0
  9 47  1  0  0  0  0
 10  9  1  0  0  0  0
 10 11  1  0  0  0  0
 10 48  1  6  0  0  0
 11 12  2  0  0  0  0
 11 49  1  0  0  0  0
 12 50  1  0  0  0  0
 13 12  1  0  0  0  0
 13 14  1  0  0  0  0
 13 51  1  6  0  0  0
 14 15  1  0  0  0  0
 14 52  1  1  0  0  0
 15 16  1  0  0  0  0
 15 53  1  0  0  0  0
 15 54  1  0  0  0  0
 16 55  1  0  0  0  0
 16 56  1  0  0  0  0
 17 16  1  0  0  0  0
 17 18  1  0  0  0  0
 17 31  1  0  0  0  0
 17 57  1  1  0  0  0
 18 19  1  0  0  0  0
 18 20  1  1  0  0  0
 18 21  1  0  0  0  0
 19 58  1  0  0  0  0
 19 59  1  0  0  0  0
 19 60  1  0  0  0  0
 20 61  1  0  0  0  0
 21 22  1  0  0  0  0
 21 23  1  0  0  0  0
 21 62  1  6  0  0  0
 22 63  1  0  0  0  0
 23 64  1  0  0  0  0
 23 65  1  0  0  0  0
 24 23  1  0  0  0  0
 24 25  1  0  0  0  0
 24 66  1  6  0  0  0
 25 26  1  0  0  0  0
 26 27  1  0  0  0  0
 26 67  1  0  0  0  0
 26 68  1  0  0  0  0
 27 28  2  0  0  0  0
 27 29  1  0  0  0  0
 29 30  1  0  0  0  0
 29 24  1  0  0  0  0
 29 69  1  6  0  0  0
 30 70  1  0  0  0  0
 30 71  1  0  0  0  0
 30 72  1  0  0  0  0
 31 32  1  6  0  0  0
 31 33  1  0  0  0  0
 31 14  1  0  0  0  0
 32 73  1  0  0  0  0
 32 74  1  0  0  0  0
 32 75  1  0  0  0  0
 33 34  1  0  0  0  0
 33 76  1  0  0  0  0
 33 77  1  0  0  0  0
 34 78  1  0  0  0  0
 34 79  1  0  0  0  0
 35 34  1  0  0  0  0
 35 36  1  0  0  0  0
 35 13  1  0  0  0  0
 35 80  1  1  0  0  0
 36 37  1  6  0  0  0
 36  5  1  0  0  0  0
 36 10  1  0  0  0  0
 37 81  1  0  0  0  0
 37 82  1  0  0  0  0
 37 83  1  0  0  0  0
M  END
>  <IDENTIFIER>
CNP0226208.1

>  <Energy>
1195.24

$$$$
