
 OpenBabel09052500573D

181190  0  0  0  0  0  0  0  0999 V2000
    8.9641   -3.4211   -2.4165 C   0  0  0  0  0  0  0  0  0  0  0  0
    8.3335   -2.0227   -2.5507 C   0  0  0  0  0  0  0  0  0  0  0  0
    7.8679   -1.8714   -4.0219 C   0  0  0  0  0  0  0  0  0  0  0  0
    9.4055   -0.9148   -2.2623 C   0  0  0  0  0  0  0  0  0  0  0  0
    9.2207   -0.2428   -0.8956 C   0  0  2  0  0  0  0  0  0  0  0  0
    9.4568   -1.2554    0.0896 O   0  0  0  0  0  0  0  0  0  0  0  0
   10.6658   -1.0561    0.8100 C   0  0  2  0  0  0  0  0  0  0  0  0
   11.7407   -1.4996   -0.0282 O   0  0  0  0  0  0  0  0  0  0  0  0
   12.8962   -1.8282    0.7111 C   0  0  2  0  0  0  0  0  0  0  0  0
   14.0745   -2.0014   -0.2539 C   0  0  0  0  0  0  0  0  0  0  0  0
   15.2655   -2.2486    0.4422 O   0  0  0  0  0  0  0  0  0  0  0  0
   12.6632   -3.1158    1.5635 C   0  0  1  0  0  0  0  0  0  0  0  0
   13.5552   -3.1435    2.6521 O   0  0  0  0  0  0  0  0  0  0  0  0
   11.1714   -3.2337    2.0188 C   0  0  2  0  0  0  0  0  0  0  0  0
   10.3900   -3.9541    1.0918 O   0  0  0  0  0  0  0  0  0  0  0  0
   10.5707   -1.8325    2.1879 C   0  0  1  0  0  0  0  0  0  0  0  0
   11.2263   -1.1866    3.2596 O   0  0  0  0  0  0  0  0  0  0  0  0
    7.7669    0.4273   -0.7585 C   0  0  2  0  0  0  0  0  0  0  0  0
    7.7500    1.7890   -1.5540 C   0  0  0  0  0  0  0  0  0  0  0  0
    8.0070    1.6421   -2.9295 O   0  0  0  0  0  0  0  0  0  0  0  0
    7.4999    0.8078    0.7519 C   0  0  2  0  0  0  0  0  0  0  0  0
    7.7186   -0.2379    1.6598 O   0  0  0  0  0  0  0  0  0  0  0  0
    6.0895    1.4095    0.9576 C   0  0  0  0  0  0  0  0  0  0  0  0
    4.9140    0.4528    0.5748 C   0  0  2  0  0  0  0  0  0  0  0  0
    4.7425   -0.5470    1.7915 C   0  0  0  0  0  0  0  0  0  0  0  0
    5.2222   -0.4083   -0.6606 C   0  0  0  0  0  0  0  0  0  0  0  0
    4.1758   -1.0570   -1.2501 C   0  0  0  0  0  0  0  0  0  0  0  0
    2.7001   -0.8661   -0.8909 C   0  0  0  0  0  0  0  0  0  0  0  0
    2.3871    0.1991    0.2156 C   0  0  2  0  0  0  0  0  0  0  0  0
    0.8702    0.6821    0.3190 C   0  0  1  0  0  0  0  0  0  0  0  0
    0.3150    1.2089   -1.0355 C   0  0  0  0  0  0  0  0  0  0  0  0
   -0.0284   -0.5542    0.7521 C   0  0  0  0  0  0  0  0  0  0  0  0
   -0.8351   -0.3385    2.0557 C   0  0  0  0  0  0  0  0  0  0  0  0
   -1.6314    0.9819    1.9815 C   0  0  2  0  0  0  0  0  0  0  0  0
   -2.4960    0.9386    0.8550 O   0  0  0  0  0  0  0  0  0  0  0  0
   -3.7890    0.4570    1.1895 C   0  0  2  0  0  0  0  0  0  0  0  0
   -3.7397   -0.9169    1.5282 O   0  0  0  0  0  0  0  0  0  0  0  0
   -5.0021   -1.4148    1.9847 C   0  0  0  0  0  0  0  0  0  0  0  0
   -6.2311   -0.7444    1.3162 C   0  0  2  0  0  0  0  0  0  0  0  0
   -7.3392   -1.6299    1.3219 O   0  0  0  0  0  0  0  0  0  0  0  0
   -8.5596   -0.9073    1.3060 C   0  0  2  0  0  0  0  0  0  0  0  0
   -9.0076   -0.7722    2.6626 O   0  0  0  0  0  0  0  0  0  0  0  0
  -10.4157   -0.5712    2.8457 C   0  0  2  0  0  0  0  0  0  0  0  0
  -11.0857   -1.8556    3.3797 C   0  0  0  0  0  0  0  0  0  0  0  0
  -12.4481   -1.6368    3.6323 O   0  0  0  0  0  0  0  0  0  0  0  0
  -11.0996    0.0548    1.5962 C   0  0  1  0  0  0  0  0  0  0  0  0
  -10.4936    1.3036    1.3427 O   0  0  0  0  0  0  0  0  0  0  0  0
  -10.8861   -0.8390    0.3451 C   0  0  2  0  0  0  0  0  0  0  0  0
  -11.9898   -1.6639    0.0673 O   0  0  0  0  0  0  0  0  0  0  0  0
   -9.5772   -1.6679    0.4377 C   0  0  1  0  0  0  0  0  0  0  0  0
   -9.0710   -1.9323   -0.8639 O   0  0  0  0  0  0  0  0  0  0  0  0
   -9.6108   -3.1386   -1.4029 C   0  0  2  0  0  0  0  0  0  0  0  0
   -8.6030   -4.1384   -1.4851 O   0  0  0  0  0  0  0  0  0  0  0  0
   -7.6112   -3.7993   -2.4447 C   0  0  0  0  0  0  0  0  0  0  0  0
   -8.2063   -3.7473   -3.8707 C   0  0  1  0  0  0  0  0  0  0  0  0
   -8.7706   -4.9890   -4.2173 O   0  0  0  0  0  0  0  0  0  0  0  0
   -9.3023   -2.6622   -3.9086 C   0  0  2  0  0  0  0  0  0  0  0  0
   -8.7547   -1.3635   -3.8589 O   0  0  0  0  0  0  0  0  0  0  0  0
  -10.3213   -2.9133   -2.7726 C   0  0  1  0  0  0  0  0  0  0  0  0
  -11.1284   -4.0248   -3.1105 O   0  0  0  0  0  0  0  0  0  0  0  0
   -5.8265   -0.3748   -0.1135 C   0  0  2  0  0  0  0  0  0  0  0  0
   -5.4003   -1.5292   -0.8087 O   0  0  0  0  0  0  0  0  0  0  0  0
   -4.7281    0.7170   -0.0204 C   0  0  1  0  0  0  0  0  0  0  0  0
   -5.3616    1.9608    0.2377 O   0  0  0  0  0  0  0  0  0  0  0  0
   -5.1998    2.9505   -0.7581 C   0  0  2  0  0  0  0  0  0  0  0  0
   -4.6389    4.0953   -0.1036 O   0  0  0  0  0  0  0  0  0  0  0  0
   -5.3356    5.3113   -0.3251 C   0  0  2  0  0  0  0  0  0  0  0  0
   -4.6415    6.4358    0.4558 C   0  0  0  0  0  0  0  0  0  0  0  0
   -3.3139    6.5833    0.0300 O   0  0  0  0  0  0  0  0  0  0  0  0
   -6.8329    5.2053    0.0993 C   0  0  1  0  0  0  0  0  0  0  0  0
   -7.5411    6.3499   -0.3062 O   0  0  0  0  0  0  0  0  0  0  0  0
   -7.5146    3.9067   -0.4391 C   0  0  2  0  0  0  0  0  0  0  0  0
   -7.9045    3.0395    0.6046 O   0  0  0  0  0  0  0  0  0  0  0  0
   -6.5862    3.1778   -1.4320 C   0  0  1  0  0  0  0  0  0  0  0  0
   -6.4246    3.9441   -2.5984 O   0  0  0  0  0  0  0  0  0  0  0  0
   -0.6611    2.2362    1.9034 C   0  0  0  0  0  0  0  0  0  0  0  0
   -0.5609    2.8490    3.3338 C   0  0  0  0  0  0  0  0  0  0  0  0
   -1.2646    3.3670    1.0212 C   0  0  0  0  0  0  0  0  0  0  0  0
    0.7975    1.7741    1.4652 C   0  0  2  0  0  0  0  0  0  0  0  0
    1.8259    2.9125    1.2684 C   0  0  0  0  0  0  0  0  0  0  0  0
    3.2463    2.3246    1.3616 C   0  0  0  0  0  0  0  0  0  0  0  0
    3.5469    1.2751    0.2577 C   0  0  1  0  0  0  0  0  0  0  0  0
    3.6785    2.0637   -1.0941 C   0  0  0  0  0  0  0  0  0  0  0  0
    6.6129   -0.5026   -1.3503 C   0  0  2  0  0  0  0  0  0  0  0  0
    7.1134   -1.9516   -1.5588 C   0  0  0  0  0  0  0  0  0  0  0  0
    9.8332   -3.5310   -3.1016 H   0  0  0  0  0  0  0  0  0  0  0  0
    8.2247   -4.2129   -2.6632 H   0  0  0  0  0  0  0  0  0  0  0  0
    9.3112   -3.5862   -1.3833 H   0  0  0  0  0  0  0  0  0  0  0  0
    8.7327   -1.9683   -4.7146 H   0  0  0  0  0  0  0  0  0  0  0  0
    7.4091   -0.8794   -4.2107 H   0  0  0  0  0  0  0  0  0  0  0  0
    7.1217   -2.6505   -4.2852 H   0  0  0  0  0  0  0  0  0  0  0  0
    9.3689   -0.1365   -3.0381 H   0  0  0  0  0  0  0  0  0  0  0  0
   10.4373   -1.3129   -2.3802 H   0  0  0  0  0  0  0  0  0  0  0  0
    9.9668    0.5847   -0.8195 H   0  0  0  0  0  0  0  0  0  0  0  0
   10.7598    0.0257    1.0583 H   0  0  0  0  0  0  0  0  0  0  0  0
   13.1420   -0.9591    1.3601 H   0  0  0  0  0  0  0  0  0  0  0  0
   14.1842   -1.0954   -0.8934 H   0  0  0  0  0  0  0  0  0  0  0  0
   13.8769   -2.8523   -0.9417 H   0  0  0  0  0  0  0  0  0  0  0  0
   15.5934   -1.3669    0.7592 H   0  0  0  0  0  0  0  0  0  0  0  0
   12.8740   -4.0350    0.9736 H   0  0  0  0  0  0  0  0  0  0  0  0
   13.3572   -2.3691    3.2375 H   0  0  0  0  0  0  0  0  0  0  0  0
   11.1323   -3.8178    2.9647 H   0  0  0  0  0  0  0  0  0  0  0  0
   10.7987   -3.8835    0.1931 H   0  0  0  0  0  0  0  0  0  0  0  0
    9.5046   -1.8996    2.4917 H   0  0  0  0  0  0  0  0  0  0  0  0
   11.7156   -0.3870    2.9458 H   0  0  0  0  0  0  0  0  0  0  0  0
    8.4853    2.4972   -1.1018 H   0  0  0  0  0  0  0  0  0  0  0  0
    6.7686    2.2946   -1.5245 H   0  0  0  0  0  0  0  0  0  0  0  0
    8.7478    2.2631   -3.1657 H   0  0  0  0  0  0  0  0  0  0  0  0
    8.2426    1.5859    1.0343 H   0  0  0  0  0  0  0  0  0  0  0  0
    7.4660   -1.0891    1.2270 H   0  0  0  0  0  0  0  0  0  0  0  0
    6.0368    2.3404    0.3853 H   0  0  0  0  0  0  0  0  0  0  0  0
    5.9704    1.7539    2.0078 H   0  0  0  0  0  0  0  0  0  0  0  0
    5.6323   -1.0843    2.1143 H   0  0  0  0  0  0  0  0  0  0  0  0
    4.0835   -1.4099    1.5696 H   0  0  0  0  0  0  0  0  0  0  0  0
    4.3812   -0.0277    2.7002 H   0  0  0  0  0  0  0  0  0  0  0  0
    4.3506   -1.6641   -2.1319 H   0  0  0  0  0  0  0  0  0  0  0  0
    2.2092   -1.8365   -0.6720 H   0  0  0  0  0  0  0  0  0  0  0  0
    2.2913   -0.4948   -1.8467 H   0  0  0  0  0  0  0  0  0  0  0  0
    2.4523   -0.2966    1.1880 H   0  0  0  0  0  0  0  0  0  0  0  0
    0.3999    0.4510   -1.8367 H   0  0  0  0  0  0  0  0  0  0  0  0
    0.7764    2.1423   -1.3825 H   0  0  0  0  0  0  0  0  0  0  0  0
   -0.7706    1.3776   -0.9805 H   0  0  0  0  0  0  0  0  0  0  0  0
    0.5689   -1.4763    0.9098 H   0  0  0  0  0  0  0  0  0  0  0  0
   -0.7409   -0.8201   -0.0604 H   0  0  0  0  0  0  0  0  0  0  0  0
   -0.1645   -0.3177    2.9406 H   0  0  0  0  0  0  0  0  0  0  0  0
   -1.4917   -1.2144    2.2153 H   0  0  0  0  0  0  0  0  0  0  0  0
   -2.2265    1.0779    2.9240 H   0  0  0  0  0  0  0  0  0  0  0  0
   -4.2003    1.0144    2.0696 H   0  0  0  0  0  0  0  0  0  0  0  0
   -5.0845   -1.3798    3.0934 H   0  0  0  0  0  0  0  0  0  0  0  0
   -5.0129   -2.4853    1.6906 H   0  0  0  0  0  0  0  0  0  0  0  0
   -6.4479    0.1947    1.8855 H   0  0  0  0  0  0  0  0  0  0  0  0
   -8.4338    0.1008    0.8421 H   0  0  0  0  0  0  0  0  0  0  0  0
  -10.5312    0.1712    3.6653 H   0  0  0  0  0  0  0  0  0  0  0  0
  -10.5708   -2.1862    4.3106 H   0  0  0  0  0  0  0  0  0  0  0  0
  -11.0004   -2.7131    2.6924 H   0  0  0  0  0  0  0  0  0  0  0  0
  -12.5115   -1.2344    4.5371 H   0  0  0  0  0  0  0  0  0  0  0  0
  -12.1865    0.2473    1.7398 H   0  0  0  0  0  0  0  0  0  0  0  0
  -10.5737    1.8594    2.1613 H   0  0  0  0  0  0  0  0  0  0  0  0
  -10.8130   -0.1326   -0.5130 H   0  0  0  0  0  0  0  0  0  0  0  0
  -12.1590   -2.2316    0.8584 H   0  0  0  0  0  0  0  0  0  0  0  0
   -9.7099   -2.6092    1.0119 H   0  0  0  0  0  0  0  0  0  0  0  0
  -10.4213   -3.5535   -0.7593 H   0  0  0  0  0  0  0  0  0  0  0  0
   -6.8175   -4.5748   -2.4156 H   0  0  0  0  0  0  0  0  0  0  0  0
   -7.0990   -2.8544   -2.1739 H   0  0  0  0  0  0  0  0  0  0  0  0
   -7.4210   -3.5003   -4.6211 H   0  0  0  0  0  0  0  0  0  0  0  0
   -8.1233   -5.7023   -3.9780 H   0  0  0  0  0  0  0  0  0  0  0  0
   -9.8358   -2.7147   -4.8833 H   0  0  0  0  0  0  0  0  0  0  0  0
   -8.3158   -1.2131   -2.9889 H   0  0  0  0  0  0  0  0  0  0  0  0
  -11.0157   -2.0511   -2.6877 H   0  0  0  0  0  0  0  0  0  0  0  0
  -10.7349   -4.8539   -2.7342 H   0  0  0  0  0  0  0  0  0  0  0  0
   -6.6709    0.0465   -0.6968 H   0  0  0  0  0  0  0  0  0  0  0  0
   -4.4192   -1.6401   -0.7137 H   0  0  0  0  0  0  0  0  0  0  0  0
   -4.1711    0.6702   -0.9841 H   0  0  0  0  0  0  0  0  0  0  0  0
   -4.4922    2.6470   -1.5617 H   0  0  0  0  0  0  0  0  0  0  0  0
   -5.2462    5.5820   -1.3985 H   0  0  0  0  0  0  0  0  0  0  0  0
   -4.6814    6.2381    1.5527 H   0  0  0  0  0  0  0  0  0  0  0  0
   -5.1675    7.3991    0.2824 H   0  0  0  0  0  0  0  0  0  0  0  0
   -2.7672    5.9558    0.5700 H   0  0  0  0  0  0  0  0  0  0  0  0
   -6.8795    5.1807    1.2101 H   0  0  0  0  0  0  0  0  0  0  0  0
   -7.5152    6.3772   -1.2983 H   0  0  0  0  0  0  0  0  0  0  0  0
   -8.4601    4.1733   -0.9602 H   0  0  0  0  0  0  0  0  0  0  0  0
   -7.2053    3.0311    1.3101 H   0  0  0  0  0  0  0  0  0  0  0  0
   -7.0135    2.1950   -1.7343 H   0  0  0  0  0  0  0  0  0  0  0  0
   -7.2943    3.9304   -3.0768 H   0  0  0  0  0  0  0  0  0  0  0  0
   -1.5664    3.1502    3.7008 H   0  0  0  0  0  0  0  0  0  0  0  0
    0.0568    3.7680    3.3632 H   0  0  0  0  0  0  0  0  0  0  0  0
   -0.1408    2.1185    4.0566 H   0  0  0  0  0  0  0  0  0  0  0  0
   -2.2577    3.6683    1.4182 H   0  0  0  0  0  0  0  0  0  0  0  0
   -1.4269    3.0930   -0.0306 H   0  0  0  0  0  0  0  0  0  0  0  0
   -0.6112    4.2647    1.0215 H   0  0  0  0  0  0  0  0  0  0  0  0
    1.1772    1.2472    2.3672 H   0  0  0  0  0  0  0  0  0  0  0  0
    1.7632    3.6502    2.0881 H   0  0  0  0  0  0  0  0  0  0  0  0
    1.6406    3.4698    0.3298 H   0  0  0  0  0  0  0  0  0  0  0  0
    3.3402    1.8670    2.3661 H   0  0  0  0  0  0  0  0  0  0  0  0
    3.9867    3.1523    1.3212 H   0  0  0  0  0  0  0  0  0  0  0  0
    4.4977    2.8043   -1.0549 H   0  0  0  0  0  0  0  0  0  0  0  0
    2.7911    2.6522   -1.3497 H   0  0  0  0  0  0  0  0  0  0  0  0
    3.8747    1.4131   -1.9672 H   0  0  0  0  0  0  0  0  0  0  0  0
    6.4089   -0.1577   -2.3832 H   0  0  0  0  0  0  0  0  0  0  0  0
    6.3234   -2.6238   -1.9502 H   0  0  0  0  0  0  0  0  0  0  0  0
    7.3831   -2.3642   -0.5677 H   0  0  0  0  0  0  0  0  0  0  0  0
  1  2  1  0  0  0  0
  1 86  1  0  0  0  0
  1 87  1  0  0  0  0
  1 88  1  0  0  0  0
  2  3  1  0  0  0  0
  2  4  1  0  0  0  0
  3 89  1  0  0  0  0
  3 90  1  0  0  0  0
  3 91  1  0  0  0  0
  4  5  1  0  0  0  0
  4 92  1  0  0  0  0
  4 93  1  0  0  0  0
  5  6  1  0  0  0  0
  5 18  1  0  0  0  0
  5 94  1  1  0  0  0
  7  6  1  0  0  0  0
  7  8  1  0  0  0  0
  7 95  1  1  0  0  0
  8  9  1  0  0  0  0
  9 10  1  0  0  0  0
  9 12  1  0  0  0  0
  9 96  1  1  0  0  0
 10 11  1  0  0  0  0
 10 97  1  0  0  0  0
 10 98  1  0  0  0  0
 11 99  1  0  0  0  0
 12 13  1  0  0  0  0
 12 14  1  0  0  0  0
 12100  1  6  0  0  0
 13101  1  0  0  0  0
 14 15  1  0  0  0  0
 14 16  1  0  0  0  0
 14102  1  1  0  0  0
 15103  1  0  0  0  0
 16 17  1  0  0  0  0
 16  7  1  0  0  0  0
 16104  1  1  0  0  0
 17105  1  0  0  0  0
 18 19  1  6  0  0  0
 18 21  1  0  0  0  0
 19 20  1  0  0  0  0
 19106  1  0  0  0  0
 19107  1  0  0  0  0
 20108  1  0  0  0  0
 21 22  1  0  0  0  0
 21 23  1  0  0  0  0
 21109  1  1  0  0  0
 22110  1  0  0  0  0
 23 24  1  0  0  0  0
 23111  1  0  0  0  0
 23112  1  0  0  0  0
 24 25  1  1  0  0  0
 24 26  1  0  0  0  0
 25113  1  0  0  0  0
 25114  1  0  0  0  0
 25115  1  0  0  0  0
 26 27  2  0  0  0  0
 26 84  1  0  0  0  0
 27 28  1  0  0  0  0
 27116  1  0  0  0  0
 28117  1  0  0  0  0
 28118  1  0  0  0  0
 29 28  1  0  0  0  0
 29 30  1  0  0  0  0
 29119  1  1  0  0  0
 30 31  1  6  0  0  0
 30 32  1  0  0  0  0
 31120  1  0  0  0  0
 31121  1  0  0  0  0
 31122  1  0  0  0  0
 32 33  1  0  0  0  0
 32123  1  0  0  0  0
 32124  1  0  0  0  0
 33 34  1  0  0  0  0
 33125  1  0  0  0  0
 33126  1  0  0  0  0
 34 35  1  0  0  0  0
 34 76  1  0  0  0  0
 34127  1  1  0  0  0
 36 35  1  0  0  0  0
 36 37  1  0  0  0  0
 36128  1  1  0  0  0
 37 38  1  0  0  0  0
 38 39  1  0  0  0  0
 38129  1  0  0  0  0
 38130  1  0  0  0  0
 39 40  1  0  0  0  0
 39 61  1  0  0  0  0
 39131  1  1  0  0  0
 41 40  1  0  0  0  0
 41 42  1  0  0  0  0
 41132  1  6  0  0  0
 42 43  1  0  0  0  0
 43 44  1  0  0  0  0
 43 46  1  0  0  0  0
 43133  1  1  0  0  0
 44 45  1  0  0  0  0
 44134  1  0  0  0  0
 44135  1  0  0  0  0
 45136  1  0  0  0  0
 46 47  1  0  0  0  0
 46 48  1  0  0  0  0
 46137  1  1  0  0  0
 47138  1  0  0  0  0
 48 49  1  0  0  0  0
 48 50  1  0  0  0  0
 48139  1  6  0  0  0
 49140  1  0  0  0  0
 50 51  1  0  0  0  0
 50 41  1  0  0  0  0
 50141  1  1  0  0  0
 52 51  1  0  0  0  0
 52 53  1  0  0  0  0
 52142  1  1  0  0  0
 53 54  1  0  0  0  0
 54 55  1  0  0  0  0
 54143  1  0  0  0  0
 54144  1  0  0  0  0
 55 56  1  0  0  0  0
 55 57  1  0  0  0  0
 55145  1  6  0  0  0
 56146  1  0  0  0  0
 57 58  1  0  0  0  0
 57 59  1  0  0  0  0
 57147  1  6  0  0  0
 58148  1  0  0  0  0
 59 60  1  0  0  0  0
 59 52  1  0  0  0  0
 59149  1  1  0  0  0
 60150  1  0  0  0  0
 61 62  1  0  0  0  0
 61 63  1  0  0  0  0
 61151  1  6  0  0  0
 62152  1  0  0  0  0
 63 64  1  0  0  0  0
 63 36  1  0  0  0  0
 63153  1  6  0  0  0
 65 64  1  0  0  0  0
 65 66  1  0  0  0  0
 65154  1  6  0  0  0
 66 67  1  0  0  0  0
 67 68  1  0  0  0  0
 67 70  1  0  0  0  0
 67155  1  6  0  0  0
 68 69  1  0  0  0  0
 68156  1  0  0  0  0
 68157  1  0  0  0  0
 69158  1  0  0  0  0
 70 71  1  0  0  0  0
 70 72  1  0  0  0  0
 70159  1  1  0  0  0
 71160  1  0  0  0  0
 72 73  1  0  0  0  0
 72 74  1  0  0  0  0
 72161  1  6  0  0  0
 73162  1  0  0  0  0
 74 75  1  0  0  0  0
 74 65  1  0  0  0  0
 74163  1  6  0  0  0
 75164  1  0  0  0  0
 76 77  1  0  0  0  0
 76 78  1  0  0  0  0
 76 79  1  0  0  0  0
 77165  1  0  0  0  0
 77166  1  0  0  0  0
 77167  1  0  0  0  0
 78168  1  0  0  0  0
 78169  1  0  0  0  0
 78170  1  0  0  0  0
 79 80  1  0  0  0  0
 79 30  1  0  0  0  0
 79171  1  1  0  0  0
 80 81  1  0  0  0  0
 80172  1  0  0  0  0
 80173  1  0  0  0  0
 81 82  1  0  0  0  0
 81174  1  0  0  0  0
 81175  1  0  0  0  0
 82 83  1  6  0  0  0
 82 24  1  0  0  0  0
 82 29  1  0  0  0  0
 83176  1  0  0  0  0
 83177  1  0  0  0  0
 83178  1  0  0  0  0
 84 85  1  0  0  0  0
 84 18  1  0  0  0  0
 84179  1  6  0  0  0
 85  2  1  0  0  0  0
 85180  1  0  0  0  0
 85181  1  0  0  0  0
M  END
>  <IDENTIFIER>
CNP0136765.1

>  <Energy>
2814.52

$$$$
