
 OpenBabel09102504403D

 74 77  0  0  0  0  0  0  0  0999 V2000
   -4.0443    2.4555    1.2214 C   0  0  0  0  0  0  0  0  0  0  0  0
   -4.1882    1.1610    0.3624 C   0  0  2  0  0  0  0  0  0  0  0  0
   -5.1160    1.5410   -0.8656 C   0  0  0  0  0  0  0  0  0  0  0  0
   -6.6097    1.1838   -0.7076 C   0  0  0  0  0  0  0  0  0  0  0  0
   -7.0563    1.1811    0.7200 C   0  0  0  0  0  0  0  0  0  0  0  0
   -8.0807    1.7625    1.0415 O   0  0  0  0  0  0  0  0  0  0  0  0
   -6.2269    0.4757    1.7698 C   0  0  0  0  0  0  0  0  0  0  0  0
   -4.8317    0.0267    1.2415 C   0  0  1  0  0  0  0  0  0  0  0  0
   -4.8667   -1.3377    0.5059 C   0  0  0  0  0  0  0  0  0  0  0  0
   -3.4520   -1.7613    0.0978 C   0  0  0  0  0  0  0  0  0  0  0  0
   -2.8350   -0.7056   -0.8452 C   0  0  1  0  0  0  0  0  0  0  0  0
   -2.7689    0.7144   -0.1666 C   0  0  2  0  0  0  0  0  0  0  0  0
   -1.6100    0.7609    0.8898 C   0  0  0  0  0  0  0  0  0  0  0  0
   -0.2409    0.4673    0.2196 C   0  0  0  0  0  0  0  0  0  0  0  0
   -0.2321   -0.9283   -0.4321 C   0  0  2  0  0  0  0  0  0  0  0  0
   -0.1282   -2.0202    0.6825 C   0  0  0  0  0  0  0  0  0  0  0  0
    0.8819   -1.1345   -1.4796 C   0  0  1  0  0  0  0  0  0  0  0  0
    2.1644   -1.2396   -0.9540 O   0  0  0  0  0  0  0  0  0  0  0  0
    3.1635   -0.3528   -1.2285 C   0  0  0  0  0  0  0  0  0  0  0  0
    2.9732    0.5894   -1.9867 O   0  0  0  0  0  0  0  0  0  0  0  0
    4.5225   -0.5012   -0.6075 C   0  0  0  0  0  0  0  0  0  0  0  0
    4.8373    0.7322    0.2675 C   0  0  0  0  0  0  0  0  0  0  0  0
    6.2440    0.8094    0.7084 N   0  0  0  0  0  0  0  0  0  0  0  0
    7.1980    1.1771   -0.3644 C   0  0  0  0  0  0  0  0  0  0  0  0
    8.3328    0.1489   -0.4997 C   0  0  0  0  0  0  0  0  0  0  0  0
    9.0365   -0.0409    0.7196 O   0  0  0  0  0  0  0  0  0  0  0  0
    8.1928   -0.1178    1.8685 C   0  0  0  0  0  0  0  0  0  0  0  0
    6.6980   -0.3068    1.5546 C   0  0  0  0  0  0  0  0  0  0  0  0
    0.4056   -2.3746   -2.2634 C   0  0  0  0  0  0  0  0  0  0  0  0
   -1.1509   -2.3140   -2.1934 C   0  0  0  0  0  0  0  0  0  0  0  0
   -1.4297   -1.0293   -1.4039 C   0  0  1  0  0  0  0  0  0  0  0  0
    1.9149    3.4147    1.1213 Cl  0  0  0  0  0  0  0  0  0  0  0  0
   -5.0253    2.8926    1.4954 H   0  0  0  0  0  0  0  0  0  0  0  0
   -3.4967    3.2395    0.6544 H   0  0  0  0  0  0  0  0  0  0  0  0
   -3.5010    2.2584    2.1690 H   0  0  0  0  0  0  0  0  0  0  0  0
   -4.8041    1.0631   -1.8150 H   0  0  0  0  0  0  0  0  0  0  0  0
   -5.0053    2.6284   -1.0738 H   0  0  0  0  0  0  0  0  0  0  0  0
   -6.7633    0.1511   -1.0600 H   0  0  0  0  0  0  0  0  0  0  0  0
   -7.2480    1.8029   -1.3749 H   0  0  0  0  0  0  0  0  0  0  0  0
   -6.7797   -0.3614    2.2464 H   0  0  0  0  0  0  0  0  0  0  0  0
   -6.0484    1.2256    2.5691 H   0  0  0  0  0  0  0  0  0  0  0  0
   -4.1981   -0.1523    2.1396 H   0  0  0  0  0  0  0  0  0  0  0  0
   -5.4898   -1.3298   -0.4006 H   0  0  0  0  0  0  0  0  0  0  0  0
   -5.2894   -2.1106    1.1837 H   0  0  0  0  0  0  0  0  0  0  0  0
   -3.5083   -2.7438   -0.4167 H   0  0  0  0  0  0  0  0  0  0  0  0
   -2.8759   -1.8922    1.0214 H   0  0  0  0  0  0  0  0  0  0  0  0
   -3.5090   -0.6720   -1.7267 H   0  0  0  0  0  0  0  0  0  0  0  0
   -2.4694    1.4650   -0.9343 H   0  0  0  0  0  0  0  0  0  0  0  0
   -1.8084    0.0696    1.7296 H   0  0  0  0  0  0  0  0  0  0  0  0
   -1.5165    1.7790    1.3162 H   0  0  0  0  0  0  0  0  0  0  0  0
    0.5907    0.5579    0.9517 H   0  0  0  0  0  0  0  0  0  0  0  0
   -0.0841    1.2443   -0.5606 H   0  0  0  0  0  0  0  0  0  0  0  0
    0.8547   -1.9312    1.1920 H   0  0  0  0  0  0  0  0  0  0  0  0
   -0.2034   -3.0546    0.2958 H   0  0  0  0  0  0  0  0  0  0  0  0
   -0.8678   -1.9162    1.4869 H   0  0  0  0  0  0  0  0  0  0  0  0
    0.8286   -0.2811   -2.1983 H   0  0  0  0  0  0  0  0  0  0  0  0
    5.2571   -0.5907   -1.4347 H   0  0  0  0  0  0  0  0  0  0  0  0
    4.5614   -1.4255    0.0057 H   0  0  0  0  0  0  0  0  0  0  0  0
    4.1631    0.7336    1.1517 H   0  0  0  0  0  0  0  0  0  0  0  0
    4.6145    1.6626   -0.3017 H   0  0  0  0  0  0  0  0  0  0  0  0
    7.6467    2.1580   -0.0977 H   0  0  0  0  0  0  0  0  0  0  0  0
    6.6977    1.3042   -1.3503 H   0  0  0  0  0  0  0  0  0  0  0  0
    9.0453    0.5188   -1.2667 H   0  0  0  0  0  0  0  0  0  0  0  0
    7.9355   -0.8259   -0.8575 H   0  0  0  0  0  0  0  0  0  0  0  0
    8.3162    0.8197    2.4528 H   0  0  0  0  0  0  0  0  0  0  0  0
    8.5286   -0.9688    2.4971 H   0  0  0  0  0  0  0  0  0  0  0  0
    6.1120   -0.3313    2.4986 H   0  0  0  0  0  0  0  0  0  0  0  0
    6.5732   -1.2800    1.0343 H   0  0  0  0  0  0  0  0  0  0  0  0
    0.7338   -3.3019   -1.7450 H   0  0  0  0  0  0  0  0  0  0  0  0
    0.8186   -2.3934   -3.2943 H   0  0  0  0  0  0  0  0  0  0  0  0
   -1.5051   -3.1925   -1.6131 H   0  0  0  0  0  0  0  0  0  0  0  0
   -1.6511   -2.3187   -3.1852 H   0  0  0  0  0  0  0  0  0  0  0  0
   -1.3004   -0.2095   -2.1563 H   0  0  0  0  0  0  0  0  0  0  0  0
    2.2012    2.3764    0.2676 H   0  0  0  0  0  0  0  0  0  0  0  0
  1 33  1  0  0  0  0
  1 34  1  0  0  0  0
  1 35  1  0  0  0  0
  2  1  1  1  0  0  0
  2  3  1  0  0  0  0
  3  4  1  0  0  0  0
  3 36  1  0  0  0  0
  3 37  1  0  0  0  0
  4  5  1  0  0  0  0
  4 38  1  0  0  0  0
  4 39  1  0  0  0  0
  5  6  2  0  0  0  0
  5  7  1  0  0  0  0
  7 40  1  0  0  0  0
  7 41  1  0  0  0  0
  8  7  1  0  0  0  0
  8  9  1  0  0  0  0
  8  2  1  0  0  0  0
  8 42  1  1  0  0  0
  9 10  1  0  0  0  0
  9 43  1  0  0  0  0
  9 44  1  0  0  0  0
 10 45  1  0  0  0  0
 10 46  1  0  0  0  0
 11 10  1  0  0  0  0
 11 12  1  0  0  0  0
 11 47  1  6  0  0  0
 12 13  1  0  0  0  0
 12  2  1  0  0  0  0
 12 48  1  6  0  0  0
 13 14  1  0  0  0  0
 13 49  1  0  0  0  0
 13 50  1  0  0  0  0
 14 15  1  0  0  0  0
 14 51  1  0  0  0  0
 14 52  1  0  0  0  0
 15 16  1  1  0  0  0
 15 17  1  0  0  0  0
 16 53  1  0  0  0  0
 16 54  1  0  0  0  0
 16 55  1  0  0  0  0
 17 18  1  0  0  0  0
 17 29  1  0  0  0  0
 17 56  1  6  0  0  0
 18 19  1  0  0  0  0
 19 20  2  0  0  0  0
 19 21  1  0  0  0  0
 21 22  1  0  0  0  0
 21 57  1  0  0  0  0
 21 58  1  0  0  0  0
 22 23  1  0  0  0  0
 22 59  1  0  0  0  0
 22 60  1  0  0  0  0
 23 24  1  0  0  0  0
 24 25  1  0  0  0  0
 24 61  1  0  0  0  0
 24 62  1  0  0  0  0
 25 26  1  0  0  0  0
 25 63  1  0  0  0  0
 25 64  1  0  0  0  0
 26 27  1  0  0  0  0
 27 28  1  0  0  0  0
 27 65  1  0  0  0  0
 27 66  1  0  0  0  0
 28 23  1  0  0  0  0
 28 67  1  0  0  0  0
 28 68  1  0  0  0  0
 29 30  1  0  0  0  0
 29 69  1  0  0  0  0
 29 70  1  0  0  0  0
 30 71  1  0  0  0  0
 30 72  1  0  0  0  0
 31 30  1  0  0  0  0
 31 11  1  0  0  0  0
 31 15  1  0  0  0  0
 31 73  1  6  0  0  0
 32 74  1  0  0  0  0
M  END
>  <IDENTIFIER>
CNP0291495.1

>  <Energy>
831.82

$$$$
