
 OpenBabel09102511293D

 44 46  0  0  0  0  0  0  0  0999 V2000
    1.2211   -1.5990   -5.0089 O   0  0  0  0  0  0  0  0  0  0  0  0
    1.6163   -1.3956   -3.8997 N   0  3  0  0  0  0  0  0  0  0  0  0
    2.8131   -1.8394   -3.5937 O   0  5  0  0  0  0  0  0  0  0  0  0
    0.7210   -0.8504   -2.9046 C   0  0  0  0  0  0  0  0  0  0  0  0
   -0.6395   -0.7318   -3.2602 C   0  0  0  0  0  0  0  0  0  0  0  0
   -1.6289   -0.2511   -2.3886 C   0  0  0  0  0  0  0  0  0  0  0  0
   -2.9568   -0.0822   -2.9106 N   0  3  0  0  0  0  0  0  0  0  0  0
   -3.6861    0.7418   -2.4496 O   0  0  0  0  0  0  0  0  0  0  0  0
   -3.2781   -0.6072   -4.0750 O   0  5  0  0  0  0  0  0  0  0  0  0
   -1.2470    0.0994   -1.0621 C   0  0  0  0  0  0  0  0  0  0  0  0
   -2.1712    0.5136    0.0465 C   0  0  0  0  0  0  0  0  0  0  0  0
   -3.4488    0.0972    0.1727 C   0  0  0  0  0  0  0  0  0  0  0  0
   -4.3678    0.4597    1.2899 C   0  0  0  0  0  0  0  0  0  0  0  0
   -3.9954    1.2894    2.3703 C   0  0  0  0  0  0  0  0  0  0  0  0
   -4.9138    1.5858    3.3836 C   0  0  0  0  0  0  0  0  0  0  0  0
   -6.2085    1.0661    3.3346 C   0  0  0  0  0  0  0  0  0  0  0  0
   -6.5899    0.2466    2.2723 C   0  0  0  0  0  0  0  0  0  0  0  0
   -5.6774   -0.0557    1.2581 C   0  0  0  0  0  0  0  0  0  0  0  0
    0.1124    0.0310   -0.7104 C   0  0  0  0  0  0  0  0  0  0  0  0
    1.1211   -0.4260   -1.5917 C   0  0  0  0  0  0  0  0  0  0  0  0
    2.5628   -0.4256   -1.1337 C   0  0  0  0  0  0  0  0  0  0  0  0
    3.0042   -0.1499    0.1171 C   0  0  0  0  0  0  0  0  0  0  0  0
    4.4429   -0.1472    0.5310 C   0  0  0  0  0  0  0  0  0  0  0  0
    5.5106   -0.4860   -0.3335 C   0  0  0  0  0  0  0  0  0  0  0  0
    6.8310   -0.4652    0.1270 C   0  0  0  0  0  0  0  0  0  0  0  0
    7.1109   -0.1075    1.4457 C   0  0  0  0  0  0  0  0  0  0  0  0
    6.0701    0.2300    2.3107 C   0  0  0  0  0  0  0  0  0  0  0  0
    4.7472    0.2095    1.8591 C   0  0  0  0  0  0  0  0  0  0  0  0
   -0.9377   -1.0133   -4.2605 H   0  0  0  0  0  0  0  0  0  0  0  0
   -1.7391    1.1180    0.8332 H   0  0  0  0  0  0  0  0  0  0  0  0
   -3.8518   -0.5853   -0.5650 H   0  0  0  0  0  0  0  0  0  0  0  0
   -3.0074    1.7148    2.4522 H   0  0  0  0  0  0  0  0  0  0  0  0
   -4.6206    2.2210    4.2096 H   0  0  0  0  0  0  0  0  0  0  0  0
   -6.9164    1.2986    4.1197 H   0  0  0  0  0  0  0  0  0  0  0  0
   -7.5941   -0.1557    2.2331 H   0  0  0  0  0  0  0  0  0  0  0  0
   -5.9979   -0.6939    0.4433 H   0  0  0  0  0  0  0  0  0  0  0  0
    0.3607    0.3362    0.2912 H   0  0  0  0  0  0  0  0  0  0  0  0
    3.3196   -0.6310   -1.8501 H   0  0  0  0  0  0  0  0  0  0  0  0
    2.3063    0.0857    0.9052 H   0  0  0  0  0  0  0  0  0  0  0  0
    5.3560   -0.7732   -1.3610 H   0  0  0  0  0  0  0  0  0  0  0  0
    7.6401   -0.7286   -0.5424 H   0  0  0  0  0  0  0  0  0  0  0  0
    8.1345   -0.0928    1.7971 H   0  0  0  0  0  0  0  0  0  0  0  0
    6.2879    0.5078    3.3339 H   0  0  0  0  0  0  0  0  0  0  0  0
    3.9582    0.4758    2.5518 H   0  0  0  0  0  0  0  0  0  0  0  0
  1  2  2  0  0  0  0
  2  3  1  0  0  0  0
  2  4  1  0  0  0  0
  4  5  2  0  0  0  0
  5  6  1  0  0  0  0
  5 29  1  0  0  0  0
  6  7  1  0  0  0  0
  6 10  2  0  0  0  0
  7  8  2  0  0  0  0
  7  9  1  0  0  0  0
 10 11  1  0  0  0  0
 10 19  1  0  0  0  0
 11 12  2  3  0  0  0
 11 30  1  0  0  0  0
 12 13  1  0  0  0  0
 12 31  1  0  0  0  0
 13 14  2  0  0  0  0
 14 15  1  0  0  0  0
 14 32  1  0  0  0  0
 15 16  2  0  0  0  0
 15 33  1  0  0  0  0
 16 17  1  0  0  0  0
 16 34  1  0  0  0  0
 17 18  2  0  0  0  0
 17 35  1  0  0  0  0
 18 13  1  0  0  0  0
 18 36  1  0  0  0  0
 19 20  2  0  0  0  0
 19 37  1  0  0  0  0
 20 21  1  0  0  0  0
 20  4  1  0  0  0  0
 21 22  2  3  0  0  0
 21 38  1  0  0  0  0
 22 23  1  0  0  0  0
 22 39  1  0  0  0  0
 23 24  2  0  0  0  0
 24 25  1  0  0  0  0
 24 40  1  0  0  0  0
 25 26  2  0  0  0  0
 25 41  1  0  0  0  0
 26 27  1  0  0  0  0
 26 42  1  0  0  0  0
 27 28  2  0  0  0  0
 27 43  1  0  0  0  0
 28 23  1  0  0  0  0
 28 44  1  0  0  0  0
M  CHG  4   2   1   3  -1   7   1   9  -1
M  END
>  <IDENTIFIER>
CNP0605549.0

>  <Energy>
415.889

$$$$
