
 OpenBabel09072502403D

 33 33  0  0  0  0  0  0  0  0999 V2000
   -3.3810    1.2828    1.1297 C   0  0  0  0  0  0  0  0  0  0  0  0
   -3.6113   -0.2262    1.0357 C   0  0  0  0  0  0  0  0  0  0  0  0
   -3.2502   -0.8146   -0.3432 C   0  0  0  0  0  0  0  0  0  0  0  0
   -1.7858   -0.6052   -0.7790 C   0  0  0  0  0  0  0  0  0  0  0  0
   -0.7577   -1.2436    0.1853 C   0  0  1  0  0  0  0  0  0  0  0  0
   -0.9956   -2.6249    0.3052 O   0  0  0  0  0  0  0  0  0  0  0  0
    0.7134   -0.9905   -0.2237 C   0  0  1  0  0  0  0  0  0  0  0  0
    1.0648    0.5159   -0.2995 C   0  0  0  0  0  0  0  0  0  0  0  0
    2.5557    0.7407   -0.4354 C   0  0  0  0  0  0  0  0  0  0  0  0
    2.9683    1.9327   -0.9500 O   0  0  0  0  0  0  0  0  0  0  0  0
    4.2751    2.3611   -1.0659 C   0  0  0  0  0  0  0  0  0  0  0  0
    3.4209   -0.2024    0.0065 C   0  0  0  0  0  0  0  0  0  0  0  0
    2.8908   -1.4287    0.6351 C   0  0  0  0  0  0  0  0  0  0  0  0
    3.6449   -2.2247    1.1707 O   0  0  0  0  0  0  0  0  0  0  0  0
    1.5524   -1.6308    0.6729 O   0  0  0  0  0  0  0  0  0  0  0  0
   -3.7068    1.6446    2.1275 H   0  0  0  0  0  0  0  0  0  0  0  0
   -3.9667    1.8129    0.3490 H   0  0  0  0  0  0  0  0  0  0  0  0
   -2.3054    1.5304    1.0163 H   0  0  0  0  0  0  0  0  0  0  0  0
   -4.6881   -0.4264    1.2231 H   0  0  0  0  0  0  0  0  0  0  0  0
   -3.0372   -0.7347    1.8379 H   0  0  0  0  0  0  0  0  0  0  0  0
   -3.9074   -0.3472   -1.1090 H   0  0  0  0  0  0  0  0  0  0  0  0
   -3.4748   -1.9028   -0.3293 H   0  0  0  0  0  0  0  0  0  0  0  0
   -1.6074    0.4834   -0.8725 H   0  0  0  0  0  0  0  0  0  0  0  0
   -1.6550   -1.0482   -1.7903 H   0  0  0  0  0  0  0  0  0  0  0  0
   -0.8830   -0.7911    1.1909 H   0  0  0  0  0  0  0  0  0  0  0  0
   -0.8537   -3.0313   -0.5900 H   0  0  0  0  0  0  0  0  0  0  0  0
    0.9042   -1.4302   -1.2299 H   0  0  0  0  0  0  0  0  0  0  0  0
    0.7302    1.0554    0.6122 H   0  0  0  0  0  0  0  0  0  0  0  0
    0.5537    0.9586   -1.1799 H   0  0  0  0  0  0  0  0  0  0  0  0
    4.2849    3.3725   -1.5209 H   0  0  0  0  0  0  0  0  0  0  0  0
    4.8514    1.6717   -1.7177 H   0  0  0  0  0  0  0  0  0  0  0  0
    4.7459    2.4217   -0.0608 H   0  0  0  0  0  0  0  0  0  0  0  0
    4.4951   -0.0580   -0.0423 H   0  0  0  0  0  0  0  0  0  0  0  0
  1  2  1  0  0  0  0
  1 16  1  0  0  0  0
  1 17  1  0  0  0  0
  1 18  1  0  0  0  0
  2  3  1  0  0  0  0
  2 19  1  0  0  0  0
  2 20  1  0  0  0  0
  3  4  1  0  0  0  0
  3 21  1  0  0  0  0
  3 22  1  0  0  0  0
  4  5  1  0  0  0  0
  4 23  1  0  0  0  0
  4 24  1  0  0  0  0
  5  6  1  0  0  0  0
  5  7  1  0  0  0  0
  5 25  1  1  0  0  0
  6 26  1  0  0  0  0
  7  8  1  0  0  0  0
  7 27  1  6  0  0  0
  8  9  1  0  0  0  0
  8 28  1  0  0  0  0
  8 29  1  0  0  0  0
  9 10  1  0  0  0  0
  9 12  2  0  0  0  0
 10 11  1  0  0  0  0
 11 30  1  0  0  0  0
 11 31  1  0  0  0  0
 11 32  1  0  0  0  0
 12 13  1  0  0  0  0
 12 33  1  0  0  0  0
 13 14  2  0  0  0  0
 13 15  1  0  0  0  0
 15  7  1  0  0  0  0
M  END
>  <IDENTIFIER>
CNP0318493.4

>  <Energy>
158.018

$$$$
