
 OpenBabel09112516123D

100100  0  0  0  0  0  0  0  0999 V2000
   -9.6957    1.8385   -1.9835 C   0  0  0  0  0  0  0  0  0  0  0  0
  -10.1746    0.5846   -1.9341 C   0  0  0  0  0  0  0  0  0  0  0  0
   -9.8920   -0.3759   -3.0516 C   0  0  0  0  0  0  0  0  0  0  0  0
  -11.1767   -1.0488   -3.5723 C   0  0  0  0  0  0  0  0  0  0  0  0
  -12.3141   -1.1459   -2.5236 C   0  0  0  0  0  0  0  0  0  0  0  0
  -11.8222   -1.2243   -1.0528 C   0  0  0  0  0  0  0  0  0  0  0  0
  -10.9993   -2.5179   -0.8076 C   0  0  0  0  0  0  0  0  0  0  0  0
  -13.0673   -1.3083   -0.1343 C   0  0  0  0  0  0  0  0  0  0  0  0
  -11.0403    0.1216   -0.7528 C   0  0  1  0  0  0  0  0  0  0  0  0
  -10.3275    0.0860    0.5985 C   0  0  0  0  0  0  0  0  0  0  0  0
   -8.9918    0.2177    0.7612 C   0  0  0  0  0  0  0  0  0  0  0  0
   -8.2652    0.1752    2.0828 C   0  0  0  0  0  0  0  0  0  0  0  0
   -8.9892   -0.1213    3.3856 C   0  0  0  0  0  0  0  0  0  0  0  0
   -6.9207    0.3844    2.1908 C   0  0  0  0  0  0  0  0  0  0  0  0
   -5.9931    0.7004    1.0630 C   0  0  0  0  0  0  0  0  0  0  0  0
   -4.6396    0.8351    1.0362 C   0  0  0  0  0  0  0  0  0  0  0  0
   -3.5279    0.7037    2.0601 C   0  0  0  0  0  0  0  0  0  0  0  0
   -3.6924    0.2889    3.5078 C   0  0  0  0  0  0  0  0  0  0  0  0
   -2.2698    0.9770    1.6070 C   0  0  0  0  0  0  0  0  0  0  0  0
   -1.0281    0.8949    2.4383 C   0  0  0  0  0  0  0  0  0  0  0  0
    0.2196    1.1941    2.0160 C   0  0  0  0  0  0  0  0  0  0  0  0
    0.5777    1.6531    0.6391 C   0  0  0  0  0  0  0  0  0  0  0  0
    1.8091    2.0815    0.2509 C   0  0  0  0  0  0  0  0  0  0  0  0
    1.9882    2.5572   -1.1765 C   0  0  0  0  0  0  0  0  0  0  0  0
    2.9906    2.2161    1.2068 C   0  0  0  0  0  0  0  0  0  0  0  0
    3.9837    1.0407    1.2201 C   0  0  0  0  0  0  0  0  0  0  0  0
    4.7425    0.8726   -0.0811 C   0  0  0  0  0  0  0  0  0  0  0  0
    6.0781    1.0414   -0.2864 C   0  0  0  0  0  0  0  0  0  0  0  0
    7.0598    1.4947    0.7796 C   0  0  0  0  0  0  0  0  0  0  0  0
    6.6322    0.8045   -1.6865 C   0  0  0  0  0  0  0  0  0  0  0  0
    7.2425   -0.6009   -1.8585 C   0  0  0  0  0  0  0  0  0  0  0  0
    8.4325   -0.8791   -0.9759 C   0  0  0  0  0  0  0  0  0  0  0  0
    9.6704   -0.3404   -1.1094 C   0  0  0  0  0  0  0  0  0  0  0  0
   10.0368    0.6215   -2.2196 C   0  0  0  0  0  0  0  0  0  0  0  0
   10.7416   -0.7167   -0.1012 C   0  0  0  0  0  0  0  0  0  0  0  0
   11.8746   -1.5369   -0.7324 C   0  0  0  0  0  0  0  0  0  0  0  0
   12.8634   -1.9478    0.3373 C   0  0  0  0  0  0  0  0  0  0  0  0
   14.1958   -1.6927    0.3696 C   0  0  0  0  0  0  0  0  0  0  0  0
   14.9632   -0.9427   -0.6953 C   0  0  0  0  0  0  0  0  0  0  0  0
   15.0075   -2.1861    1.5419 C   0  0  0  0  0  0  0  0  0  0  0  0
   -9.0912    2.1755   -2.8200 H   0  0  0  0  0  0  0  0  0  0  0  0
   -9.9049    2.5424   -1.1838 H   0  0  0  0  0  0  0  0  0  0  0  0
   -9.2365   -1.1415   -2.6031 H   0  0  0  0  0  0  0  0  0  0  0  0
   -9.2969    0.0442   -3.8917 H   0  0  0  0  0  0  0  0  0  0  0  0
  -10.8807   -2.0573   -3.9346 H   0  0  0  0  0  0  0  0  0  0  0  0
  -11.5910   -0.4963   -4.4436 H   0  0  0  0  0  0  0  0  0  0  0  0
  -13.0030   -1.9725   -2.8038 H   0  0  0  0  0  0  0  0  0  0  0  0
  -12.9049   -0.2038   -2.5965 H   0  0  0  0  0  0  0  0  0  0  0  0
  -11.6201   -3.4109   -1.0365 H   0  0  0  0  0  0  0  0  0  0  0  0
  -10.6907   -2.5873    0.2571 H   0  0  0  0  0  0  0  0  0  0  0  0
  -10.0880   -2.6074   -1.4145 H   0  0  0  0  0  0  0  0  0  0  0  0
  -13.6696   -2.2118   -0.3729 H   0  0  0  0  0  0  0  0  0  0  0  0
  -13.7229   -0.4211   -0.2691 H   0  0  0  0  0  0  0  0  0  0  0  0
  -12.7815   -1.3687    0.9362 H   0  0  0  0  0  0  0  0  0  0  0  0
  -11.8157    0.9195   -0.6944 H   0  0  0  0  0  0  0  0  0  0  0  0
  -10.9733   -0.0624    1.4472 H   0  0  0  0  0  0  0  0  0  0  0  0
   -8.4139    0.3523   -0.1337 H   0  0  0  0  0  0  0  0  0  0  0  0
  -10.0696   -0.3116    3.2907 H   0  0  0  0  0  0  0  0  0  0  0  0
   -8.8649    0.7330    4.0842 H   0  0  0  0  0  0  0  0  0  0  0  0
   -8.5488   -1.0291    3.8511 H   0  0  0  0  0  0  0  0  0  0  0  0
   -6.5360    0.3257    3.1832 H   0  0  0  0  0  0  0  0  0  0  0  0
   -6.4407    0.8652    0.0945 H   0  0  0  0  0  0  0  0  0  0  0  0
   -4.2815    1.0906    0.0405 H   0  0  0  0  0  0  0  0  0  0  0  0
   -4.6952    0.0323    3.8262 H   0  0  0  0  0  0  0  0  0  0  0  0
   -3.3413    1.1092    4.1703 H   0  0  0  0  0  0  0  0  0  0  0  0
   -3.0891   -0.6215    3.7031 H   0  0  0  0  0  0  0  0  0  0  0  0
   -2.1610    1.2735    0.5733 H   0  0  0  0  0  0  0  0  0  0  0  0
   -1.1113    0.5829    3.4739 H   0  0  0  0  0  0  0  0  0  0  0  0
    1.0000    1.0873    2.7589 H   0  0  0  0  0  0  0  0  0  0  0  0
   -0.2001    1.6541   -0.1110 H   0  0  0  0  0  0  0  0  0  0  0  0
    1.0547    2.4729   -1.7726 H   0  0  0  0  0  0  0  0  0  0  0  0
    2.7602    1.9802   -1.7112 H   0  0  0  0  0  0  0  0  0  0  0  0
    2.2903    3.6248   -1.1702 H   0  0  0  0  0  0  0  0  0  0  0  0
    2.6213    2.3485    2.2411 H   0  0  0  0  0  0  0  0  0  0  0  0
    3.5271    3.1666    0.9988 H   0  0  0  0  0  0  0  0  0  0  0  0
    3.4502    0.0936    1.4513 H   0  0  0  0  0  0  0  0  0  0  0  0
    4.6603    1.2190    2.0697 H   0  0  0  0  0  0  0  0  0  0  0  0
    4.1423    0.5542   -0.9230 H   0  0  0  0  0  0  0  0  0  0  0  0
    6.6235    1.7211    1.7640 H   0  0  0  0  0  0  0  0  0  0  0  0
    7.5519    2.4288    0.4360 H   0  0  0  0  0  0  0  0  0  0  0  0
    7.8404    0.7311    0.9494 H   0  0  0  0  0  0  0  0  0  0  0  0
    7.3303    1.6226   -1.9566 H   0  0  0  0  0  0  0  0  0  0  0  0
    5.8043    0.8661   -2.4269 H   0  0  0  0  0  0  0  0  0  0  0  0
    7.5186   -0.7849   -2.9180 H   0  0  0  0  0  0  0  0  0  0  0  0
    6.4419   -1.3286   -1.5994 H   0  0  0  0  0  0  0  0  0  0  0  0
    8.2585   -1.5938   -0.1759 H   0  0  0  0  0  0  0  0  0  0  0  0
    9.2069    0.8291   -2.9195 H   0  0  0  0  0  0  0  0  0  0  0  0
   10.8625    0.2038   -2.8291 H   0  0  0  0  0  0  0  0  0  0  0  0
   10.3688    1.5838   -1.7776 H   0  0  0  0  0  0  0  0  0  0  0  0
   10.3018   -1.3287    0.7183 H   0  0  0  0  0  0  0  0  0  0  0  0
   11.1445    0.2114    0.3594 H   0  0  0  0  0  0  0  0  0  0  0  0
   12.3326   -0.9629   -1.5513 H   0  0  0  0  0  0  0  0  0  0  0  0
   11.4432   -2.4626   -1.1704 H   0  0  0  0  0  0  0  0  0  0  0  0
   12.4323   -2.5124    1.1606 H   0  0  0  0  0  0  0  0  0  0  0  0
   14.3664   -0.5932   -1.5522 H   0  0  0  0  0  0  0  0  0  0  0  0
   15.7578   -1.6046   -1.0995 H   0  0  0  0  0  0  0  0  0  0  0  0
   15.4437   -0.0516   -0.2399 H   0  0  0  0  0  0  0  0  0  0  0  0
   14.3903   -2.7256    2.2922 H   0  0  0  0  0  0  0  0  0  0  0  0
   15.4875   -1.3228    2.0490 H   0  0  0  0  0  0  0  0  0  0  0  0
   15.7976   -2.8781    1.1828 H   0  0  0  0  0  0  0  0  0  0  0  0
  1  2  2  0  0  0  0
  1 41  1  0  0  0  0
  1 42  1  0  0  0  0
  2  3  1  0  0  0  0
  3  4  1  0  0  0  0
  3 43  1  0  0  0  0
  3 44  1  0  0  0  0
  4  5  1  0  0  0  0
  4 45  1  0  0  0  0
  4 46  1  0  0  0  0
  5  6  1  0  0  0  0
  5 47  1  0  0  0  0
  5 48  1  0  0  0  0
  6  7  1  0  0  0  0
  6  8  1  0  0  0  0
  7 49  1  0  0  0  0
  7 50  1  0  0  0  0
  7 51  1  0  0  0  0
  8 52  1  0  0  0  0
  8 53  1  0  0  0  0
  8 54  1  0  0  0  0
  9  6  1  0  0  0  0
  9 10  1  0  0  0  0
  9  2  1  0  0  0  0
  9 55  1  1  0  0  0
 10 11  2  3  0  0  0
 10 56  1  0  0  0  0
 11 12  1  0  0  0  0
 11 57  1  0  0  0  0
 12 13  1  0  0  0  0
 12 14  2  3  0  0  0
 13 58  1  0  0  0  0
 13 59  1  0  0  0  0
 13 60  1  0  0  0  0
 14 15  1  0  0  0  0
 14 61  1  0  0  0  0
 15 16  2  3  0  0  0
 15 62  1  0  0  0  0
 16 17  1  0  0  0  0
 16 63  1  0  0  0  0
 17 18  1  0  0  0  0
 17 19  2  3  0  0  0
 18 64  1  0  0  0  0
 18 65  1  0  0  0  0
 18 66  1  0  0  0  0
 19 20  1  0  0  0  0
 19 67  1  0  0  0  0
 20 21  2  3  0  0  0
 20 68  1  0  0  0  0
 21 22  1  0  0  0  0
 21 69  1  0  0  0  0
 22 23  2  3  0  0  0
 22 70  1  0  0  0  0
 23 24  1  0  0  0  0
 23 25  1  0  0  0  0
 24 71  1  0  0  0  0
 24 72  1  0  0  0  0
 24 73  1  0  0  0  0
 25 26  1  0  0  0  0
 25 74  1  0  0  0  0
 25 75  1  0  0  0  0
 26 27  1  0  0  0  0
 26 76  1  0  0  0  0
 26 77  1  0  0  0  0
 27 28  2  3  0  0  0
 27 78  1  0  0  0  0
 28 29  1  0  0  0  0
 28 30  1  0  0  0  0
 29 79  1  0  0  0  0
 29 80  1  0  0  0  0
 29 81  1  0  0  0  0
 30 31  1  0  0  0  0
 30 82  1  0  0  0  0
 30 83  1  0  0  0  0
 31 32  1  0  0  0  0
 31 84  1  0  0  0  0
 31 85  1  0  0  0  0
 32 33  2  3  0  0  0
 32 86  1  0  0  0  0
 33 34  1  0  0  0  0
 33 35  1  0  0  0  0
 34 87  1  0  0  0  0
 34 88  1  0  0  0  0
 34 89  1  0  0  0  0
 35 36  1  0  0  0  0
 35 90  1  0  0  0  0
 35 91  1  0  0  0  0
 36 37  1  0  0  0  0
 36 92  1  0  0  0  0
 36 93  1  0  0  0  0
 37 38  2  0  0  0  0
 37 94  1  0  0  0  0
 38 39  1  0  0  0  0
 38 40  1  0  0  0  0
 39 95  1  0  0  0  0
 39 96  1  0  0  0  0
 39 97  1  0  0  0  0
 40 98  1  0  0  0  0
 40 99  1  0  0  0  0
 40100  1  0  0  0  0
M  END
>  <IDENTIFIER>
CNP0343940.0

>  <Energy>
671.699

$$$$
