
 OpenBabel09092521503D

 43 45  0  0  0  0  0  0  0  0999 V2000
    3.8462   -1.7063    0.9083 C   0  0  0  0  0  0  0  0  0  0  0  0
    4.2195   -0.6605   -0.1566 C   0  0  2  0  0  0  0  0  0  0  0  0
    5.0009    0.4981    0.4507 C   0  0  0  0  0  0  0  0  0  0  0  0
    6.0023    0.2518    1.1048 O   0  0  0  0  0  0  0  0  0  0  0  0
    4.6656    1.7947    0.2578 O   0  0  0  0  0  0  0  0  0  0  0  0
    3.0228   -0.2291   -0.8977 N   0  0  0  0  0  0  0  0  0  0  0  0
    2.9354   -0.4966   -2.3272 C   0  0  0  0  0  0  0  0  0  0  0  0
    1.9687    0.4047   -0.2868 C   0  0  0  0  0  0  0  0  0  0  0  0
    2.0135    0.6728    0.9068 O   0  0  0  0  0  0  0  0  0  0  0  0
    0.8748    0.7567   -1.0187 O   0  0  0  0  0  0  0  0  0  0  0  0
   -0.2469    1.4001   -0.5257 C   0  0  0  0  0  0  0  0  0  0  0  0
   -1.0261    0.5319    0.4838 C   0  0  0  0  0  0  0  0  0  0  0  0
   -2.2770    1.2336    0.9464 C   0  0  0  0  0  0  0  0  0  0  0  0
   -2.3775    2.4503    1.6264 C   0  0  0  0  0  0  0  0  0  0  0  0
   -3.6537    2.9284    1.9664 C   0  0  0  0  0  0  0  0  0  0  0  0
   -4.8048    2.1900    1.6280 C   0  0  0  0  0  0  0  0  0  0  0  0
   -4.6888    0.9672    0.9475 C   0  0  0  0  0  0  0  0  0  0  0  0
   -3.4106    0.5133    0.6191 C   0  0  0  0  0  0  0  0  0  0  0  0
   -3.0016   -0.6964   -0.0608 C   0  0  0  0  0  0  0  0  0  0  0  0
   -3.7775   -1.7381   -0.5701 C   0  0  0  0  0  0  0  0  0  0  0  0
   -3.1210   -2.8182   -1.1802 C   0  0  0  0  0  0  0  0  0  0  0  0
   -1.7154   -2.8392   -1.2674 C   0  0  0  0  0  0  0  0  0  0  0  0
   -0.9541   -1.7794   -0.7467 C   0  0  0  0  0  0  0  0  0  0  0  0
   -1.6198   -0.7065   -0.1456 C   0  0  0  0  0  0  0  0  0  0  0  0
    4.7626   -2.0960    1.4008 H   0  0  0  0  0  0  0  0  0  0  0  0
    3.3265   -2.5609    0.4249 H   0  0  0  0  0  0  0  0  0  0  0  0
    3.1886   -1.2905    1.6969 H   0  0  0  0  0  0  0  0  0  0  0  0
    4.9275   -1.1731   -0.8442 H   0  0  0  0  0  0  0  0  0  0  0  0
    3.9389    2.0849   -0.3070 H   0  0  0  0  0  0  0  0  0  0  0  0
    3.8368   -1.0143   -2.7167 H   0  0  0  0  0  0  0  0  0  0  0  0
    2.8299    0.4599   -2.8826 H   0  0  0  0  0  0  0  0  0  0  0  0
    2.0560   -1.1416   -2.5385 H   0  0  0  0  0  0  0  0  0  0  0  0
   -0.9122    1.6464   -1.3817 H   0  0  0  0  0  0  0  0  0  0  0  0
    0.0630    2.3567   -0.0511 H   0  0  0  0  0  0  0  0  0  0  0  0
   -0.3981    0.2652    1.3585 H   0  0  0  0  0  0  0  0  0  0  0  0
   -1.4914    3.0149    1.8859 H   0  0  0  0  0  0  0  0  0  0  0  0
   -3.7527    3.8692    2.4920 H   0  0  0  0  0  0  0  0  0  0  0  0
   -5.7835    2.5663    1.8956 H   0  0  0  0  0  0  0  0  0  0  0  0
   -5.5697    0.3947    0.6886 H   0  0  0  0  0  0  0  0  0  0  0  0
   -4.8569   -1.7197   -0.4961 H   0  0  0  0  0  0  0  0  0  0  0  0
   -3.6982   -3.6405   -1.5827 H   0  0  0  0  0  0  0  0  0  0  0  0
   -1.2184   -3.6783   -1.7367 H   0  0  0  0  0  0  0  0  0  0  0  0
    0.1249   -1.8011   -0.8113 H   0  0  0  0  0  0  0  0  0  0  0  0
  1 25  1  0  0  0  0
  1 26  1  0  0  0  0
  1 27  1  0  0  0  0
  2  1  1  0  0  0  0
  2  3  1  0  0  0  0
  2  6  1  0  0  0  0
  2 28  1  6  0  0  0
  3  4  2  0  0  0  0
  3  5  1  0  0  0  0
  5 29  1  0  0  0  0
  6  7  1  0  0  0  0
  6  8  1  0  0  0  0
  7 30  1  0  0  0  0
  7 31  1  0  0  0  0
  7 32  1  0  0  0  0
  8  9  2  0  0  0  0
  8 10  1  0  0  0  0
 10 11  1  0  0  0  0
 11 12  1  0  0  0  0
 11 33  1  0  0  0  0
 11 34  1  0  0  0  0
 12 13  1  0  0  0  0
 12 35  1  0  0  0  0
 13 14  2  0  0  0  0
 14 15  1  0  0  0  0
 14 36  1  0  0  0  0
 15 16  2  0  0  0  0
 15 37  1  0  0  0  0
 16 17  1  0  0  0  0
 16 38  1  0  0  0  0
 17 18  2  0  0  0  0
 17 39  1  0  0  0  0
 18 19  1  0  0  0  0
 18 13  1  0  0  0  0
 19 20  2  0  0  0  0
 20 21  1  0  0  0  0
 20 40  1  0  0  0  0
 21 22  2  0  0  0  0
 21 41  1  0  0  0  0
 22 23  1  0  0  0  0
 22 42  1  0  0  0  0
 23 24  2  0  0  0  0
 23 43  1  0  0  0  0
 24 12  1  0  0  0  0
 24 19  1  0  0  0  0
M  END
>  <IDENTIFIER>
CNP0128012.1

>  <Energy>
279.024

$$$$
