
 OpenBabel09112505553D

 47 51  0  0  0  0  0  0  0  0999 V2000
   -1.2175   -0.9529   -2.0245 O   0  0  0  0  0  0  0  0  0  0  0  0
   -0.5086   -1.5061   -0.9502 C   0  0  0  0  0  0  0  0  0  0  0  0
   -0.1556   -0.4008    0.1010 C   0  0  2  0  0  0  0  0  0  0  0  0
    0.5299    0.6654   -0.5121 O   0  0  0  0  0  0  0  0  0  0  0  0
    0.5906   -0.9280    1.3266 C   0  0  2  0  0  0  0  0  0  0  0  0
    1.8604   -1.7845    1.1227 C   0  0  0  0  0  0  0  0  0  0  0  0
    2.9888   -0.9783    0.5260 C   0  0  0  0  0  0  0  0  0  0  0  0
    3.5443   -1.3280   -0.7339 C   0  0  0  0  0  0  0  0  0  0  0  0
    4.5860   -0.5620   -1.2919 C   0  0  0  0  0  0  0  0  0  0  0  0
    5.0447    0.5351   -0.5674 C   0  0  0  0  0  0  0  0  0  0  0  0
    6.0065    1.4047   -0.8885 O   0  0  0  0  0  0  0  0  0  0  0  0
    6.1016    2.3280    0.1509 C   0  0  0  0  0  0  0  0  0  0  0  0
    5.1512    1.9534    1.0971 O   0  0  0  0  0  0  0  0  0  0  0  0
    4.5283    0.8684    0.6317 C   0  0  0  0  0  0  0  0  0  0  0  0
    3.5014    0.1420    1.2234 C   0  0  0  0  0  0  0  0  0  0  0  0
   -0.5450   -1.6370    2.0522 C   0  0  0  0  0  0  0  0  0  0  0  0
   -1.7188   -0.8692    1.8397 O   0  0  0  0  0  0  0  0  0  0  0  0
   -1.3938    0.1184    0.8697 C   0  0  2  0  0  0  0  0  0  0  0  0
   -2.5845    0.5308    0.0242 C   0  0  0  0  0  0  0  0  0  0  0  0
   -2.4419    1.5683   -0.9390 C   0  0  0  0  0  0  0  0  0  0  0  0
   -3.5380    1.9866   -1.7141 C   0  0  0  0  0  0  0  0  0  0  0  0
   -4.7596    1.3610   -1.4966 C   0  0  0  0  0  0  0  0  0  0  0  0
   -5.9313    1.5966   -2.0914 O   0  0  0  0  0  0  0  0  0  0  0  0
   -6.8677    0.7333   -1.5278 C   0  0  0  0  0  0  0  0  0  0  0  0
   -6.1827   -0.0261   -0.5818 O   0  0  0  0  0  0  0  0  0  0  0  0
   -4.9104    0.3795   -0.5853 C   0  0  0  0  0  0  0  0  0  0  0  0
   -3.8536   -0.0759    0.1987 C   0  0  0  0  0  0  0  0  0  0  0  0
   -1.4122   -1.7033   -2.6447 H   0  0  0  0  0  0  0  0  0  0  0  0
    0.4344   -1.9413   -1.3470 H   0  0  0  0  0  0  0  0  0  0  0  0
   -1.1152   -2.3192   -0.4994 H   0  0  0  0  0  0  0  0  0  0  0  0
    1.2615    0.2866   -1.0626 H   0  0  0  0  0  0  0  0  0  0  0  0
    0.8626   -0.0541    1.9657 H   0  0  0  0  0  0  0  0  0  0  0  0
    1.6204   -2.6685    0.4952 H   0  0  0  0  0  0  0  0  0  0  0  0
    2.2030   -2.1658    2.1091 H   0  0  0  0  0  0  0  0  0  0  0  0
    3.1666   -2.1822   -1.2811 H   0  0  0  0  0  0  0  0  0  0  0  0
    5.0137   -0.8136   -2.2535 H   0  0  0  0  0  0  0  0  0  0  0  0
    5.8825    3.3506   -0.2240 H   0  0  0  0  0  0  0  0  0  0  0  0
    7.1174    2.2964    0.5990 H   0  0  0  0  0  0  0  0  0  0  0  0
    3.1131    0.4396    2.1887 H   0  0  0  0  0  0  0  0  0  0  0  0
   -0.3124   -1.7422    3.1334 H   0  0  0  0  0  0  0  0  0  0  0  0
   -0.7156   -2.6515    1.6336 H   0  0  0  0  0  0  0  0  0  0  0  0
   -1.0991    1.0314    1.4412 H   0  0  0  0  0  0  0  0  0  0  0  0
   -1.4883    2.0557   -1.0865 H   0  0  0  0  0  0  0  0  0  0  0  0
   -3.4364    2.7752   -2.4480 H   0  0  0  0  0  0  0  0  0  0  0  0
   -7.2970    0.0722   -2.3096 H   0  0  0  0  0  0  0  0  0  0  0  0
   -7.6753    1.3171   -1.0364 H   0  0  0  0  0  0  0  0  0  0  0  0
   -4.0214   -0.8614    0.9234 H   0  0  0  0  0  0  0  0  0  0  0  0
  1  2  1  0  0  0  0
  1 28  1  0  0  0  0
  2  3  1  0  0  0  0
  2 29  1  0  0  0  0
  2 30  1  0  0  0  0
  3  4  1  6  0  0  0
  3  5  1  0  0  0  0
  4 31  1  0  0  0  0
  5  6  1  0  0  0  0
  5 16  1  0  0  0  0
  5 32  1  1  0  0  0
  6  7  1  0  0  0  0
  6 33  1  0  0  0  0
  6 34  1  0  0  0  0
  7  8  2  0  0  0  0
  8  9  1  0  0  0  0
  8 35  1  0  0  0  0
  9 10  2  0  0  0  0
  9 36  1  0  0  0  0
 10 11  1  0  0  0  0
 11 12  1  0  0  0  0
 12 13  1  0  0  0  0
 12 37  1  0  0  0  0
 12 38  1  0  0  0  0
 13 14  1  0  0  0  0
 14 15  2  0  0  0  0
 14 10  1  0  0  0  0
 15  7  1  0  0  0  0
 15 39  1  0  0  0  0
 16 17  1  0  0  0  0
 16 40  1  0  0  0  0
 16 41  1  0  0  0  0
 17 18  1  0  0  0  0
 18 19  1  0  0  0  0
 18  3  1  0  0  0  0
 18 42  1  1  0  0  0
 19 20  2  0  0  0  0
 20 21  1  0  0  0  0
 20 43  1  0  0  0  0
 21 22  2  0  0  0  0
 21 44  1  0  0  0  0
 22 23  1  0  0  0  0
 23 24  1  0  0  0  0
 24 25  1  0  0  0  0
 24 45  1  0  0  0  0
 24 46  1  0  0  0  0
 25 26  1  0  0  0  0
 26 27  2  0  0  0  0
 26 22  1  0  0  0  0
 27 19  1  0  0  0  0
 27 47  1  0  0  0  0
M  END
>  <IDENTIFIER>
CNP0188367.2

>  <Energy>
566.454

$$$$
