
 OpenBabel09052513363D

 54 57  0  0  0  0  0  0  0  0999 V2000
   -4.1510   -1.3806    2.0491 C   0  0  0  0  0  0  0  0  0  0  0  0
   -2.6812   -1.1779    1.6775 C   0  0  0  0  0  0  0  0  0  0  0  0
   -2.3280   -1.6204    0.2269 C   0  0  2  0  0  0  0  0  0  0  0  0
   -2.6414   -3.1193    0.0060 C   0  0  0  0  0  0  0  0  0  0  0  0
   -0.8311   -1.2799   -0.1275 C   0  0  2  0  0  0  0  0  0  0  0  0
   -0.5988   -1.7625   -1.4494 O   0  0  0  0  0  0  0  0  0  0  0  0
    0.7125   -1.5165   -1.9077 C   0  0  0  0  0  0  0  0  0  0  0  0
    0.0254   -1.9735    0.8229 N   0  0  0  0  0  0  0  0  0  0  0  0
    0.8509   -1.3612    1.7022 C   0  0  0  0  0  0  0  0  0  0  0  0
    1.4721   -2.0509    2.4997 O   0  0  0  0  0  0  0  0  0  0  0  0
    1.0444    0.1404    1.7439 C   0  0  1  0  0  0  0  0  0  0  0  0
    2.5722    0.4347    1.6006 C   0  0  0  0  0  0  0  0  0  0  0  0
    3.2036   -0.1085    0.3405 C   0  0  0  0  0  0  0  0  0  0  0  0
    3.0743    0.5652   -0.8843 C   0  0  0  0  0  0  0  0  0  0  0  0
    3.6817    0.0505   -2.0372 C   0  0  0  0  0  0  0  0  0  0  0  0
    4.4102   -1.1417   -1.9761 C   0  0  0  0  0  0  0  0  0  0  0  0
    4.5441   -1.8161   -0.7614 C   0  0  0  0  0  0  0  0  0  0  0  0
    3.9528   -1.2992    0.3931 C   0  0  0  0  0  0  0  0  0  0  0  0
    0.1951    0.8837    0.7762 N   0  0  0  0  0  0  0  0  0  0  0  0
   -0.6651    0.2386   -0.0874 C   0  0  0  0  0  0  0  0  0  0  0  0
   -1.4473    0.9576   -0.9354 N   0  0  0  0  0  0  0  0  0  0  0  0
   -1.4419    2.3073   -0.9633 C   0  0  0  0  0  0  0  0  0  0  0  0
   -2.2836    2.9924   -1.8475 C   0  0  0  0  0  0  0  0  0  0  0  0
   -2.2951    4.3892   -1.8615 C   0  0  0  0  0  0  0  0  0  0  0  0
   -1.4665    5.1038   -0.9919 C   0  0  0  0  0  0  0  0  0  0  0  0
   -0.6228    4.4233   -0.1075 C   0  0  0  0  0  0  0  0  0  0  0  0
   -0.6071    3.0131   -0.0877 C   0  0  0  0  0  0  0  0  0  0  0  0
    0.2125    2.2777    0.7863 C   0  0  0  0  0  0  0  0  0  0  0  0
    0.9241    2.8803    1.5746 O   0  0  0  0  0  0  0  0  0  0  0  0
   -4.3249   -0.9951    3.0759 H   0  0  0  0  0  0  0  0  0  0  0  0
   -4.4251   -2.4547    2.0492 H   0  0  0  0  0  0  0  0  0  0  0  0
   -4.8066   -0.8273    1.3444 H   0  0  0  0  0  0  0  0  0  0  0  0
   -2.0545   -1.7315    2.4098 H   0  0  0  0  0  0  0  0  0  0  0  0
   -2.4673   -0.0942    1.7918 H   0  0  0  0  0  0  0  0  0  0  0  0
   -2.9821   -1.0630   -0.4804 H   0  0  0  0  0  0  0  0  0  0  0  0
   -2.0888   -3.7671    0.7157 H   0  0  0  0  0  0  0  0  0  0  0  0
   -2.3891   -3.4242   -1.0311 H   0  0  0  0  0  0  0  0  0  0  0  0
   -3.7236   -3.3208    0.1296 H   0  0  0  0  0  0  0  0  0  0  0  0
    0.8397   -2.0290   -2.8827 H   0  0  0  0  0  0  0  0  0  0  0  0
    1.4789   -1.9433   -1.2284 H   0  0  0  0  0  0  0  0  0  0  0  0
    0.8657   -0.4353   -2.1010 H   0  0  0  0  0  0  0  0  0  0  0  0
   -0.0205   -3.0028    0.8532 H   0  0  0  0  0  0  0  0  0  0  0  0
    0.7411    0.4720    2.7615 H   0  0  0  0  0  0  0  0  0  0  0  0
    3.0609   -0.0571    2.4711 H   0  0  0  0  0  0  0  0  0  0  0  0
    2.8412    1.5026    1.7139 H   0  0  0  0  0  0  0  0  0  0  0  0
    2.5133    1.4886   -0.9464 H   0  0  0  0  0  0  0  0  0  0  0  0
    3.5844    0.5724   -2.9799 H   0  0  0  0  0  0  0  0  0  0  0  0
    4.8722   -1.5434   -2.8687 H   0  0  0  0  0  0  0  0  0  0  0  0
    5.1063   -2.7400   -0.7120 H   0  0  0  0  0  0  0  0  0  0  0  0
    4.0681   -1.8367    1.3261 H   0  0  0  0  0  0  0  0  0  0  0  0
   -2.9327    2.4446   -2.5198 H   0  0  0  0  0  0  0  0  0  0  0  0
   -2.9487    4.9183   -2.5430 H   0  0  0  0  0  0  0  0  0  0  0  0
   -1.4793    6.1862   -1.0033 H   0  0  0  0  0  0  0  0  0  0  0  0
    0.0079    4.9989    0.5586 H   0  0  0  0  0  0  0  0  0  0  0  0
  1  2  1  0  0  0  0
  1 30  1  0  0  0  0
  1 31  1  0  0  0  0
  1 32  1  0  0  0  0
  2  3  1  0  0  0  0
  2 33  1  0  0  0  0
  2 34  1  0  0  0  0
  3  4  1  0  0  0  0
  3  5  1  0  0  0  0
  3 35  1  6  0  0  0
  4 36  1  0  0  0  0
  4 37  1  0  0  0  0
  4 38  1  0  0  0  0
  5  6  1  6  0  0  0
  5  8  1  0  0  0  0
  6  7  1  0  0  0  0
  7 39  1  0  0  0  0
  7 40  1  0  0  0  0
  7 41  1  0  0  0  0
  8  9  1  0  0  0  0
  8 42  1  0  0  0  0
  9 10  2  0  0  0  0
  9 11  1  0  0  0  0
 11 12  1  0  0  0  0
 11 19  1  0  0  0  0
 11 43  1  1  0  0  0
 12 13  1  0  0  0  0
 12 44  1  0  0  0  0
 12 45  1  0  0  0  0
 13 14  2  0  0  0  0
 14 15  1  0  0  0  0
 14 46  1  0  0  0  0
 15 16  2  0  0  0  0
 15 47  1  0  0  0  0
 16 17  1  0  0  0  0
 16 48  1  0  0  0  0
 17 18  2  0  0  0  0
 17 49  1  0  0  0  0
 18 13  1  0  0  0  0
 18 50  1  0  0  0  0
 19 20  1  0  0  0  0
 20 21  2  0  0  0  0
 20  5  1  0  0  0  0
 21 22  1  0  0  0  0
 22 23  2  0  0  0  0
 23 24  1  0  0  0  0
 23 51  1  0  0  0  0
 24 25  2  0  0  0  0
 24 52  1  0  0  0  0
 25 26  1  0  0  0  0
 25 53  1  0  0  0  0
 26 27  2  0  0  0  0
 26 54  1  0  0  0  0
 27 28  1  0  0  0  0
 27 22  1  0  0  0  0
 28 29  2  0  0  0  0
 28 19  1  0  0  0  0
M  END
>  <IDENTIFIER>
CNP0585197.2

>  <Energy>
342.573

$$$$
