
 OpenBabel09052514023D

 76 80  0  0  0  0  0  0  0  0999 V2000
   -3.8013    2.9404    2.7333 C   0  0  0  0  0  0  0  0  0  0  0  0
   -4.9096    2.8146    1.6834 C   0  0  0  0  0  0  0  0  0  0  0  0
   -4.3976    2.7299    0.2294 C   0  0  1  0  0  0  0  0  0  0  0  0
   -3.6734    4.0055   -0.2051 C   0  0  0  0  0  0  0  0  0  0  0  0
   -3.5428    1.6432    0.0855 O   0  0  0  0  0  0  0  0  0  0  0  0
   -3.6217    0.5937   -0.7879 C   0  0  0  0  0  0  0  0  0  0  0  0
   -4.4669    0.6286   -1.9194 C   0  0  0  0  0  0  0  0  0  0  0  0
   -4.5192   -0.4489   -2.8019 C   0  0  0  0  0  0  0  0  0  0  0  0
   -3.7345   -1.5744   -2.5804 C   0  0  0  0  0  0  0  0  0  0  0  0
   -2.8896   -1.6318   -1.4737 C   0  0  0  0  0  0  0  0  0  0  0  0
   -2.8145   -0.5604   -0.5617 C   0  0  0  0  0  0  0  0  0  0  0  0
   -1.8760   -0.6653    0.6503 C   0  0  2  0  0  0  0  0  0  0  0  0
   -0.4439   -0.3852    0.1749 C   0  0  0  0  0  0  0  0  0  0  0  0
    0.3483   -1.2923   -0.4505 C   0  0  0  0  0  0  0  0  0  0  0  0
    1.6952   -0.8674   -1.0311 C   0  0  0  0  0  0  0  0  0  0  0  0
    2.3751    0.0888   -0.0496 C   0  0  1  0  0  0  0  0  0  0  0  0
    3.8202    0.4068   -0.3983 C   0  0  0  0  0  0  0  0  0  0  0  0
    4.8133    0.1916    0.5706 C   0  0  0  0  0  0  0  0  0  0  0  0
    6.1468    0.4931    0.3053 C   0  0  0  0  0  0  0  0  0  0  0  0
    6.5283    1.0038   -0.9479 C   0  0  0  0  0  0  0  0  0  0  0  0
    7.8213    1.3109   -1.2388 O   0  0  0  0  0  0  0  0  0  0  0  0
    8.8882    1.2171   -0.3680 C   0  0  0  0  0  0  0  0  0  0  0  0
    5.5511    1.2094   -1.9377 C   0  0  0  0  0  0  0  0  0  0  0  0
    5.9589    1.6837   -3.1447 O   0  0  0  0  0  0  0  0  0  0  0  0
    5.1620    1.8772   -4.2536 C   0  0  0  0  0  0  0  0  0  0  0  0
    4.1963    0.9186   -1.6546 C   0  0  0  0  0  0  0  0  0  0  0  0
    1.5276    1.3644    0.0436 C   0  0  0  0  0  0  0  0  0  0  0  0
    0.0776    1.0285    0.3013 C   0  0  0  0  0  0  0  0  0  0  0  0
   -0.6790    1.9447    0.5857 O   0  0  0  0  0  0  0  0  0  0  0  0
    0.0223   -2.6665   -0.5402 N   0  0  0  0  0  0  0  0  0  0  0  0
   -0.2487   -3.3804    0.6529 C   0  0  0  0  0  0  0  0  0  0  0  0
    0.5233   -4.5450    0.8641 C   0  0  0  0  0  0  0  0  0  0  0  0
    0.4089   -5.2949    2.0254 C   0  0  0  0  0  0  0  0  0  0  0  0
   -0.4728   -4.8957    3.0114 C   0  0  0  0  0  0  0  0  0  0  0  0
   -1.2647   -3.7678    2.8216 C   0  0  0  0  0  0  0  0  0  0  0  0
   -1.2100   -2.9825    1.6300 C   0  0  0  0  0  0  0  0  0  0  0  0
   -2.1570   -1.8835    1.4518 N   0  0  0  0  0  0  0  0  0  0  0  0
   -3.4375   -2.0261    1.9998 C   0  0  0  0  0  0  0  0  0  0  0  0
   -4.4925   -0.9507    2.0480 C   0  0  0  0  0  0  0  0  0  0  0  0
   -3.8057   -3.0978    2.4601 O   0  0  0  0  0  0  0  0  0  0  0  0
   -4.2562    2.9598    3.7463 H   0  0  0  0  0  0  0  0  0  0  0  0
   -3.2296    3.8809    2.5999 H   0  0  0  0  0  0  0  0  0  0  0  0
   -3.1063    2.0772    2.6785 H   0  0  0  0  0  0  0  0  0  0  0  0
   -5.5982    3.6817    1.7843 H   0  0  0  0  0  0  0  0  0  0  0  0
   -5.4988    1.8997    1.9065 H   0  0  0  0  0  0  0  0  0  0  0  0
   -5.3023    2.6326   -0.4010 H   0  0  0  0  0  0  0  0  0  0  0  0
   -2.7486    4.1654    0.3858 H   0  0  0  0  0  0  0  0  0  0  0  0
   -4.3424    4.8844   -0.0851 H   0  0  0  0  0  0  0  0  0  0  0  0
   -3.3895    3.9224   -1.2750 H   0  0  0  0  0  0  0  0  0  0  0  0
   -5.0866    1.4805   -2.1488 H   0  0  0  0  0  0  0  0  0  0  0  0
   -5.1713   -0.4080   -3.6653 H   0  0  0  0  0  0  0  0  0  0  0  0
   -3.7810   -2.4086   -3.2686 H   0  0  0  0  0  0  0  0  0  0  0  0
   -2.3061   -2.5259   -1.3302 H   0  0  0  0  0  0  0  0  0  0  0  0
   -2.0751    0.1875    1.3241 H   0  0  0  0  0  0  0  0  0  0  0  0
    1.5410   -0.3524   -2.0043 H   0  0  0  0  0  0  0  0  0  0  0  0
    2.3328   -1.7604   -1.2111 H   0  0  0  0  0  0  0  0  0  0  0  0
    2.3591   -0.3987    0.9533 H   0  0  0  0  0  0  0  0  0  0  0  0
    4.5552   -0.1974    1.5475 H   0  0  0  0  0  0  0  0  0  0  0  0
    6.8753    0.3225    1.0863 H   0  0  0  0  0  0  0  0  0  0  0  0
    9.8125    1.5403   -0.8889 H   0  0  0  0  0  0  0  0  0  0  0  0
    9.0206    0.1673   -0.0301 H   0  0  0  0  0  0  0  0  0  0  0  0
    8.7263    1.8818    0.5080 H   0  0  0  0  0  0  0  0  0  0  0  0
    5.7895    2.2585   -5.0853 H   0  0  0  0  0  0  0  0  0  0  0  0
    4.3700    2.6233   -4.0343 H   0  0  0  0  0  0  0  0  0  0  0  0
    4.7074    0.9135   -4.5689 H   0  0  0  0  0  0  0  0  0  0  0  0
    3.4359    1.0815   -2.4057 H   0  0  0  0  0  0  0  0  0  0  0  0
    1.5824    1.9665   -0.8903 H   0  0  0  0  0  0  0  0  0  0  0  0
    1.9254    1.9760    0.8823 H   0  0  0  0  0  0  0  0  0  0  0  0
    0.5769   -3.1837   -1.2406 H   0  0  0  0  0  0  0  0  0  0  0  0
    1.2468   -4.8654    0.1243 H   0  0  0  0  0  0  0  0  0  0  0  0
    1.0205   -6.1767    2.1681 H   0  0  0  0  0  0  0  0  0  0  0  0
   -0.5528   -5.4667    3.9280 H   0  0  0  0  0  0  0  0  0  0  0  0
   -1.9221   -3.5185    3.6411 H   0  0  0  0  0  0  0  0  0  0  0  0
   -4.1602    0.0304    1.7209 H   0  0  0  0  0  0  0  0  0  0  0  0
   -4.8173   -0.8165    3.1014 H   0  0  0  0  0  0  0  0  0  0  0  0
   -5.3704   -1.2554    1.4408 H   0  0  0  0  0  0  0  0  0  0  0  0
  1  2  1  0  0  0  0
  1 41  1  0  0  0  0
  1 42  1  0  0  0  0
  1 43  1  0  0  0  0
  2  3  1  0  0  0  0
  2 44  1  0  0  0  0
  2 45  1  0  0  0  0
  3  4  1  0  0  0  0
  3  5  1  0  0  0  0
  3 46  1  6  0  0  0
  4 47  1  0  0  0  0
  4 48  1  0  0  0  0
  4 49  1  0  0  0  0
  5  6  1  0  0  0  0
  6  7  2  0  0  0  0
  7  8  1  0  0  0  0
  7 50  1  0  0  0  0
  8  9  2  0  0  0  0
  8 51  1  0  0  0  0
  9 10  1  0  0  0  0
  9 52  1  0  0  0  0
 10 11  2  0  0  0  0
 10 53  1  0  0  0  0
 11  6  1  0  0  0  0
 12 11  1  0  0  0  0
 12 13  1  0  0  0  0
 12 54  1  1  0  0  0
 13 14  2  0  0  0  0
 14 15  1  0  0  0  0
 14 30  1  0  0  0  0
 15 16  1  0  0  0  0
 15 55  1  0  0  0  0
 15 56  1  0  0  0  0
 16 17  1  0  0  0  0
 16 27  1  0  0  0  0
 16 57  1  1  0  0  0
 17 18  2  0  0  0  0
 18 19  1  0  0  0  0
 18 58  1  0  0  0  0
 19 20  2  0  0  0  0
 19 59  1  0  0  0  0
 20 21  1  0  0  0  0
 20 23  1  0  0  0  0
 21 22  1  0  0  0  0
 22 60  1  0  0  0  0
 22 61  1  0  0  0  0
 22 62  1  0  0  0  0
 23 24  1  0  0  0  0
 23 26  2  0  0  0  0
 24 25  1  0  0  0  0
 25 63  1  0  0  0  0
 25 64  1  0  0  0  0
 25 65  1  0  0  0  0
 26 17  1  0  0  0  0
 26 66  1  0  0  0  0
 27 28  1  0  0  0  0
 27 67  1  0  0  0  0
 27 68  1  0  0  0  0
 28 29  2  0  0  0  0
 28 13  1  0  0  0  0
 30 31  1  0  0  0  0
 30 69  1  0  0  0  0
 31 32  2  0  0  0  0
 32 33  1  0  0  0  0
 32 70  1  0  0  0  0
 33 34  2  0  0  0  0
 33 71  1  0  0  0  0
 34 35  1  0  0  0  0
 34 72  1  0  0  0  0
 35 36  2  0  0  0  0
 35 73  1  0  0  0  0
 36 37  1  0  0  0  0
 36 31  1  0  0  0  0
 37 38  1  0  0  0  0
 37 12  1  0  0  0  0
 38 39  1  0  0  0  0
 38 40  2  0  0  0  0
 39 74  1  0  0  0  0
 39 75  1  0  0  0  0
 39 76  1  0  0  0  0
M  END
>  <IDENTIFIER>
CNP0070538.2

>  <Energy>
741.974

$$$$
