
 OpenBabel09102504123D

 17 16  0  0  0  0  0  0  0  0999 V2000
   -2.1829    0.8995   -0.0930 C   0  0  0  0  0  0  0  0  0  0  0  0
   -0.6851    0.7888   -0.0340 C   0  0  0  0  0  0  0  0  0  0  0  0
   -0.0155   -0.3740    0.1771 C   0  0  0  0  0  0  0  0  0  0  0  0
   -0.7552   -1.6847    0.3747 C   0  0  0  0  0  0  0  0  0  0  0  0
    1.4864   -0.4405    0.2291 C   0  0  0  0  0  0  0  0  0  0  0  0
    2.4158    0.7356    0.0580 C   0  0  0  0  0  0  0  0  0  0  0  0
    2.0115   -1.5271    0.4246 O   0  0  0  0  0  0  0  0  0  0  0  0
   -2.4748    1.9551   -0.2762 H   0  0  0  0  0  0  0  0  0  0  0  0
   -2.6288    0.5760    0.8710 H   0  0  0  0  0  0  0  0  0  0  0  0
   -2.5802    0.2781   -0.9231 H   0  0  0  0  0  0  0  0  0  0  0  0
   -0.1606    1.7210   -0.1745 H   0  0  0  0  0  0  0  0  0  0  0  0
   -1.8580   -1.5980    0.3304 H   0  0  0  0  0  0  0  0  0  0  0  0
   -0.4954   -2.1079    1.3678 H   0  0  0  0  0  0  0  0  0  0  0  0
   -0.4472   -2.4035   -0.4136 H   0  0  0  0  0  0  0  0  0  0  0  0
    1.9180    1.7028   -0.1169 H   0  0  0  0  0  0  0  0  0  0  0  0
    3.0860    0.5453   -0.8065 H   0  0  0  0  0  0  0  0  0  0  0  0
    3.0380    0.8421    0.9715 H   0  0  0  0  0  0  0  0  0  0  0  0
  1  2  1  0  0  0  0
  1  8  1  0  0  0  0
  1  9  1  0  0  0  0
  1 10  1  0  0  0  0
  2  3  2  3  0  0  0
  2 11  1  0  0  0  0
  3  4  1  0  0  0  0
  3  5  1  0  0  0  0
  4 12  1  0  0  0  0
  4 13  1  0  0  0  0
  4 14  1  0  0  0  0
  5  6  1  0  0  0  0
  5  7  2  0  0  0  0
  6 15  1  0  0  0  0
  6 16  1  0  0  0  0
  6 17  1  0  0  0  0
M  END
>  <IDENTIFIER>
CNP0119709.0

>  <Energy>
53.5718

$$$$
