
 OpenBabel09082522173D

 50 51  0  0  0  0  0  0  0  0999 V2000
   -4.3435    1.1524    2.3139 C   0  0  0  0  0  0  0  0  0  0  0  0
   -4.1247    0.4510    1.0677 N   0  0  0  0  0  0  0  0  0  0  0  0
   -2.9841    0.6253    0.3377 C   0  0  0  0  0  0  0  0  0  0  0  0
   -2.1490    1.4292    0.7302 O   0  0  0  0  0  0  0  0  0  0  0  0
   -2.7367   -0.1725   -0.9584 C   0  0  0  0  0  0  0  0  0  0  0  0
   -3.8299    0.2345   -1.9686 C   0  0  0  0  0  0  0  0  0  0  0  0
   -2.8666   -1.6942   -0.6445 C   0  0  0  0  0  0  0  0  0  0  0  0
   -1.3865    0.1646   -1.5330 N   0  0  0  0  0  0  0  0  0  0  0  0
   -1.0389   -0.4361   -2.8446 C   0  0  0  0  0  0  0  0  0  0  0  0
    0.4688   -0.6276   -2.8232 C   0  0  0  0  0  0  0  0  0  0  0  0
    0.6634   -1.0704   -1.3901 C   0  0  0  0  0  0  0  0  0  0  0  0
   -0.2195   -0.0668   -0.6416 C   0  0  1  0  0  0  0  0  0  0  0  0
    0.5328    1.2598   -0.4451 C   0  0  0  0  0  0  0  0  0  0  0  0
    0.3171    2.1410   -1.2691 O   0  0  0  0  0  0  0  0  0  0  0  0
    1.4426    1.4947    0.5728 N   0  0  0  0  0  0  0  0  0  0  0  0
    2.1769    2.7598    0.6054 C   0  0  0  0  0  0  0  0  0  0  0  0
    1.6361    0.5679    1.6993 C   0  0  0  0  0  0  0  0  0  0  0  0
    2.9635   -0.1510    1.6915 C   0  0  0  0  0  0  0  0  0  0  0  0
    4.1728    0.5124    1.9612 C   0  0  0  0  0  0  0  0  0  0  0  0
    5.3796   -0.1947    1.9688 C   0  0  0  0  0  0  0  0  0  0  0  0
    5.3898   -1.5687    1.7141 C   0  0  0  0  0  0  0  0  0  0  0  0
    4.1939   -2.2405    1.4598 C   0  0  0  0  0  0  0  0  0  0  0  0
    2.9889   -1.5381    1.4537 C   0  0  0  0  0  0  0  0  0  0  0  0
   -5.3241    0.8584    2.7475 H   0  0  0  0  0  0  0  0  0  0  0  0
   -4.3414    2.2494    2.1417 H   0  0  0  0  0  0  0  0  0  0  0  0
   -3.5454    0.8904    3.0394 H   0  0  0  0  0  0  0  0  0  0  0  0
   -4.8513   -0.2047    0.7515 H   0  0  0  0  0  0  0  0  0  0  0  0
   -4.8461    0.0269   -1.5730 H   0  0  0  0  0  0  0  0  0  0  0  0
   -3.7267   -0.3232   -2.9218 H   0  0  0  0  0  0  0  0  0  0  0  0
   -3.7550    1.3220   -2.1884 H   0  0  0  0  0  0  0  0  0  0  0  0
   -3.8648   -1.9353   -0.2274 H   0  0  0  0  0  0  0  0  0  0  0  0
   -2.1134   -2.0298    0.0957 H   0  0  0  0  0  0  0  0  0  0  0  0
   -2.7711   -2.3290   -1.5443 H   0  0  0  0  0  0  0  0  0  0  0  0
   -1.3748    0.1876   -3.6994 H   0  0  0  0  0  0  0  0  0  0  0  0
   -1.4846   -1.4420   -2.9548 H   0  0  0  0  0  0  0  0  0  0  0  0
    0.9712    0.3520   -2.9765 H   0  0  0  0  0  0  0  0  0  0  0  0
    0.8444   -1.3393   -3.5900 H   0  0  0  0  0  0  0  0  0  0  0  0
    1.7199   -1.1147   -1.0533 H   0  0  0  0  0  0  0  0  0  0  0  0
    0.2176   -2.0866   -1.2863 H   0  0  0  0  0  0  0  0  0  0  0  0
   -0.5481   -0.4753    0.3246 H   0  0  0  0  0  0  0  0  0  0  0  0
    1.9193    3.4426   -0.2300 H   0  0  0  0  0  0  0  0  0  0  0  0
    3.2627    2.5823    0.5137 H   0  0  0  0  0  0  0  0  0  0  0  0
    1.9560    3.3002    1.5500 H   0  0  0  0  0  0  0  0  0  0  0  0
    0.8544   -0.1989    1.7362 H   0  0  0  0  0  0  0  0  0  0  0  0
    1.4999    1.1094    2.6609 H   0  0  0  0  0  0  0  0  0  0  0  0
    4.1933    1.5683    2.1890 H   0  0  0  0  0  0  0  0  0  0  0  0
    6.3064    0.3209    2.1786 H   0  0  0  0  0  0  0  0  0  0  0  0
    6.3237   -2.1143    1.7222 H   0  0  0  0  0  0  0  0  0  0  0  0
    4.1979   -3.3058    1.2713 H   0  0  0  0  0  0  0  0  0  0  0  0
    2.0701   -2.0819    1.2596 H   0  0  0  0  0  0  0  0  0  0  0  0
  1  2  1  0  0  0  0
  1 24  1  0  0  0  0
  1 25  1  0  0  0  0
  1 26  1  0  0  0  0
  2  3  1  0  0  0  0
  2 27  1  0  0  0  0
  3  4  2  0  0  0  0
  3  5  1  0  0  0  0
  5  6  1  0  0  0  0
  5  7  1  0  0  0  0
  5  8  1  0  0  0  0
  6 28  1  0  0  0  0
  6 29  1  0  0  0  0
  6 30  1  0  0  0  0
  7 31  1  0  0  0  0
  7 32  1  0  0  0  0
  7 33  1  0  0  0  0
  8  9  1  0  0  0  0
  9 10  1  0  0  0  0
  9 34  1  0  0  0  0
  9 35  1  0  0  0  0
 10 11  1  0  0  0  0
 10 36  1  0  0  0  0
 10 37  1  0  0  0  0
 11 12  1  0  0  0  0
 11 38  1  0  0  0  0
 11 39  1  0  0  0  0
 12 13  1  0  0  0  0
 12  8  1  0  0  0  0
 12 40  1  1  0  0  0
 13 14  2  0  0  0  0
 13 15  1  0  0  0  0
 15 16  1  0  0  0  0
 15 17  1  0  0  0  0
 16 41  1  0  0  0  0
 16 42  1  0  0  0  0
 16 43  1  0  0  0  0
 17 18  1  0  0  0  0
 17 44  1  0  0  0  0
 17 45  1  0  0  0  0
 18 19  2  0  0  0  0
 19 20  1  0  0  0  0
 19 46  1  0  0  0  0
 20 21  2  0  0  0  0
 20 47  1  0  0  0  0
 21 22  1  0  0  0  0
 21 48  1  0  0  0  0
 22 23  2  0  0  0  0
 22 49  1  0  0  0  0
 23 18  1  0  0  0  0
 23 50  1  0  0  0  0
M  END
>  <IDENTIFIER>
CNP0014415.1

>  <Energy>
414.675

$$$$
