
 OpenBabel09062522283D

 67 67  0  0  0  0  0  0  0  0999 V2000
    5.9159    2.4666   -2.2447 C   0  0  0  0  0  0  0  0  0  0  0  0
    5.6453    1.2633   -1.7226 C   0  0  0  0  0  0  0  0  0  0  0  0
    5.7664    0.9520   -0.2353 C   0  0  2  0  0  0  0  0  0  0  0  0
    7.2177    1.1761    0.2407 C   0  0  0  0  0  0  0  0  0  0  0  0
    5.4302   -0.3949   -0.0038 O   0  0  0  0  0  0  0  0  0  0  0  0
    4.8158    1.8629    0.5972 C   0  0  0  0  0  0  0  0  0  0  0  0
    3.3205    1.8419    0.2019 C   0  0  0  0  0  0  0  0  0  0  0  0
    2.6590    0.4955    0.4201 C   0  0  0  0  0  0  0  0  0  0  0  0
    1.6200    0.2049    1.2483 C   0  0  0  0  0  0  0  0  0  0  0  0
    0.9365    1.2124    2.1524 C   0  0  0  0  0  0  0  0  0  0  0  0
    1.1206   -1.2327    1.3143 C   0  0  0  0  0  0  0  0  0  0  0  0
   -0.3702   -1.4009    0.9617 C   0  0  0  0  0  0  0  0  0  0  0  0
   -0.8798   -0.8996   -0.4224 C   0  0  2  0  0  0  0  0  0  0  0  0
   -2.2979   -1.0514   -0.4013 O   0  0  0  0  0  0  0  0  0  0  0  0
   -3.0213    0.1571   -0.2025 C   0  0  2  0  0  0  0  0  0  0  0  0
   -3.4247    0.1908    1.1754 O   0  0  0  0  0  0  0  0  0  0  0  0
   -4.7013    0.7732    1.3609 C   0  0  2  0  0  0  0  0  0  0  0  0
   -4.9659    1.0091    2.8523 C   0  0  0  0  0  0  0  0  0  0  0  0
   -4.9371   -0.2007    3.5645 O   0  0  0  0  0  0  0  0  0  0  0  0
   -5.8180   -0.0985    0.7049 C   0  0  1  0  0  0  0  0  0  0  0  0
   -6.9924    0.6639    0.5651 O   0  0  0  0  0  0  0  0  0  0  0  0
   -5.3478   -0.6922   -0.6621 C   0  0  2  0  0  0  0  0  0  0  0  0
   -4.9206   -2.0318   -0.5321 O   0  0  0  0  0  0  0  0  0  0  0  0
   -4.2048    0.1608   -1.2331 C   0  0  1  0  0  0  0  0  0  0  0  0
   -4.6734    1.4657   -1.4641 O   0  0  0  0  0  0  0  0  0  0  0  0
   -0.3747   -1.6222   -1.7254 C   0  0  0  0  0  0  0  0  0  0  0  0
   -0.5728   -3.1550   -1.6399 C   0  0  0  0  0  0  0  0  0  0  0  0
    1.0997   -1.3436   -2.0591 C   0  0  0  0  0  0  0  0  0  0  0  0
   -1.1054   -1.1035   -2.8168 O   0  0  0  0  0  0  0  0  0  0  0  0
    5.8105    2.6296   -3.3122 H   0  0  0  0  0  0  0  0  0  0  0  0
    6.2413    3.2944   -1.6237 H   0  0  0  0  0  0  0  0  0  0  0  0
    5.3224    0.4751   -2.3973 H   0  0  0  0  0  0  0  0  0  0  0  0
    7.9185    0.5337   -0.3351 H   0  0  0  0  0  0  0  0  0  0  0  0
    7.3133    0.9163    1.3169 H   0  0  0  0  0  0  0  0  0  0  0  0
    7.5287    2.2341    0.1098 H   0  0  0  0  0  0  0  0  0  0  0  0
    6.0401   -0.9652   -0.5431 H   0  0  0  0  0  0  0  0  0  0  0  0
    5.1584    2.9150    0.4836 H   0  0  0  0  0  0  0  0  0  0  0  0
    4.9038    1.6066    1.6763 H   0  0  0  0  0  0  0  0  0  0  0  0
    3.2095    2.1202   -0.8669 H   0  0  0  0  0  0  0  0  0  0  0  0
    2.8354    2.6460    0.7760 H   0  0  0  0  0  0  0  0  0  0  0  0
    3.0671   -0.3122   -0.1704 H   0  0  0  0  0  0  0  0  0  0  0  0
    1.3454    2.2335    2.1250 H   0  0  0  0  0  0  0  0  0  0  0  0
    1.0170    0.8642    3.2034 H   0  0  0  0  0  0  0  0  0  0  0  0
   -0.1364    1.2945    1.8853 H   0  0  0  0  0  0  0  0  0  0  0  0
    1.2615   -1.5888    2.3577 H   0  0  0  0  0  0  0  0  0  0  0  0
    1.7280   -1.9186    0.7027 H   0  0  0  0  0  0  0  0  0  0  0  0
   -0.9404   -0.8443    1.7352 H   0  0  0  0  0  0  0  0  0  0  0  0
   -0.6482   -2.4679    1.0933 H   0  0  0  0  0  0  0  0  0  0  0  0
   -0.5668    0.1631   -0.5267 H   0  0  0  0  0  0  0  0  0  0  0  0
   -2.4140    1.0596   -0.4350 H   0  0  0  0  0  0  0  0  0  0  0  0
   -4.6834    1.7875    0.9027 H   0  0  0  0  0  0  0  0  0  0  0  0
   -5.9390    1.5370    2.9929 H   0  0  0  0  0  0  0  0  0  0  0  0
   -4.1809    1.6762    3.2672 H   0  0  0  0  0  0  0  0  0  0  0  0
   -5.8795   -0.4759    3.7121 H   0  0  0  0  0  0  0  0  0  0  0  0
   -6.0858   -0.9658    1.3460 H   0  0  0  0  0  0  0  0  0  0  0  0
   -6.8167    1.3781   -0.1008 H   0  0  0  0  0  0  0  0  0  0  0  0
   -6.2152   -0.7202   -1.3581 H   0  0  0  0  0  0  0  0  0  0  0  0
   -4.4425   -2.1432    0.3302 H   0  0  0  0  0  0  0  0  0  0  0  0
   -3.8725   -0.2565   -2.2111 H   0  0  0  0  0  0  0  0  0  0  0  0
   -4.0011    1.9159   -2.0404 H   0  0  0  0  0  0  0  0  0  0  0  0
    0.0518   -3.5905   -0.8318 H   0  0  0  0  0  0  0  0  0  0  0  0
   -0.2778   -3.6362   -2.5971 H   0  0  0  0  0  0  0  0  0  0  0  0
   -1.6355   -3.4081   -1.4381 H   0  0  0  0  0  0  0  0  0  0  0  0
    1.8006   -1.8175   -1.3611 H   0  0  0  0  0  0  0  0  0  0  0  0
    1.2873   -0.2495   -2.1052 H   0  0  0  0  0  0  0  0  0  0  0  0
    1.3427   -1.7687   -3.0570 H   0  0  0  0  0  0  0  0  0  0  0  0
   -1.9907   -1.5506   -2.8568 H   0  0  0  0  0  0  0  0  0  0  0  0
  1  2  2  0  0  0  0
  1 30  1  0  0  0  0
  1 31  1  0  0  0  0
  2 32  1  0  0  0  0
  3  2  1  6  0  0  0
  3  4  1  0  0  0  0
  3  5  1  0  0  0  0
  3  6  1  0  0  0  0
  4 33  1  0  0  0  0
  4 34  1  0  0  0  0
  4 35  1  0  0  0  0
  5 36  1  0  0  0  0
  6  7  1  0  0  0  0
  6 37  1  0  0  0  0
  6 38  1  0  0  0  0
  7  8  1  0  0  0  0
  7 39  1  0  0  0  0
  7 40  1  0  0  0  0
  8  9  2  0  0  0  0
  8 41  1  0  0  0  0
  9 10  1  0  0  0  0
  9 11  1  0  0  0  0
 10 42  1  0  0  0  0
 10 43  1  0  0  0  0
 10 44  1  0  0  0  0
 11 12  1  0  0  0  0
 11 45  1  0  0  0  0
 11 46  1  0  0  0  0
 12 47  1  0  0  0  0
 12 48  1  0  0  0  0
 13 12  1  0  0  0  0
 13 14  1  0  0  0  0
 13 26  1  0  0  0  0
 13 49  1  6  0  0  0
 15 14  1  0  0  0  0
 15 16  1  0  0  0  0
 15 50  1  6  0  0  0
 16 17  1  0  0  0  0
 17 18  1  0  0  0  0
 17 20  1  0  0  0  0
 17 51  1  6  0  0  0
 18 19  1  0  0  0  0
 18 52  1  0  0  0  0
 18 53  1  0  0  0  0
 19 54  1  0  0  0  0
 20 21  1  0  0  0  0
 20 22  1  0  0  0  0
 20 55  1  1  0  0  0
 21 56  1  0  0  0  0
 22 23  1  0  0  0  0
 22 24  1  0  0  0  0
 22 57  1  6  0  0  0
 23 58  1  0  0  0  0
 24 25  1  0  0  0  0
 24 15  1  0  0  0  0
 24 59  1  6  0  0  0
 25 60  1  0  0  0  0
 26 27  1  0  0  0  0
 26 28  1  0  0  0  0
 26 29  1  0  0  0  0
 27 61  1  0  0  0  0
 27 62  1  0  0  0  0
 27 63  1  0  0  0  0
 28 64  1  0  0  0  0
 28 65  1  0  0  0  0
 28 66  1  0  0  0  0
 29 67  1  0  0  0  0
M  END
>  <IDENTIFIER>
CNP0287662.12

>  <Energy>
590.252

$$$$
