
 OpenBabel09092513553D

 45 48  0  0  0  0  0  0  0  0999 V2000
   -4.9004   -0.6611    0.2704 C   0  0  0  0  0  0  0  0  0  0  0  0
   -3.4508   -1.0360    0.4621 C   0  0  0  0  0  0  0  0  0  0  0  0
   -3.1450   -2.2512    0.9658 C   0  0  0  0  0  0  0  0  0  0  0  0
   -1.7480   -2.6542    1.1801 C   0  0  0  0  0  0  0  0  0  0  0  0
   -1.4680   -3.8229    1.3961 O   0  0  0  0  0  0  0  0  0  0  0  0
   -0.6833   -1.6064    1.1622 C   0  0  0  0  0  0  0  0  0  0  0  0
   -0.9169   -0.6556   -0.0299 C   0  0  1  0  0  0  0  0  0  0  0  0
   -2.3722   -0.0432    0.0104 C   0  0  2  0  0  0  0  0  0  0  0  0
   -2.3649    1.2507    0.8247 C   0  0  0  0  0  0  0  0  0  0  0  0
   -1.4807    2.3172    0.1304 C   0  0  0  0  0  0  0  0  0  0  0  0
   -0.3622    1.7302   -0.7864 C   0  0  1  0  0  0  0  0  0  0  0  0
    0.6316    2.8424   -1.1553 C   0  0  0  0  0  0  0  0  0  0  0  0
    0.2418    0.4326   -0.1639 C   0  0  2  0  0  0  0  0  0  0  0  0
    1.4163   -0.1838   -0.9599 C   0  0  0  0  0  0  0  0  0  0  0  0
    2.6861    0.4138   -0.3359 C   0  0  2  0  0  0  0  0  0  0  0  0
    3.8650   -0.5183   -0.4193 C   0  0  0  0  0  0  0  0  0  0  0  0
    3.9605   -1.7860    0.1204 C   0  0  0  0  0  0  0  0  0  0  0  0
    5.1414   -2.2883   -0.1611 O   0  0  0  0  0  0  0  0  0  0  0  0
    5.8242   -1.4074   -0.8602 C   0  0  0  0  0  0  0  0  0  0  0  0
    5.0648   -0.2723   -1.0493 C   0  0  0  0  0  0  0  0  0  0  0  0
    2.3381    0.6750    0.9684 O   0  0  0  0  0  0  0  0  0  0  0  0
    0.9999    0.7592    1.1081 C   0  0  0  0  0  0  0  0  0  0  0  0
    0.4919    1.1754    2.1363 O   0  0  0  0  0  0  0  0  0  0  0  0
   -5.5889   -1.4704    0.5955 H   0  0  0  0  0  0  0  0  0  0  0  0
   -5.0878   -0.4634   -0.8061 H   0  0  0  0  0  0  0  0  0  0  0  0
   -5.1472    0.2480    0.8533 H   0  0  0  0  0  0  0  0  0  0  0  0
   -3.9303   -2.9625    1.2068 H   0  0  0  0  0  0  0  0  0  0  0  0
    0.3212   -2.0814    1.1528 H   0  0  0  0  0  0  0  0  0  0  0  0
   -0.7795   -1.0264    2.1028 H   0  0  0  0  0  0  0  0  0  0  0  0
   -0.9208   -1.2845   -0.9512 H   0  0  0  0  0  0  0  0  0  0  0  0
   -2.6455    0.2385   -1.0313 H   0  0  0  0  0  0  0  0  0  0  0  0
   -1.9678    0.9987    1.8290 H   0  0  0  0  0  0  0  0  0  0  0  0
   -3.3710    1.6916    0.9826 H   0  0  0  0  0  0  0  0  0  0  0  0
   -1.0787    2.9768    0.9301 H   0  0  0  0  0  0  0  0  0  0  0  0
   -2.1109    2.9532   -0.5300 H   0  0  0  0  0  0  0  0  0  0  0  0
   -0.8352    1.4107   -1.7423 H   0  0  0  0  0  0  0  0  0  0  0  0
    1.1742    3.2043   -0.2564 H   0  0  0  0  0  0  0  0  0  0  0  0
    0.0875    3.7000   -1.6058 H   0  0  0  0  0  0  0  0  0  0  0  0
    1.3546    2.4849   -1.9148 H   0  0  0  0  0  0  0  0  0  0  0  0
    1.3399   -0.1611   -2.0679 H   0  0  0  0  0  0  0  0  0  0  0  0
    1.4439   -1.2597   -0.6816 H   0  0  0  0  0  0  0  0  0  0  0  0
    2.9452    1.3786   -0.8167 H   0  0  0  0  0  0  0  0  0  0  0  0
    3.1984   -2.3008    0.6903 H   0  0  0  0  0  0  0  0  0  0  0  0
    6.8308   -1.5663   -1.2263 H   0  0  0  0  0  0  0  0  0  0  0  0
    5.3528    0.6226   -1.5846 H   0  0  0  0  0  0  0  0  0  0  0  0
  1  2  1  0  0  0  0
  1 24  1  0  0  0  0
  1 25  1  0  0  0  0
  1 26  1  0  0  0  0
  2  3  2  0  0  0  0
  3  4  1  0  0  0  0
  3 27  1  0  0  0  0
  4  5  2  0  0  0  0
  4  6  1  0  0  0  0
  6 28  1  0  0  0  0
  6 29  1  0  0  0  0
  7  6  1  0  0  0  0
  7  8  1  0  0  0  0
  7 30  1  6  0  0  0
  8  9  1  0  0  0  0
  8  2  1  0  0  0  0
  8 31  1  6  0  0  0
  9 10  1  0  0  0  0
  9 32  1  0  0  0  0
  9 33  1  0  0  0  0
 10 11  1  0  0  0  0
 10 34  1  0  0  0  0
 10 35  1  0  0  0  0
 11 12  1  0  0  0  0
 11 13  1  0  0  0  0
 11 36  1  6  0  0  0
 12 37  1  0  0  0  0
 12 38  1  0  0  0  0
 12 39  1  0  0  0  0
 13 14  1  0  0  0  0
 13 22  1  1  0  0  0
 13  7  1  0  0  0  0
 14 15  1  0  0  0  0
 14 40  1  0  0  0  0
 14 41  1  0  0  0  0
 15 16  1  0  0  0  0
 15 21  1  0  0  0  0
 15 42  1  6  0  0  0
 16 17  2  0  0  0  0
 17 18  1  0  0  0  0
 17 43  1  0  0  0  0
 18 19  1  0  0  0  0
 19 20  2  0  0  0  0
 19 44  1  0  0  0  0
 20 16  1  0  0  0  0
 20 45  1  0  0  0  0
 21 22  1  0  0  0  0
 22 23  2  0  0  0  0
M  END
>  <IDENTIFIER>
CNP0160734.2

>  <Energy>
619.778

$$$$
