
 OpenBabel09092500572D

123122  0  0  0  0  0  0  0  0999 V2000
   13.1913    4.1519    0.0000 C   0  0  0  0  0  0  0  0  0  0  0  0
   12.4413    5.4510    0.0000 C   0  0  0  0  0  0  0  0  0  0  0  0
   11.6913    6.7500    0.0000 C   0  0  3  0  0  0  0  0  0  0  0  0
   10.9413    8.0490    0.0000 C   0  0  0  0  0  0  0  0  0  0  0  0
   10.3923    6.0000    0.0000 C   0  0  0  0  0  0  0  0  0  0  0  0
    9.0933    5.2500    0.0000 C   0  0  0  0  0  0  0  0  0  0  0  0
    7.7942    4.5000    0.0000 C   0  0  0  0  0  0  0  0  0  0  0  0
    6.4952    3.7500    0.0000 C   0  0  0  0  0  0  0  0  0  0  0  0
    5.1962    3.0000    0.0000 C   0  0  0  0  0  0  0  0  0  0  0  0
    3.5514    3.0689   -0.2138 C   0  0  0  0  0  0  0  0  0  0  0  0
    2.6955    1.6283   -0.1377 C   0  0  0  0  0  0  0  0  0  0  0  0
    1.0315    1.4889   -0.1342 C   0  0  0  0  0  0  0  0  0  0  0  0
    0.2946    0.0304   -0.2284 C   0  0  0  0  0  0  0  0  0  0  0  0
    1.0357   -0.9236   -0.4116 O   0  0  0  0  0  0  0  0  0  0  0  0
   -1.1198   -0.2420   -0.1195 O   0  0  0  0  0  0  0  0  0  0  0  0
   -1.8132   -1.4699   -0.5285 C   0  0  0  0  0  0  0  0  0  0  0  0
   -3.4096   -1.8155   -0.1505 C   0  0  1  0  0  0  0  0  0  0  0  0
   -4.0114   -3.1475   -0.9246 C   0  0  0  0  0  0  0  0  0  0  0  0
   -5.3011   -3.8532   -0.8744 O   0  0  0  0  0  0  0  0  0  0  0  0
   -6.5778   -4.0514   -0.2802 C   0  0  0  0  0  0  0  0  0  0  0  0
   -6.8710   -3.3999    0.7059 O   0  0  0  0  0  0  0  0  0  0  0  0
   -7.6753   -5.1440   -0.8115 C   0  0  0  0  0  0  0  0  0  0  0  0
   -9.0933   -5.2500    0.0000 C   0  0  0  0  0  0  0  0  0  0  0  0
  -10.3923   -6.0000    0.0000 C   0  0  0  0  0  0  0  0  0  0  0  0
  -11.6913   -6.7500    0.0000 C   0  0  0  0  0  0  0  0  0  0  0  0
  -13.3387   -7.0703   -0.0741 C   0  0  0  0  0  0  0  0  0  0  0  0
  -13.9472   -8.6500    0.0942 C   0  0  0  0  0  0  0  0  0  0  0  0
  -15.5885   -9.0000    0.0000 C   0  0  0  0  0  0  0  0  0  0  0  0
  -16.8875   -9.7500    0.0000 C   0  0  0  0  0  2  0  0  0  0  0  0
  -18.1865  -10.5000    0.0000 C   0  0  0  0  0  0  0  0  0  0  0  0
  -19.4856  -11.2500    0.0000 C   0  0  0  0  0  0  0  0  0  0  0  0
  -20.7846  -12.0000    0.0000 C   0  0  0  0  0  0  0  0  0  0  0  0
  -18.7356  -12.5490    0.0000 C   0  0  0  0  0  0  0  0  0  0  0  0
   -4.1789   -0.6990   -0.4362 O   0  0  0  0  0  0  0  0  0  0  0  0
   -5.2092   -0.2592    0.3397 C   0  0  0  0  0  0  0  0  0  0  0  0
   -5.8853   -1.0369    0.9874 O   0  0  0  0  0  0  0  0  0  0  0  0
   -5.4035    1.2069    0.5372 C   0  0  0  0  0  0  0  0  0  0  0  0
   -6.7487    1.8056    0.0490 C   0  0  0  0  0  0  0  0  0  0  0  0
   -6.7165    3.2851    0.4585 C   0  0  0  0  0  0  0  0  0  0  0  0
   -7.6236    4.3176   -0.2207 C   0  0  0  0  0  0  0  0  0  0  0  0
   -9.1480    4.5505    0.1309 C   0  0  0  0  0  0  0  0  0  0  0  0
   -9.3481    6.0933    0.0000 C   0  0  0  0  0  0  0  0  0  0  0  0
  -10.0981    7.3923    0.0000 C   0  0  0  0  0  0  0  0  0  0  0  0
  -10.8481    8.6913    0.0000 C   0  0  0  0  0  0  0  0  0  0  0  0
  -11.5981    9.9904    0.0000 C   0  0  0  0  0  0  0  0  0  0  0  0
  -11.4301   10.8827   -1.2580 C   0  0  0  0  0  0  0  0  0  0  0  0
  -12.8971    9.2404    0.0000 C   0  0  0  0  0  0  0  0  0  0  0  0
   12.3125    3.4969   -0.2193 H   0  0  0  0  0  0  0  0  0  0  0  0
   13.3377    4.1124    1.1050 H   0  0  0  0  0  0  0  0  0  0  0  0
   13.7263    3.2252    0.0000 H   0  0  0  0  0  0  0  0  0  0  0  0
   13.4319    5.9806    0.0783 H   0  0  0  0  0  0  0  0  0  0  0  0
   12.3344    5.3588   -1.1215 H   0  0  0  0  0  0  0  0  0  0  0  0
   11.9557    6.8799    1.0936 H   0  0  0  0  0  0  0  0  0  0  0  0
   11.8114    8.7130    0.2316 H   0  0  0  0  0  0  0  0  0  0  0  0
   10.8599    8.1871   -1.1076 H   0  0  0  0  0  0  0  0  0  0  0  0
   10.4063    8.9756    0.0000 H   0  0  0  0  0  0  0  0  0  0  0  0
   10.1029    6.3168   -1.0635 H   0  0  0  0  0  0  0  0  0  0  0  0
    9.9408    6.3858    0.9918 H   0  0  0  0  0  0  0  0  0  0  0  0
    9.5736    4.4772    0.6889 H   0  0  0  0  0  0  0  0  0  0  0  0
    9.3041    4.6169   -0.9269 H   0  0  0  0  0  0  0  0  0  0  0  0
    7.4080    5.4100   -0.5635 H   0  0  0  0  0  0  0  0  0  0  0  0
    7.6716    4.7042    1.1067 H   0  0  0  0  0  0  0  0  0  0  0  0
    5.8411    4.5959    0.3782 H   0  0  0  0  0  0  0  0  0  0  0  0
    6.4975    3.7261   -1.1242 H   0  0  0  0  0  0  0  0  0  0  0  0
    5.2202    2.5854    1.0345 H   0  0  0  0  0  0  0  0  0  0  0  0
    5.4233    2.0906   -0.6133 H   0  0  0  0  0  0  0  0  0  0  0  0
    3.3414    3.5212   -1.2051 H   0  0  0  0  0  0  0  0  0  0  0  0
    3.1523    3.7546    0.5631 H   0  0  0  0  0  0  0  0  0  0  0  0
    3.0607    1.0268   -0.9963 H   0  0  0  0  0  0  0  0  0  0  0  0
    3.0308    1.1109    0.7855 H   0  0  0  0  0  0  0  0  0  0  0  0
    0.6838    1.9775    0.8000 H   0  0  0  0  0  0  0  0  0  0  0  0
    0.6451    2.0845   -0.9866 H   0  0  0  0  0  0  0  0  0  0  0  0
   -1.7453   -1.4993   -1.6360 H   0  0  0  0  0  0  0  0  0  0  0  0
   -1.2257   -2.3368   -0.1573 H   0  0  0  0  0  0  0  0  0  0  0  0
   -3.4434   -2.0117    0.9445 H   0  0  0  0  0  0  0  0  0  0  0  0
   -3.8761   -2.8948   -1.9968 H   0  0  0  0  0  0  0  0  0  0  0  0
   -3.2564   -3.9341   -0.7156 H   0  0  0  0  0  0  0  0  0  0  0  0
   -7.1959   -6.1450   -0.7865 H   0  0  0  0  0  0  0  0  0  0  0  0
   -7.9073   -4.9003   -1.8686 H   0  0  0  0  0  0  0  0  0  0  0  0
   -9.3744   -4.1619   -0.0151 H   0  0  0  0  0  0  0  0  0  0  0  0
   -8.7076   -5.4540    1.0270 H   0  0  0  0  0  0  0  0  0  0  0  0
  -10.6339   -5.5712   -1.0047 H   0  0  0  0  0  0  0  0  0  0  0  0
  -10.8205   -5.3547    0.8149 H   0  0  0  0  0  0  0  0  0  0  0  0
  -11.4183   -7.4979   -0.7837 H   0  0  0  0  0  0  0  0  0  0  0  0
  -11.5328   -7.3039    0.9581 H   0  0  0  0  0  0  0  0  0  0  0  0
  -13.8247   -6.4540    0.7109 H   0  0  0  0  0  0  0  0  0  0  0  0
  -13.6934   -6.6918   -1.0560 H   0  0  0  0  0  0  0  0  0  0  0  0
  -13.6005   -9.0167    1.0833 H   0  0  0  0  0  0  0  0  0  0  0  0
  -13.4462   -9.2697   -0.6786 H   0  0  0  0  0  0  0  0  0  0  0  0
  -15.7518   -8.5187   -0.9868 H   0  0  0  0  0  0  0  0  0  0  0  0
  -15.9076   -8.2530    0.7565 H   0  0  0  0  0  0  0  0  0  0  0  0
  -17.8895  -10.7290   -1.0637 H   0  0  0  0  0  0  0  0  0  0  0  0
  -17.6897  -10.8408    0.9726 H   0  0  0  0  0  0  0  0  0  0  0  0
  -19.6913  -10.7312    0.9795 H   0  0  0  0  0  0  0  0  0  0  0  0
  -21.4287  -11.1120   -0.1976 H   0  0  0  0  0  0  0  0  0  0  0  0
  -20.9120  -12.3127    1.0769 H   0  0  0  0  0  0  0  0  0  0  0  0
  -21.7112  -12.5350    0.0000 H   0  0  0  0  0  0  0  0  0  0  0  0
  -18.9374  -12.9489   -1.0340 H   0  0  0  0  0  0  0  0  0  0  0  0
  -18.9410  -13.0086    1.0066 H   0  0  0  0  0  0  0  0  0  0  0  0
  -18.2006  -13.4756    0.0000 H   0  0  0  0  0  0  0  0  0  0  0  0
   -4.5754    1.7235    0.0007 H   0  0  0  0  0  0  0  0  0  0  0  0
   -5.2785    1.4043    1.6244 H   0  0  0  0  0  0  0  0  0  0  0  0
   -6.7891    1.7038   -1.0558 H   0  0  0  0  0  0  0  0  0  0  0  0
   -7.6320    1.3049    0.5012 H   0  0  0  0  0  0  0  0  0  0  0  0
   -6.7811    3.3823    1.5640 H   0  0  0  0  0  0  0  0  0  0  0  0
   -5.6992    3.6400    0.1622 H   0  0  0  0  0  0  0  0  0  0  0  0
   -7.4890    4.3019   -1.3253 H   0  0  0  0  0  0  0  0  0  0  0  0
   -7.0828    5.2326    0.1184 H   0  0  0  0  0  0  0  0  0  0  0  0
   -9.3687    4.2741    1.1837 H   0  0  0  0  0  0  0  0  0  0  0  0
   -9.7899    3.9527   -0.5514 H   0  0  0  0  0  0  0  0  0  0  0  0
   -8.7648    6.2905   -0.9389 H   0  0  0  0  0  0  0  0  0  0  0  0
   -8.6886    6.4017    0.8480 H   0  0  0  0  0  0  0  0  0  0  0  0
  -10.5828    7.1640   -0.9879 H   0  0  0  0  0  0  0  0  0  0  0  0
  -10.8176    6.9008    0.7144 H   0  0  0  0  0  0  0  0  0  0  0  0
  -10.6000    8.8256    1.0918 H   0  0  0  0  0  0  0  0  0  0  0  0
   -9.9528    9.1495   -0.4850 H   0  0  0  0  0  0  0  0  0  0  0  0
  -11.4613   10.6365    0.9085 H   0  0  0  0  0  0  0  0  0  0  0  0
  -10.4144   11.3319   -1.2665 H   0  0  0  0  0  0  0  0  0  0  0  0
  -11.5617   10.3021   -2.1966 H   0  0  0  0  0  0  0  0  0  0  0  0
  -12.1726   11.7084   -1.2381 H   0  0  0  0  0  0  0  0  0  0  0  0
  -13.5478   10.1362    0.1096 H   0  0  0  0  0  0  0  0  0  0  0  0
  -12.9433    8.8941   -1.0674 H   0  0  0  0  0  0  0  0  0  0  0  0
  -13.8237    8.7054    0.0000 H   0  0  0  0  0  0  0  0  0  0  0  0
  1  2  1  0  0  0  0
  1 48  1  0  0  0  0
  1 49  1  0  0  0  0
  1 50  1  0  0  0  0
  2  3  1  0  0  0  0
  2 51  1  0  0  0  0
  2 52  1  0  0  0  0
  3  4  1  0  0  0  0
  3  5  1  0  0  0  0
  3 53  1  0  0  0  0
  4 54  1  0  0  0  0
  4 55  1  0  0  0  0
  4 56  1  0  0  0  0
  5  6  1  0  0  0  0
  5 57  1  0  0  0  0
  5 58  1  0  0  0  0
  6  7  1  0  0  0  0
  6 59  1  0  0  0  0
  6 60  1  0  0  0  0
  7  8  1  0  0  0  0
  7 61  1  0  0  0  0
  7 62  1  0  0  0  0
  8  9  1  0  0  0  0
  8 63  1  0  0  0  0
  8 64  1  0  0  0  0
  9 10  1  0  0  0  0
  9 65  1  0  0  0  0
  9 66  1  0  0  0  0
 10 11  1  0  0  0  0
 10 67  1  0  0  0  0
 10 68  1  0  0  0  0
 11 12  1  0  0  0  0
 11 69  1  0  0  0  0
 11 70  1  0  0  0  0
 12 13  1  0  0  0  0
 12 71  1  0  0  0  0
 12 72  1  0  0  0  0
 13 14  2  0  0  0  0
 13 15  1  0  0  0  0
 15 16  1  0  0  0  0
 16 73  1  0  0  0  0
 16 74  1  0  0  0  0
 17 16  1  0  0  0  0
 17 18  1  0  0  0  0
 17 34  1  0  0  0  0
 17 75  1  6  0  0  0
 18 19  1  0  0  0  0
 18 76  1  0  0  0  0
 18 77  1  0  0  0  0
 19 20  1  0  0  0  0
 20 21  2  0  0  0  0
 20 22  1  0  0  0  0
 22 23  1  0  0  0  0
 22 78  1  0  0  0  0
 22 79  1  0  0  0  0
 23 24  1  0  0  0  0
 23 80  1  0  0  0  0
 23 81  1  0  0  0  0
 24 25  1  0  0  0  0
 24 82  1  0  0  0  0
 24 83  1  0  0  0  0
 25 26  1  0  0  0  0
 25 84  1  0  0  0  0
 25 85  1  0  0  0  0
 26 27  1  0  0  0  0
 26 86  1  0  0  0  0
 26 87  1  0  0  0  0
 27 28  1  0  0  0  0
 27 88  1  0  0  0  0
 27 89  1  0  0  0  0
 28 29  1  0  0  0  0
 28 90  1  0  0  0  0
 28 91  1  0  0  0  0
 29 30  1  0  0  0  0
 30 31  1  0  0  0  0
 30 92  1  0  0  0  0
 30 93  1  0  0  0  0
 31 32  1  0  0  0  0
 31 33  1  0  0  0  0
 31 94  1  0  0  0  0
 32 95  1  0  0  0  0
 32 96  1  0  0  0  0
 32 97  1  0  0  0  0
 33 98  1  0  0  0  0
 33 99  1  0  0  0  0
 33100  1  0  0  0  0
 34 35  1  0  0  0  0
 35 36  2  0  0  0  0
 35 37  1  0  0  0  0
 37 38  1  0  0  0  0
 37101  1  0  0  0  0
 37102  1  0  0  0  0
 38 39  1  0  0  0  0
 38103  1  0  0  0  0
 38104  1  0  0  0  0
 39 40  1  0  0  0  0
 39105  1  0  0  0  0
 39106  1  0  0  0  0
 40 41  1  0  0  0  0
 40107  1  0  0  0  0
 40108  1  0  0  0  0
 41 42  1  0  0  0  0
 41109  1  0  0  0  0
 41110  1  0  0  0  0
 42 43  1  0  0  0  0
 42111  1  0  0  0  0
 42112  1  0  0  0  0
 43 44  1  0  0  0  0
 43113  1  0  0  0  0
 43114  1  0  0  0  0
 44 45  1  0  0  0  0
 44115  1  0  0  0  0
 44116  1  0  0  0  0
 45 46  1  0  0  0  0
 45 47  1  0  0  0  0
 45117  1  0  0  0  0
 46118  1  0  0  0  0
 46119  1  0  0  0  0
 46120  1  0  0  0  0
 47121  1  0  0  0  0
 47122  1  0  0  0  0
 47123  1  0  0  0  0
M  END
>  <IDENTIFIER>
CNP0505932.2

>  <Energy>
8899.29

$$$$
