
 OpenBabel09052521052D

169168  0  0  0  0  0  0  0  0999 V2000
   -3.7500   -6.4952    0.0000 C   0  0  0  0  0  0  0  0  0  0  0  0
   -3.0000   -5.1962    0.0000 C   0  0  0  0  0  0  0  0  0  0  0  0
   -3.2310   -3.6616   -0.0918 C   0  0  0  0  0  0  0  0  0  0  0  0
   -1.8211   -2.8701   -0.0203 C   0  0  0  0  0  0  0  0  0  0  0  0
   -2.0209   -1.3335   -0.0826 C   0  0  0  0  0  0  0  0  0  0  0  0
   -1.0479   -0.1137    0.0385 C   0  0  0  0  0  0  0  0  0  0  0  0
    0.2208    0.4650    0.1716 C   0  0  0  0  0  0  0  0  0  0  0  0
    1.7729    0.3674    0.2895 C   0  0  0  0  0  0  0  0  0  0  0  0
    2.6990   -0.8110    0.1060 C   0  0  0  0  0  0  0  0  0  0  0  0
    4.0702   -0.7255    0.2821 C   0  0  0  0  0  0  0  0  0  0  0  0
    4.9335    0.4956    0.7297 C   0  0  0  0  0  0  0  0  0  0  0  0
    6.2125    0.7611   -0.1459 C   0  0  0  0  0  2  0  0  0  0  0  0
    7.4636    1.4922    0.5097 C   0  0  0  0  0  0  0  0  0  0  0  0
    7.6707    2.9900    0.1096 C   0  0  0  0  0  0  0  0  0  0  0  0
    8.9855    3.7541    0.6249 C   0  0  0  0  0  0  0  0  0  0  0  0
    9.0000    5.1962    0.0000 C   0  0  0  0  0  0  0  0  0  0  0  0
    9.7500    6.4952    0.0000 C   0  0  0  0  0  0  0  0  0  0  0  0
   10.5000    7.7942    0.0000 C   0  0  0  0  0  0  0  0  0  0  0  0
   11.2500    9.0933    0.0000 C   0  0  0  0  0  0  0  0  0  0  0  0
   12.0000   10.3923    0.0000 C   0  0  0  0  0  0  0  0  0  0  0  0
   12.7500   11.6913    0.0000 C   0  0  0  0  0  0  0  0  0  0  0  0
   13.7344   12.7092   -0.8296 C   0  0  0  0  0  0  0  0  0  0  0  0
   14.1839   12.2974   -1.8868 O   0  0  0  0  0  0  0  0  0  0  0  0
   14.1740   14.0145   -0.3596 O   0  0  0  0  0  0  0  0  0  0  0  0
   15.4441   14.7180   -0.6144 C   0  0  0  0  0  0  0  0  0  0  0  0
   15.7690   16.3329   -0.2107 C   0  0  2  0  0  0  0  0  0  0  0  0
   15.1394   17.4208   -1.2019 C   0  0  0  0  0  0  0  0  0  0  0  0
   13.8563   17.9940   -0.9581 O   0  0  0  0  0  0  0  0  0  0  0  0
   13.6345   19.3846   -0.9739 C   0  0  0  0  0  0  0  0  0  0  0  0
   14.6007   20.1344   -0.9188 O   0  0  0  0  0  0  0  0  0  0  0  0
   12.2643   20.0903   -1.2119 C   0  0  0  0  0  0  0  0  0  0  0  0
   11.3038   20.0885    0.0000 C   0  0  0  0  0  0  0  0  0  0  0  0
   10.0048   20.8385    0.0000 C   0  0  0  0  0  0  0  0  0  0  0  0
    8.7058   21.5885    0.0000 C   0  0  0  0  0  0  0  0  0  0  0  0
    7.4067   22.3385    0.0000 C   0  0  0  0  0  0  0  0  0  0  0  0
    6.1077   23.0885    0.0000 C   0  0  0  0  0  0  0  0  0  0  0  0
    4.8087   23.8385    0.0000 C   0  0  0  0  0  0  0  0  0  0  0  0
    3.1750   24.0743    0.4295 C   0  0  0  0  0  0  0  0  0  0  0  0
    2.2841   25.4436   -0.1091 C   0  0  0  0  0  0  0  0  0  0  0  0
    0.5982   25.7579   -0.0128 C   0  0  0  0  0  0  0  0  0  0  0  0
   -0.0958   27.2374   -0.5050 C   0  0  0  0  0  0  0  0  0  0  0  0
   -1.6445   27.9075   -0.9167 C   0  0  0  0  0  0  0  0  0  0  0  0
   -2.9856   28.3385    0.0000 C   0  0  0  0  0  0  0  0  0  0  0  0
   -4.2846   29.0885    0.0000 C   0  0  0  0  0  0  0  0  0  0  0  0
   -5.5836   29.8385    0.0000 C   0  0  0  0  0  0  0  0  0  0  0  0
   -6.8827   30.5885    0.0000 C   0  0  0  0  0  0  0  0  0  0  0  0
   -8.1817   31.3385    0.0000 C   0  0  0  0  0  0  0  0  0  0  0  0
   17.2051   16.6368    0.0389 O   0  0  0  0  0  0  0  0  0  0  0  0
   18.2111   17.5069   -0.5214 C   0  0  0  0  0  0  0  0  0  0  0  0
   18.0985   17.8273   -1.6949 O   0  0  0  0  0  0  0  0  0  0  0  0
   19.6300   17.9517    0.1864 C   0  0  0  0  0  0  0  0  0  0  0  0
   20.2500   19.4856    0.0000 C   0  0  0  0  0  0  0  0  0  0  0  0
   21.0000   20.7846    0.0000 C   0  0  0  0  0  2  0  0  0  0  0  0
   21.7500   22.0836    0.0000 C   0  0  0  0  0  0  0  0  0  0  0  0
   21.6663   23.6808   -0.0010 C   0  0  0  0  0  0  0  0  0  0  0  0
   23.1271   24.4335   -0.0005 C   0  0  0  0  0  0  0  0  0  0  0  0
   23.0835   26.0319   -0.0006 C   0  0  0  0  0  0  0  0  0  0  0  0
   24.2798   27.1735   -0.0002 C   0  0  0  0  0  0  0  0  0  0  0  0
   24.0000   28.5788    0.0000 C   0  0  0  0  0  0  0  0  0  0  0  0
   22.5000   28.5788    0.0000 C   0  0  0  0  0  2  0  0  0  0  0  0
   21.0000   28.5788    0.0000 C   0  0  0  0  0  0  0  0  0  0  0  0
   20.7689   29.9631   -0.0003 C   0  0  0  0  0  0  0  0  0  0  0  0
   22.0291   31.0291   -0.0010 C   0  0  0  0  0  0  0  0  0  0  0  0
   21.7500   32.4760    0.0000 C   0  0  0  0  0  0  0  0  0  0  0  0
   22.5000   33.7750    0.0000 C   0  0  0  0  0  2  0  0  0  0  0  0
   23.2500   35.0740    0.0000 C   0  0  0  0  0  0  0  0  0  0  0  0
   24.0000   36.3731    0.0000 C   0  0  0  0  0  0  0  0  0  0  0  0
   -4.3229   -6.2902    0.9312 H   0  0  0  0  0  0  0  0  0  0  0  0
   -2.8826   -7.1745    0.1823 H   0  0  0  0  0  0  0  0  0  0  0  0
   -4.2850   -7.4218    0.0000 H   0  0  0  0  0  0  0  0  0  0  0  0
   -2.2976   -5.3541   -0.8512 H   0  0  0  0  0  0  0  0  0  0  0  0
   -2.3827   -5.2574    0.9318 H   0  0  0  0  0  0  0  0  0  0  0  0
   -3.8778   -3.3448    0.7540 H   0  0  0  0  0  0  0  0  0  0  0  0
   -3.7478   -3.4243   -1.0462 H   0  0  0  0  0  0  0  0  0  0  0  0
   -1.3120   -3.1164    0.9364 H   0  0  0  0  0  0  0  0  0  0  0  0
   -1.1641   -3.1826   -0.8602 H   0  0  0  0  0  0  0  0  0  0  0  0
   -2.5642   -1.1602   -1.0374 H   0  0  0  0  0  0  0  0  0  0  0  0
   -2.7463   -1.1482    0.7405 H   0  0  0  0  0  0  0  0  0  0  0  0
   -1.7494    0.7284    0.0109 H   0  0  0  0  0  0  0  0  0  0  0  0
    0.0614    1.5464    0.2335 H   0  0  0  0  0  0  0  0  0  0  0  0
    2.0031    0.7793    1.2956 H   0  0  0  0  0  0  0  0  0  0  0  0
    2.1529    1.0978   -0.4597 H   0  0  0  0  0  0  0  0  0  0  0  0
    2.2646   -1.7664   -0.1715 H   0  0  0  0  0  0  0  0  0  0  0  0
    4.6255   -1.6499    0.1458 H   0  0  0  0  0  0  0  0  0  0  0  0
    4.3358    1.4247    0.8249 H   0  0  0  0  0  0  0  0  0  0  0  0
    5.3082    0.2305    1.7396 H   0  0  0  0  0  0  0  0  0  0  0  0
    8.3592    0.9499    0.1357 H   0  0  0  0  0  0  0  0  0  0  0  0
    7.4497    1.3759    1.6126 H   0  0  0  0  0  0  0  0  0  0  0  0
    6.7769    3.5485    0.4603 H   0  0  0  0  0  0  0  0  0  0  0  0
    7.6757    3.0184   -1.0024 H   0  0  0  0  0  0  0  0  0  0  0  0
    8.9724    3.8101    1.7326 H   0  0  0  0  0  0  0  0  0  0  0  0
    9.8983    3.2102    0.2976 H   0  0  0  0  0  0  0  0  0  0  0  0
    8.9672    4.9753   -1.0945 H   0  0  0  0  0  0  0  0  0  0  0  0
    7.9521    5.5390    0.1976 H   0  0  0  0  0  0  0  0  0  0  0  0
   10.6499    5.8003   -0.0326 H   0  0  0  0  0  0  0  0  0  0  0  0
    9.4169    6.6714    1.0596 H   0  0  0  0  0  0  0  0  0  0  0  0
   10.9915    7.4804   -0.9799 H   0  0  0  0  0  0  0  0  0  0  0  0
   11.2280    7.4931    0.8228 H   0  0  0  0  0  0  0  0  0  0  0  0
   10.6862    9.4419    0.9104 H   0  0  0  0  0  0  0  0  0  0  0  0
   10.6074    9.3516   -0.9113 H   0  0  0  0  0  0  0  0  0  0  0  0
   12.6469   10.0319   -0.8355 H   0  0  0  0  0  0  0  0  0  0  0  0
   11.1520   11.0582   -0.3600 H   0  0  0  0  0  0  0  0  0  0  0  0
   12.1971   12.4085    0.6661 H   0  0  0  0  0  0  0  0  0  0  0  0
   13.5093   11.3997    0.7595 H   0  0  0  0  0  0  0  0  0  0  0  0
   15.7216   14.5910   -1.6818 H   0  0  0  0  0  0  0  0  0  0  0  0
   16.1970   14.1346   -0.0450 H   0  0  0  0  0  0  0  0  0  0  0  0
   15.3075   16.5137    0.7822 H   0  0  0  0  0  0  0  0  0  0  0  0
   15.8511   18.2566   -1.2168 H   0  0  0  0  0  0  0  0  0  0  0  0
   15.1810   17.0174   -2.2351 H   0  0  0  0  0  0  0  0  0  0  0  0
   11.7771   19.6673   -2.1152 H   0  0  0  0  0  0  0  0  0  0  0  0
   12.4660   21.1659   -1.4191 H   0  0  0  0  0  0  0  0  0  0  0  0
   11.8881   20.4717    0.8686 H   0  0  0  0  0  0  0  0  0  0  0  0
   11.1248   18.9971    0.1903 H   0  0  0  0  0  0  0  0  0  0  0  0
    9.6945   20.3061    0.9418 H   0  0  0  0  0  0  0  0  0  0  0  0
    9.6542   20.2249   -0.8703 H   0  0  0  0  0  0  0  0  0  0  0  0
    9.0761   22.2025   -0.8702 H   0  0  0  0  0  0  0  0  0  0  0  0
    9.0304   22.2023    0.8896 H   0  0  0  0  0  0  0  0  0  0  0  0
    7.0869   21.8170   -0.9480 H   0  0  0  0  0  0  0  0  0  0  0  0
    7.0382   21.6281    0.7963 H   0  0  0  0  0  0  0  0  0  0  0  0
    6.2988   23.4611    1.0449 H   0  0  0  0  0  0  0  0  0  0  0  0
    6.5968   23.8067   -0.7215 H   0  0  0  0  0  0  0  0  0  0  0  0
    5.1146   24.9048    0.1933 H   0  0  0  0  0  0  0  0  0  0  0  0
    4.5816   23.7793   -1.0933 H   0  0  0  0  0  0  0  0  0  0  0  0
    2.6338   23.1756    0.0641 H   0  0  0  0  0  0  0  0  0  0  0  0
    3.1065   24.0669    1.5370 H   0  0  0  0  0  0  0  0  0  0  0  0
    2.5083   25.5254   -1.1930 H   0  0  0  0  0  0  0  0  0  0  0  0
    2.7785   26.3078    0.3812 H   0  0  0  0  0  0  0  0  0  0  0  0
    0.2772   25.5921    1.0363 H   0  0  0  0  0  0  0  0  0  0  0  0
    0.1226   24.9667   -0.6293 H   0  0  0  0  0  0  0  0  0  0  0  0
    0.4342   27.3751   -1.4716 H   0  0  0  0  0  0  0  0  0  0  0  0
    0.3471   27.9808    0.1908 H   0  0  0  0  0  0  0  0  0  0  0  0
   -1.3614   28.8856   -1.3623 H   0  0  0  0  0  0  0  0  0  0  0  0
   -2.0333   27.2921   -1.7552 H   0  0  0  0  0  0  0  0  0  0  0  0
   -3.2275   27.2943    0.3412 H   0  0  0  0  0  0  0  0  0  0  0  0
   -2.4658   28.8250    0.8580 H   0  0  0  0  0  0  0  0  0  0  0  0
   -4.5987   28.6184    0.9778 H   0  0  0  0  0  0  0  0  0  0  0  0
   -4.6395   28.4340   -0.8385 H   0  0  0  0  0  0  0  0  0  0  0  0
   -5.2042   30.5193    0.8215 H   0  0  0  0  0  0  0  0  0  0  0  0
   -5.2467   30.3937   -0.9226 H   0  0  0  0  0  0  0  0  0  0  0  0
   -7.1578   29.9990    0.9262 H   0  0  0  0  0  0  0  0  0  0  0  0
   -7.2275   30.0084   -0.9002 H   0  0  0  0  0  0  0  0  0  0  0  0
   -7.9976   31.9197    0.9344 H   0  0  0  0  0  0  0  0  0  0  0  0
   -8.9332   30.5088    0.1337 H   0  0  0  0  0  0  0  0  0  0  0  0
   -9.1083   31.8735    0.0000 H   0  0  0  0  0  0  0  0  0  0  0  0
   19.5508   17.7136    1.2681 H   0  0  0  0  0  0  0  0  0  0  0  0
   20.4062   17.2722   -0.2276 H   0  0  0  0  0  0  0  0  0  0  0  0
   20.2005   19.4574   -1.1087 H   0  0  0  0  0  0  0  0  0  0  0  0
   19.3217   19.9727    0.3654 H   0  0  0  0  0  0  0  0  0  0  0  0
   22.4056   21.9091   -0.8790 H   0  0  0  0  0  0  0  0  0  0  0  0
   22.4043   21.9101    0.8802 H   0  0  0  0  0  0  0  0  0  0  0  0
   21.1001   24.0029    0.8983 H   0  0  0  0  0  0  0  0  0  0  0  0
   21.1014   24.0019   -0.9015 H   0  0  0  0  0  0  0  0  0  0  0  0
   23.6914   24.1056   -0.8990 H   0  0  0  0  0  0  0  0  0  0  0  0
   23.6905   24.1060    0.8988 H   0  0  0  0  0  0  0  0  0  0  0  0
   22.4745   26.2449   -0.9063 H   0  0  0  0  0  0  0  0  0  0  0  0
   22.4739   26.2448    0.9047 H   0  0  0  0  0  0  0  0  0  0  0  0
   25.3126   26.8429   -0.0001 H   0  0  0  0  0  0  0  0  0  0  0  0
   24.7042   29.4035    0.0003 H   0  0  0  0  0  0  0  0  0  0  0  0
   20.2833   27.7649    0.0005 H   0  0  0  0  0  0  0  0  0  0  0  0
   19.7498   30.3351    0.0000 H   0  0  0  0  0  0  0  0  0  0  0  0
   22.6476   30.8680   -0.9136 H   0  0  0  0  0  0  0  0  0  0  0  0
   22.6489   30.8678    0.9108 H   0  0  0  0  0  0  0  0  0  0  0  0
   21.0821   32.6054    0.8788 H   0  0  0  0  0  0  0  0  0  0  0  0
   21.0806   32.6062   -0.8775 H   0  0  0  0  0  0  0  0  0  0  0  0
   23.7274   34.7515    0.9538 H   0  0  0  0  0  0  0  0  0  0  0  0
   23.7575   34.6662   -0.9129 H   0  0  0  0  0  0  0  0  0  0  0  0
   25.0562   35.9993   -0.0857 H   0  0  0  0  0  0  0  0  0  0  0  0
   23.5903   36.7602   -0.9623 H   0  0  0  0  0  0  0  0  0  0  0  0
   24.5350   37.2998    0.0000 H   0  0  0  0  0  0  0  0  0  0  0  0
  1  2  1  0  0  0  0
  1 68  1  0  0  0  0
  1 69  1  0  0  0  0
  1 70  1  0  0  0  0
  2  3  1  0  0  0  0
  2 71  1  0  0  0  0
  2 72  1  0  0  0  0
  3  4  1  0  0  0  0
  3 73  1  0  0  0  0
  3 74  1  0  0  0  0
  4  5  1  0  0  0  0
  4 75  1  0  0  0  0
  4 76  1  0  0  0  0
  5  6  1  0  0  0  0
  5 77  1  0  0  0  0
  5 78  1  0  0  0  0
  6  7  2  0  0  0  0
  6 79  1  0  0  0  0
  7  8  1  0  0  0  0
  7 80  1  0  0  0  0
  8  9  1  0  0  0  0
  8 81  1  0  0  0  0
  8 82  1  0  0  0  0
  9 10  2  0  0  0  0
  9 83  1  0  0  0  0
 10 11  1  0  0  0  0
 10 84  1  0  0  0  0
 11 12  1  0  0  0  0
 11 85  1  0  0  0  0
 11 86  1  0  0  0  0
 12 13  1  0  0  0  0
 13 14  1  0  0  0  0
 13 87  1  0  0  0  0
 13 88  1  0  0  0  0
 14 15  1  0  0  0  0
 14 89  1  0  0  0  0
 14 90  1  0  0  0  0
 15 16  1  0  0  0  0
 15 91  1  0  0  0  0
 15 92  1  0  0  0  0
 16 17  1  0  0  0  0
 16 93  1  0  0  0  0
 16 94  1  0  0  0  0
 17 18  1  0  0  0  0
 17 95  1  0  0  0  0
 17 96  1  0  0  0  0
 18 19  1  0  0  0  0
 18 97  1  0  0  0  0
 18 98  1  0  0  0  0
 19 20  1  0  0  0  0
 19 99  1  0  0  0  0
 19100  1  0  0  0  0
 20 21  1  0  0  0  0
 20101  1  0  0  0  0
 20102  1  0  0  0  0
 21 22  1  0  0  0  0
 21103  1  0  0  0  0
 21104  1  0  0  0  0
 22 23  2  0  0  0  0
 22 24  1  0  0  0  0
 24 25  1  0  0  0  0
 25105  1  0  0  0  0
 25106  1  0  0  0  0
 26 25  1  0  0  0  0
 26 27  1  0  0  0  0
 26 48  1  0  0  0  0
 26107  1  1  0  0  0
 27 28  1  0  0  0  0
 27108  1  0  0  0  0
 27109  1  0  0  0  0
 28 29  1  0  0  0  0
 29 30  2  0  0  0  0
 29 31  1  0  0  0  0
 31 32  1  0  0  0  0
 31110  1  0  0  0  0
 31111  1  0  0  0  0
 32 33  1  0  0  0  0
 32112  1  0  0  0  0
 32113  1  0  0  0  0
 33 34  1  0  0  0  0
 33114  1  0  0  0  0
 33115  1  0  0  0  0
 34 35  1  0  0  0  0
 34116  1  0  0  0  0
 34117  1  0  0  0  0
 35 36  1  0  0  0  0
 35118  1  0  0  0  0
 35119  1  0  0  0  0
 36 37  1  0  0  0  0
 36120  1  0  0  0  0
 36121  1  0  0  0  0
 37 38  1  0  0  0  0
 37122  1  0  0  0  0
 37123  1  0  0  0  0
 38 39  1  0  0  0  0
 38124  1  0  0  0  0
 38125  1  0  0  0  0
 39 40  1  0  0  0  0
 39126  1  0  0  0  0
 39127  1  0  0  0  0
 40 41  1  0  0  0  0
 40128  1  0  0  0  0
 40129  1  0  0  0  0
 41 42  1  0  0  0  0
 41130  1  0  0  0  0
 41131  1  0  0  0  0
 42 43  1  0  0  0  0
 42132  1  0  0  0  0
 42133  1  0  0  0  0
 43 44  1  0  0  0  0
 43134  1  0  0  0  0
 43135  1  0  0  0  0
 44 45  1  0  0  0  0
 44136  1  0  0  0  0
 44137  1  0  0  0  0
 45 46  1  0  0  0  0
 45138  1  0  0  0  0
 45139  1  0  0  0  0
 46 47  1  0  0  0  0
 46140  1  0  0  0  0
 46141  1  0  0  0  0
 47142  1  0  0  0  0
 47143  1  0  0  0  0
 47144  1  0  0  0  0
 48 49  1  0  0  0  0
 49 50  2  0  0  0  0
 49 51  1  0  0  0  0
 51 52  1  0  0  0  0
 51145  1  0  0  0  0
 51146  1  0  0  0  0
 52 53  1  0  0  0  0
 52147  1  0  0  0  0
 52148  1  0  0  0  0
 53 54  1  0  0  0  0
 54 55  1  0  0  0  0
 54149  1  0  0  0  0
 54150  1  0  0  0  0
 55 56  1  0  0  0  0
 55151  1  0  0  0  0
 55152  1  0  0  0  0
 56 57  1  0  0  0  0
 56153  1  0  0  0  0
 56154  1  0  0  0  0
 57 58  1  0  0  0  0
 57155  1  0  0  0  0
 57156  1  0  0  0  0
 58 59  2  0  0  0  0
 58157  1  0  0  0  0
 59 60  1  0  0  0  0
 59158  1  0  0  0  0
 60 61  1  0  0  0  0
 61 62  2  0  0  0  0
 61159  1  0  0  0  0
 62 63  1  0  0  0  0
 62160  1  0  0  0  0
 63 64  1  0  0  0  0
 63161  1  0  0  0  0
 63162  1  0  0  0  0
 64 65  1  0  0  0  0
 64163  1  0  0  0  0
 64164  1  0  0  0  0
 65 66  1  0  0  0  0
 66 67  1  0  0  0  0
 66165  1  0  0  0  0
 66166  1  0  0  0  0
 67167  1  0  0  0  0
 67168  1  0  0  0  0
 67169  1  0  0  0  0
M  END
>  <IDENTIFIER>
CNP0532641.1

>  <Energy>
10388.4

$$$$
