
 OpenBabel09112508183D

 36 40  0  0  0  0  0  0  0  0999 V2000
   -3.5322   -2.2924   -0.0815 C   0  0  0  0  0  0  0  0  0  0  0  0
   -3.7701   -0.9490   -0.0105 C   0  0  0  0  0  0  0  0  0  0  0  0
   -2.4440   -0.3272   -0.0030 C   0  0  0  0  0  0  0  0  0  0  0  0
   -1.5460   -1.1619   -0.0630 O   0  3  0  0  0  0  0  0  0  0  0  0
   -2.0800   -2.3998   -0.1197 C   0  0  0  0  0  0  0  0  0  0  0  0
   -1.4090   -3.5604   -0.2044 C   0  0  0  0  0  0  0  0  0  0  0  0
    0.0626   -3.7840   -0.2621 C   0  0  0  0  0  0  0  0  0  0  0  0
    1.0655   -2.8865   -0.2289 C   0  0  0  0  0  0  0  0  0  0  0  0
    2.4022   -3.2380   -0.2964 C   0  0  0  0  0  0  0  0  0  0  0  0
    3.1113   -2.0649   -0.2300 C   0  0  0  0  0  0  0  0  0  0  0  0
    2.1679   -1.0588   -0.1249 C   0  0  0  0  0  0  0  0  0  0  0  0
    2.4353    0.2523   -0.0292 C   0  0  0  0  0  0  0  0  0  0  0  0
    3.7578    0.8638   -0.0125 C   0  0  0  0  0  0  0  0  0  0  0  0
    3.5058    2.1996    0.1072 C   0  0  0  0  0  0  0  0  0  0  0  0
    2.0461    2.3219    0.1506 C   0  0  0  0  0  0  0  0  0  0  0  0
    1.4989    1.2253    0.0729 O   0  3  0  0  0  0  0  0  0  0  0  0
    1.3607    3.6345    0.2676 C   0  0  0  0  0  0  0  0  0  0  0  0
    0.0376    3.8968    0.2869 C   0  0  0  0  0  0  0  0  0  0  0  0
   -1.0801    2.9339    0.2017 C   0  0  0  0  0  0  0  0  0  0  0  0
   -2.4148    3.2934    0.2004 C   0  0  0  0  0  0  0  0  0  0  0  0
   -3.1261    2.1184    0.1186 C   0  0  0  0  0  0  0  0  0  0  0  0
   -2.1811    1.1136    0.0753 C   0  0  0  0  0  0  0  0  0  0  0  0
   -0.9757    1.6289    0.1232 O   0  0  0  0  0  0  0  0  0  0  0  0
    0.9555   -1.5774   -0.1286 O   0  0  0  0  0  0  0  0  0  0  0  0
   -4.2714   -3.0824   -0.1060 H   0  0  0  0  0  0  0  0  0  0  0  0
   -4.7385   -0.4691    0.0343 H   0  0  0  0  0  0  0  0  0  0  0  0
   -2.0079   -4.4664   -0.2428 H   0  0  0  0  0  0  0  0  0  0  0  0
    0.3463   -4.8308   -0.3443 H   0  0  0  0  0  0  0  0  0  0  0  0
    2.8156   -4.2351   -0.3841 H   0  0  0  0  0  0  0  0  0  0  0  0
    4.1886   -1.9660   -0.2556 H   0  0  0  0  0  0  0  0  0  0  0  0
    4.7304    0.3944   -0.0761 H   0  0  0  0  0  0  0  0  0  0  0  0
    4.2430    2.9903    0.1549 H   0  0  0  0  0  0  0  0  0  0  0  0
    2.0191    4.4960    0.3402 H   0  0  0  0  0  0  0  0  0  0  0  0
   -0.2460    4.9425    0.3729 H   0  0  0  0  0  0  0  0  0  0  0  0
   -2.8226    4.2943    0.2540 H   0  0  0  0  0  0  0  0  0  0  0  0
   -4.2025    2.0130    0.0953 H   0  0  0  0  0  0  0  0  0  0  0  0
  1  2  2  0  0  0  0
  1 25  1  0  0  0  0
  2  3  1  0  0  0  0
  2 26  1  0  0  0  0
  3  4  2  0  0  0  0
  4  5  1  0  0  0  0
  5  6  2  0  0  0  0
  5  1  1  0  0  0  0
  6  7  1  0  0  0  0
  6 27  1  0  0  0  0
  7  8  2  0  0  0  0
  7 28  1  0  0  0  0
  8  9  1  0  0  0  0
  9 10  2  0  0  0  0
  9 29  1  0  0  0  0
 10 11  1  0  0  0  0
 10 30  1  0  0  0  0
 11 12  2  0  0  0  0
 11 24  1  0  0  0  0
 12 13  1  0  0  0  0
 13 14  2  0  0  0  0
 13 31  1  0  0  0  0
 14 15  1  0  0  0  0
 14 32  1  0  0  0  0
 15 16  2  0  0  0  0
 15 17  1  0  0  0  0
 16 12  1  0  0  0  0
 17 18  2  0  0  0  0
 17 33  1  0  0  0  0
 18 19  1  0  0  0  0
 18 34  1  0  0  0  0
 19 20  2  0  0  0  0
 20 21  1  0  0  0  0
 20 35  1  0  0  0  0
 21 22  2  0  0  0  0
 21 36  1  0  0  0  0
 22 23  1  0  0  0  0
 22  3  1  0  0  0  0
 23 19  1  0  0  0  0
 24  8  1  0  0  0  0
M  CHG  2   4   1  16   1
M  END
>  <IDENTIFIER>
CNP0541306.0

>  <Energy>
666.929

$$$$
