
 OpenBabel09062521003D

 39 42  0  0  0  0  0  0  0  0999 V2000
   -1.0103    4.2336   -0.1188 C   0  0  0  0  0  0  0  0  0  0  0  0
   -0.0850    3.1102   -0.5090 C   0  0  0  0  0  0  0  0  0  0  0  0
   -0.1542    1.7965   -0.2321 C   0  0  0  0  0  0  0  0  0  0  0  0
   -1.2567    1.1332    0.5816 C   0  0  0  0  0  0  0  0  0  0  0  0
   -1.8863   -0.0279   -0.1830 C   0  0  2  0  0  0  0  0  0  0  0  0
   -2.9516   -0.5697    0.5795 O   0  0  0  0  0  0  0  0  0  0  0  0
   -1.8713   -1.4349    0.3489 C   0  0  1  0  0  0  0  0  0  0  0  0
   -2.2484   -2.5323   -0.6536 C   0  0  0  0  0  0  0  0  0  0  0  0
   -1.2410   -1.8952    1.6976 C   0  0  0  0  0  0  0  0  0  0  0  0
    0.2772   -1.6665    1.8728 C   0  0  0  0  0  0  0  0  0  0  0  0
    1.1471   -2.1848    0.7241 C   0  0  1  0  0  0  0  0  0  0  0  0
    0.7275   -1.6231   -0.4825 O   0  0  0  0  0  0  0  0  0  0  0  0
    2.0037   -1.2083   -0.0633 C   0  0  2  0  0  0  0  0  0  0  0  0
    3.0161   -1.7766   -1.0606 C   0  0  0  0  0  0  0  0  0  0  0  0
    1.9859    0.3472    0.1009 C   0  0  0  0  0  0  0  0  0  0  0  0
    1.0555    1.1031   -0.8882 C   0  0  2  0  0  0  0  0  0  0  0  0
    1.7524    2.1417   -1.4815 O   0  0  0  0  0  0  0  0  0  0  0  0
    1.1155    3.3009   -1.2857 C   0  0  0  0  0  0  0  0  0  0  0  0
    1.5176    4.3697   -1.7174 O   0  0  0  0  0  0  0  0  0  0  0  0
   -1.8742    3.9162    0.4900 H   0  0  0  0  0  0  0  0  0  0  0  0
   -1.3987    4.7190   -1.0385 H   0  0  0  0  0  0  0  0  0  0  0  0
   -0.4407    4.9846    0.4671 H   0  0  0  0  0  0  0  0  0  0  0  0
   -2.0640    1.8458    0.8240 H   0  0  0  0  0  0  0  0  0  0  0  0
   -0.8707    0.8278    1.5590 H   0  0  0  0  0  0  0  0  0  0  0  0
   -2.2946    0.1892   -1.1931 H   0  0  0  0  0  0  0  0  0  0  0  0
   -2.9644   -3.2372   -0.1812 H   0  0  0  0  0  0  0  0  0  0  0  0
   -1.3448   -3.0978   -0.9586 H   0  0  0  0  0  0  0  0  0  0  0  0
   -2.7263   -2.1150   -1.5661 H   0  0  0  0  0  0  0  0  0  0  0  0
   -1.4378   -2.9847    1.7994 H   0  0  0  0  0  0  0  0  0  0  0  0
   -1.7550   -1.4071    2.5544 H   0  0  0  0  0  0  0  0  0  0  0  0
    0.6018   -2.1714    2.8073 H   0  0  0  0  0  0  0  0  0  0  0  0
    0.4857   -0.6134    2.0621 H   0  0  0  0  0  0  0  0  0  0  0  0
    1.2217   -3.2808    0.5626 H   0  0  0  0  0  0  0  0  0  0  0  0
    2.8465   -1.3364   -2.0663 H   0  0  0  0  0  0  0  0  0  0  0  0
    2.9406   -2.8825   -1.1361 H   0  0  0  0  0  0  0  0  0  0  0  0
    4.0439   -1.5218   -0.7275 H   0  0  0  0  0  0  0  0  0  0  0  0
    3.0330    0.6528   -0.1165 H   0  0  0  0  0  0  0  0  0  0  0  0
    1.8541    0.7152    1.1370 H   0  0  0  0  0  0  0  0  0  0  0  0
    0.7299    0.4301   -1.7095 H   0  0  0  0  0  0  0  0  0  0  0  0
  1  2  1  0  0  0  0
  1 20  1  0  0  0  0
  1 21  1  0  0  0  0
  1 22  1  0  0  0  0
  2  3  2  0  0  0  0
  3  4  1  0  0  0  0
  4 23  1  0  0  0  0
  4 24  1  0  0  0  0
  5  4  1  0  0  0  0
  5  6  1  0  0  0  0
  5 25  1  6  0  0  0
  6  7  1  0  0  0  0
  7  8  1  6  0  0  0
  7  9  1  0  0  0  0
  7  5  1  0  0  0  0
  8 26  1  0  0  0  0
  8 27  1  0  0  0  0
  8 28  1  0  0  0  0
  9 10  1  0  0  0  0
  9 29  1  0  0  0  0
  9 30  1  0  0  0  0
 10 31  1  0  0  0  0
 10 32  1  0  0  0  0
 11 10  1  0  0  0  0
 11 12  1  0  0  0  0
 11 33  1  1  0  0  0
 12 13  1  0  0  0  0
 13 14  1  6  0  0  0
 13 15  1  0  0  0  0
 13 11  1  0  0  0  0
 14 34  1  0  0  0  0
 14 35  1  0  0  0  0
 14 36  1  0  0  0  0
 15 37  1  0  0  0  0
 15 38  1  0  0  0  0
 16 15  1  0  0  0  0
 16 17  1  0  0  0  0
 16  3  1  0  0  0  0
 16 39  1  6  0  0  0
 17 18  1  0  0  0  0
 18 19  2  0  0  0  0
 18  2  1  0  0  0  0
M  END
>  <IDENTIFIER>
CNP0207167.2

>  <Energy>
3437.12

$$$$
