
 OpenBabel09122517203D

 92 99  0  0  0  0  0  0  0  0999 V2000
   -6.0691   -4.1031   -2.5700 C   0  0  0  0  0  0  0  0  0  0  0  0
   -5.4576   -2.9994   -1.7549 C   0  0  0  0  0  0  0  0  0  0  0  0
   -6.1525   -2.2116   -0.8995 C   0  0  0  0  0  0  0  0  0  0  0  0
   -7.6423   -2.3687   -0.6780 C   0  0  0  0  0  0  0  0  0  0  0  0
   -5.4462   -1.1392   -0.1453 C   0  0  0  0  0  0  0  0  0  0  0  0
   -6.0750   -0.4351    0.6333 O   0  0  0  0  0  0  0  0  0  0  0  0
   -4.1165   -0.9309   -0.3444 O   0  0  0  0  0  0  0  0  0  0  0  0
   -3.3564    0.0756    0.2280 C   0  0  2  0  0  0  0  0  0  0  0  0
   -2.8937    1.0743   -0.8601 C   0  0  0  0  0  0  0  0  0  0  0  0
   -1.9805    2.1920   -0.2287 C   0  0  2  0  0  0  0  0  0  0  0  0
   -1.6022    3.0874   -1.2402 O   0  0  0  0  0  0  0  0  0  0  0  0
   -0.7472    1.6347    0.6599 C   0  0  2  0  0  0  0  0  0  0  0  0
   -0.7485    2.2718    2.0555 C   0  0  0  0  0  0  0  0  0  0  0  0
   -0.0087    3.4809    1.9970 O   0  0  0  0  0  0  0  0  0  0  0  0
    0.7605    3.4674    0.8008 C   0  0  2  0  0  0  0  0  0  0  0  0
    0.2935    4.5766   -0.1051 C   0  0  0  0  0  0  0  0  0  0  0  0
    0.8542    4.7519   -1.1791 O   0  0  0  0  0  0  0  0  0  0  0  0
   -0.7152    5.3961    0.2906 O   0  0  0  0  0  0  0  0  0  0  0  0
   -1.1694    6.4653   -0.4511 C   0  0  0  0  0  0  0  0  0  0  0  0
    0.6669    2.0391    0.1931 C   0  0  1  0  0  0  0  0  0  0  0  0
    1.9143    1.0638    0.6258 C   0  0  1  0  0  0  0  0  0  0  0  0
    2.5108    1.3963    2.0329 C   0  0  0  0  0  0  0  0  0  0  0  0
    1.5357   -0.4446    0.5503 C   0  0  2  0  0  0  0  0  0  0  0  0
    1.5420   -0.8438   -0.8143 O   0  0  0  0  0  0  0  0  0  0  0  0
    2.5180   -0.0571   -1.4868 C   0  0  2  0  0  0  0  0  0  0  0  0
    1.8524    0.4672   -2.7879 C   0  0  0  0  0  0  0  0  0  0  0  0
    3.8321   -0.8607   -1.9247 C   0  0  1  0  0  0  0  0  0  0  0  0
    4.8635    0.2535   -1.7268 C   0  0  0  0  0  0  0  0  0  0  0  0
    4.4689    0.6478   -0.2392 C   0  0  2  0  0  0  0  0  0  0  0  0
    4.5429   -0.4348    0.7326 O   0  0  0  0  0  0  0  0  0  0  0  0
    5.1598   -1.5427    0.1436 C   0  0  1  0  0  0  0  0  0  0  0  0
    5.4459   -2.6479    0.9544 O   0  0  0  0  0  0  0  0  0  0  0  0
    5.5865   -3.6997   -0.0095 C   0  0  2  0  0  0  0  0  0  0  0  0
    6.8625   -4.2793    0.0289 O   0  0  0  0  0  0  0  0  0  0  0  0
    5.2565   -3.1216   -1.4186 C   0  0  0  0  0  0  0  0  0  0  0  0
    4.2656   -2.0629   -0.9850 C   0  0  2  0  0  0  0  0  0  0  0  0
    3.1269   -2.7290   -0.4886 O   0  0  0  0  0  0  0  0  0  0  0  0
    2.9956    1.0747   -0.5023 C   0  0  2  0  0  0  0  0  0  0  0  0
    3.0442    2.3312   -1.1490 O   0  0  0  0  0  0  0  0  0  0  0  0
    0.1911   -0.7224    1.2439 C   0  0  2  0  0  0  0  0  0  0  0  0
   -0.2923   -2.0583    1.1187 O   0  0  0  0  0  0  0  0  0  0  0  0
   -1.6816   -1.9622    0.7533 C   0  0  0  0  0  0  0  0  0  0  0  0
   -2.1554   -0.5229    1.0744 C   0  0  2  0  0  0  0  0  0  0  0  0
   -2.4612   -0.4342    2.5920 C   0  0  0  0  0  0  0  0  0  0  0  0
   -3.5153    0.0477    2.9875 O   0  0  0  0  0  0  0  0  0  0  0  0
   -1.5959   -0.9474    3.5066 O   0  0  0  0  0  0  0  0  0  0  0  0
   -1.8082   -0.9223    4.8684 C   0  0  0  0  0  0  0  0  0  0  0  0
   -0.8635    0.1195    0.6151 C   0  0  1  0  0  0  0  0  0  0  0  0
   -5.2853   -4.5922   -3.1857 H   0  0  0  0  0  0  0  0  0  0  0  0
   -6.8438   -3.6911   -3.2506 H   0  0  0  0  0  0  0  0  0  0  0  0
   -6.5203   -4.8674   -1.9029 H   0  0  0  0  0  0  0  0  0  0  0  0
   -4.3893   -2.8457   -1.8803 H   0  0  0  0  0  0  0  0  0  0  0  0
   -8.1001   -3.1815   -1.2750 H   0  0  0  0  0  0  0  0  0  0  0  0
   -8.1547   -1.4221   -0.9512 H   0  0  0  0  0  0  0  0  0  0  0  0
   -7.8354   -2.5857    0.3933 H   0  0  0  0  0  0  0  0  0  0  0  0
   -3.9813    0.7350    0.8656 H   0  0  0  0  0  0  0  0  0  0  0  0
   -3.7798    1.5412   -1.3440 H   0  0  0  0  0  0  0  0  0  0  0  0
   -2.3559    0.5313   -1.6667 H   0  0  0  0  0  0  0  0  0  0  0  0
   -2.6687    2.7488    0.4427 H   0  0  0  0  0  0  0  0  0  0  0  0
   -1.2264    2.5612   -1.9928 H   0  0  0  0  0  0  0  0  0  0  0  0
   -0.2683    1.6240    2.8023 H   0  0  0  0  0  0  0  0  0  0  0  0
   -1.7752    2.4336    2.4447 H   0  0  0  0  0  0  0  0  0  0  0  0
    1.8074    3.7492    1.0023 H   0  0  0  0  0  0  0  0  0  0  0  0
   -1.9935    6.9650    0.0977 H   0  0  0  0  0  0  0  0  0  0  0  0
   -1.5515    6.1154   -1.4337 H   0  0  0  0  0  0  0  0  0  0  0  0
   -0.3480    7.1975   -0.6067 H   0  0  0  0  0  0  0  0  0  0  0  0
    0.6597    2.0552   -0.8959 H   0  0  0  0  0  0  0  0  0  0  0  0
    1.7775    1.3342    2.8465 H   0  0  0  0  0  0  0  0  0  0  0  0
    2.9977    2.3877    2.0650 H   0  0  0  0  0  0  0  0  0  0  0  0
    3.2962    0.6829    2.3340 H   0  0  0  0  0  0  0  0  0  0  0  0
    2.2845   -1.0687    1.0761 H   0  0  0  0  0  0  0  0  0  0  0  0
    1.5959   -0.3967   -3.4384 H   0  0  0  0  0  0  0  0  0  0  0  0
    2.5330    1.1309   -3.3600 H   0  0  0  0  0  0  0  0  0  0  0  0
    0.8980    0.9911   -2.6265 H   0  0  0  0  0  0  0  0  0  0  0  0
    3.7284   -1.2840   -2.9477 H   0  0  0  0  0  0  0  0  0  0  0  0
    4.7132    1.0983   -2.4356 H   0  0  0  0  0  0  0  0  0  0  0  0
    5.9100   -0.0717   -1.8996 H   0  0  0  0  0  0  0  0  0  0  0  0
    5.0808    1.4907    0.1474 H   0  0  0  0  0  0  0  0  0  0  0  0
    6.1808   -1.1868   -0.1555 H   0  0  0  0  0  0  0  0  0  0  0  0
    4.8279   -4.4702    0.2508 H   0  0  0  0  0  0  0  0  0  0  0  0
    7.5169   -3.5328   -0.0077 H   0  0  0  0  0  0  0  0  0  0  0  0
    4.8881   -3.8743   -2.1478 H   0  0  0  0  0  0  0  0  0  0  0  0
    6.1545   -2.6301   -1.8652 H   0  0  0  0  0  0  0  0  0  0  0  0
    2.7001   -3.1901   -1.2583 H   0  0  0  0  0  0  0  0  0  0  0  0
    3.4165    2.9844   -0.5015 H   0  0  0  0  0  0  0  0  0  0  0  0
    0.3205   -0.4911    2.3163 H   0  0  0  0  0  0  0  0  0  0  0  0
   -2.3067   -2.7247    1.2658 H   0  0  0  0  0  0  0  0  0  0  0  0
   -1.7428   -2.1573   -0.3425 H   0  0  0  0  0  0  0  0  0  0  0  0
   -0.9490   -1.4016    5.3803 H   0  0  0  0  0  0  0  0  0  0  0  0
   -2.7341   -1.4823    5.1214 H   0  0  0  0  0  0  0  0  0  0  0  0
   -1.8965    0.1274    5.2224 H   0  0  0  0  0  0  0  0  0  0  0  0
   -0.7433   -0.1088   -0.4740 H   0  0  0  0  0  0  0  0  0  0  0  0
  1  2  1  0  0  0  0
  1 49  1  0  0  0  0
  1 50  1  0  0  0  0
  1 51  1  0  0  0  0
  2  3  2  0  0  0  0
  2 52  1  0  0  0  0
  3  4  1  0  0  0  0
  3  5  1  0  0  0  0
  4 53  1  0  0  0  0
  4 54  1  0  0  0  0
  4 55  1  0  0  0  0
  5  6  2  0  0  0  0
  5  7  1  0  0  0  0
  8  7  1  0  0  0  0
  8  9  1  0  0  0  0
  8 56  1  1  0  0  0
  9 10  1  0  0  0  0
  9 57  1  0  0  0  0
  9 58  1  0  0  0  0
 10 11  1  0  0  0  0
 10 12  1  0  0  0  0
 10 59  1  1  0  0  0
 11 60  1  0  0  0  0
 12 13  1  1  0  0  0
 13 14  1  0  0  0  0
 13 61  1  0  0  0  0
 13 62  1  0  0  0  0
 14 15  1  0  0  0  0
 15 16  1  0  0  0  0
 15 63  1  1  0  0  0
 16 17  2  0  0  0  0
 16 18  1  0  0  0  0
 18 19  1  0  0  0  0
 19 64  1  0  0  0  0
 19 65  1  0  0  0  0
 19 66  1  0  0  0  0
 20 15  1  0  0  0  0
 20 21  1  0  0  0  0
 20 12  1  0  0  0  0
 20 67  1  6  0  0  0
 21 22  1  1  0  0  0
 21 23  1  0  0  0  0
 22 68  1  0  0  0  0
 22 69  1  0  0  0  0
 22 70  1  0  0  0  0
 23 24  1  0  0  0  0
 23 40  1  0  0  0  0
 23 71  1  1  0  0  0
 24 25  1  0  0  0  0
 25 26  1  6  0  0  0
 25 27  1  0  0  0  0
 26 72  1  0  0  0  0
 26 73  1  0  0  0  0
 26 74  1  0  0  0  0
 27 28  1  0  0  0  0
 27 75  1  6  0  0  0
 28 29  1  0  0  0  0
 28 76  1  0  0  0  0
 28 77  1  0  0  0  0
 29 30  1  0  0  0  0
 29 38  1  0  0  0  0
 29 78  1  1  0  0  0
 31 30  1  0  0  0  0
 31 32  1  0  0  0  0
 31 79  1  6  0  0  0
 32 33  1  0  0  0  0
 33 34  1  0  0  0  0
 33 35  1  0  0  0  0
 33 80  1  1  0  0  0
 34 81  1  0  0  0  0
 35 36  1  0  0  0  0
 35 82  1  0  0  0  0
 35 83  1  0  0  0  0
 36 37  1  1  0  0  0
 36 27  1  0  0  0  0
 36 31  1  0  0  0  0
 37 84  1  0  0  0  0
 38 39  1  6  0  0  0
 38 21  1  0  0  0  0
 38 25  1  0  0  0  0
 39 85  1  0  0  0  0
 40 41  1  0  0  0  0
 40 86  1  1  0  0  0
 41 42  1  0  0  0  0
 42 43  1  0  0  0  0
 42 87  1  0  0  0  0
 42 88  1  0  0  0  0
 43 44  1  1  0  0  0
 43 48  1  0  0  0  0
 43  8  1  0  0  0  0
 44 45  2  0  0  0  0
 44 46  1  0  0  0  0
 46 47  1  0  0  0  0
 47 89  1  0  0  0  0
 47 90  1  0  0  0  0
 47 91  1  0  0  0  0
 48 40  1  0  0  0  0
 48 12  1  0  0  0  0
 48 92  1  6  0  0  0
M  END
>  <IDENTIFIER>
CNP0189847.2

>  <Energy>
1789.29

$$$$
