
 OpenBabel09122515053D

 49 51  0  0  0  0  0  0  0  0999 V2000
    7.9353   -0.4094   -0.7384 C   0  0  0  0  0  0  0  0  0  0  0  0
    6.4373   -0.3136   -0.5468 C   0  0  0  0  0  0  0  0  0  0  0  0
    5.9374    0.4933    0.6233 C   0  0  0  0  0  0  0  0  0  0  0  0
    5.6573   -0.9634   -1.4551 C   0  0  0  0  0  0  0  0  0  0  0  0
    4.1464   -1.1207   -1.6389 C   0  0  0  0  0  0  0  0  0  0  0  0
    3.2501   -0.5040   -0.6769 N   0  0  0  0  0  0  0  0  0  0  0  0
    1.8375   -0.6092   -0.8275 C   0  0  0  0  0  0  0  0  0  0  0  0
    1.2789   -1.2626   -1.8933 N   0  0  0  0  0  0  0  0  0  0  0  0
   -0.0826   -1.3629   -2.0422 C   0  0  0  0  0  0  0  0  0  0  0  0
   -0.9281   -0.8045   -1.1214 N   0  0  0  0  0  0  0  0  0  0  0  0
   -0.3753   -0.1590   -0.0671 C   0  0  0  0  0  0  0  0  0  0  0  0
    0.9656   -0.0525    0.1024 C   0  0  0  0  0  0  0  0  0  0  0  0
    1.2380    0.6215    1.2338 N   0  0  0  0  0  0  0  0  0  0  0  0
    0.0096    0.9091    1.7383 C   0  0  0  0  0  0  0  0  0  0  0  0
   -1.0006    0.4455    0.9574 N   0  0  0  0  0  0  0  0  0  0  0  0
   -2.4350    0.5926    1.2216 C   0  0  2  0  0  0  0  0  0  0  0  0
   -3.0373   -0.7082    1.2577 O   0  0  0  0  0  0  0  0  0  0  0  0
   -4.4531   -0.7544    1.0214 C   0  0  2  0  0  0  0  0  0  0  0  0
   -4.7461   -1.3289   -0.3800 C   0  0  0  0  0  0  0  0  0  0  0  0
   -6.1269   -1.4689   -0.5842 O   0  0  0  0  0  0  0  0  0  0  0  0
   -5.1825    0.5946    1.3277 C   0  0  1  0  0  0  0  0  0  0  0  0
   -5.1112    0.9027    2.7090 O   0  0  0  0  0  0  0  0  0  0  0  0
   -4.5647    1.7738    0.5282 C   0  0  2  0  0  0  0  0  0  0  0  0
   -5.3041    2.1125   -0.6183 O   0  0  0  0  0  0  0  0  0  0  0  0
   -3.0851    1.5130    0.1652 C   0  0  1  0  0  0  0  0  0  0  0  0
   -2.3944    2.7264    0.0029 O   0  0  0  0  0  0  0  0  0  0  0  0
    8.4992    0.1479    0.0384 H   0  0  0  0  0  0  0  0  0  0  0  0
    8.2156    0.0096   -1.7283 H   0  0  0  0  0  0  0  0  0  0  0  0
    8.2531   -1.4728   -0.6924 H   0  0  0  0  0  0  0  0  0  0  0  0
    6.7734    0.9328    1.2061 H   0  0  0  0  0  0  0  0  0  0  0  0
    5.3761   -0.1584    1.3242 H   0  0  0  0  0  0  0  0  0  0  0  0
    5.3207    1.3432    0.2635 H   0  0  0  0  0  0  0  0  0  0  0  0
    6.1974   -1.4917   -2.2385 H   0  0  0  0  0  0  0  0  0  0  0  0
    3.9367   -2.2119   -1.6485 H   0  0  0  0  0  0  0  0  0  0  0  0
    3.9081   -0.7144   -2.6453 H   0  0  0  0  0  0  0  0  0  0  0  0
    3.5881    0.0144    0.1314 H   0  0  0  0  0  0  0  0  0  0  0  0
   -0.4900   -1.8896   -2.8942 H   0  0  0  0  0  0  0  0  0  0  0  0
   -0.1419    1.4555    2.6602 H   0  0  0  0  0  0  0  0  0  0  0  0
   -2.5442    1.0790    2.2159 H   0  0  0  0  0  0  0  0  0  0  0  0
   -4.8778   -1.4967    1.7331 H   0  0  0  0  0  0  0  0  0  0  0  0
   -4.2476   -2.3184   -0.4939 H   0  0  0  0  0  0  0  0  0  0  0  0
   -4.3395   -0.6988   -1.1893 H   0  0  0  0  0  0  0  0  0  0  0  0
   -6.4159   -2.2587   -0.0567 H   0  0  0  0  0  0  0  0  0  0  0  0
   -6.2693    0.5125    1.1093 H   0  0  0  0  0  0  0  0  0  0  0  0
   -4.4896    0.2920    3.1827 H   0  0  0  0  0  0  0  0  0  0  0  0
   -4.6350    2.6537    1.2069 H   0  0  0  0  0  0  0  0  0  0  0  0
   -5.4227    1.2938   -1.1611 H   0  0  0  0  0  0  0  0  0  0  0  0
   -3.0165    0.9664   -0.7946 H   0  0  0  0  0  0  0  0  0  0  0  0
   -2.3128    3.1448    0.8996 H   0  0  0  0  0  0  0  0  0  0  0  0
  1  2  1  0  0  0  0
  1 27  1  0  0  0  0
  1 28  1  0  0  0  0
  1 29  1  0  0  0  0
  2  3  1  0  0  0  0
  2  4  2  0  0  0  0
  3 30  1  0  0  0  0
  3 31  1  0  0  0  0
  3 32  1  0  0  0  0
  4  5  1  0  0  0  0
  4 33  1  0  0  0  0
  5  6  1  0  0  0  0
  5 34  1  0  0  0  0
  5 35  1  0  0  0  0
  6  7  1  0  0  0  0
  6 36  1  0  0  0  0
  7  8  2  0  0  0  0
  8  9  1  0  0  0  0
  9 10  2  0  0  0  0
  9 37  1  0  0  0  0
 10 11  1  0  0  0  0
 11 12  2  0  0  0  0
 12 13  1  0  0  0  0
 12  7  1  0  0  0  0
 13 14  2  0  0  0  0
 14 15  1  0  0  0  0
 14 38  1  0  0  0  0
 15 11  1  0  0  0  0
 16 15  1  0  0  0  0
 16 17  1  0  0  0  0
 16 39  1  1  0  0  0
 17 18  1  0  0  0  0
 18 19  1  0  0  0  0
 18 21  1  0  0  0  0
 18 40  1  1  0  0  0
 19 20  1  0  0  0  0
 19 41  1  0  0  0  0
 19 42  1  0  0  0  0
 20 43  1  0  0  0  0
 21 22  1  0  0  0  0
 21 23  1  0  0  0  0
 21 44  1  6  0  0  0
 22 45  1  0  0  0  0
 23 24  1  0  0  0  0
 23 25  1  0  0  0  0
 23 46  1  1  0  0  0
 24 47  1  0  0  0  0
 25 26  1  0  0  0  0
 25 16  1  0  0  0  0
 25 48  1  6  0  0  0
 26 49  1  0  0  0  0
M  END
>  <IDENTIFIER>
CNP0387870.3

>  <Energy>
662.821

$$$$
