
 OpenBabel09112513213D

 89 94  0  0  0  0  0  0  0  0999 V2000
    7.6425    0.5483   -0.1070 C   0  0  0  0  0  0  0  0  0  0  0  0
    6.2626    1.0248   -0.4245 C   0  0  0  0  0  0  0  0  0  0  0  0
    6.1075    2.0687   -1.0425 O   0  0  0  0  0  0  0  0  0  0  0  0
    5.2009    0.2790   -0.0220 O   0  0  0  0  0  0  0  0  0  0  0  0
    3.8671    0.5531   -0.2880 C   0  0  1  0  0  0  0  0  0  0  0  0
    3.2695   -0.6148   -1.1702 C   0  0  0  0  0  0  0  0  0  0  0  0
    2.7589   -1.7775   -0.2823 C   0  0  2  0  0  0  0  0  0  0  0  0
    2.4917   -2.8922   -1.0551 O   0  0  0  0  0  0  0  0  0  0  0  0
    3.1868   -4.0635   -1.0122 C   0  0  0  0  0  0  0  0  0  0  0  0
    2.8292   -5.1699   -1.9483 C   0  0  0  0  0  0  0  0  0  0  0  0
    4.1084   -4.2270   -0.2251 O   0  0  0  0  0  0  0  0  0  0  0  0
    1.5375   -1.3706    0.6866 C   0  0  1  0  0  0  0  0  0  0  0  0
    1.7353   -2.2544    1.9582 C   0  0  0  0  0  0  0  0  0  0  0  0
    1.7165    0.1494    0.9054 C   0  0  1  0  0  0  0  0  0  0  0  0
    0.8490    0.8069    1.9316 C   0  0  1  0  0  0  0  0  0  0  0  0
    1.3873    2.1146    2.1227 O   0  0  0  0  0  0  0  0  0  0  0  0
    2.5702    2.2033    1.3257 C   0  0  0  0  0  0  0  0  0  0  0  0
    3.0676    0.7644    1.0685 C   0  0  2  0  0  0  0  0  0  0  0  0
    3.8505    0.2802    2.3187 C   0  0  0  0  0  0  0  0  0  0  0  0
   -0.5865    0.8306    1.3594 C   0  0  1  0  0  0  0  0  0  0  0  0
   -0.5887    1.6449    0.2301 O   0  0  0  0  0  0  0  0  0  0  0  0
   -1.2001    2.8500    0.0971 C   0  0  0  0  0  0  0  0  0  0  0  0
   -1.8426    3.3221    1.0205 O   0  0  0  0  0  0  0  0  0  0  0  0
   -1.0145    3.5700   -1.1887 C   0  0  0  0  0  0  0  0  0  0  0  0
   -1.4627    4.8023   -1.5465 C   0  0  0  0  0  0  0  0  0  0  0  0
   -2.2784    5.7338   -0.6782 C   0  0  0  0  0  0  0  0  0  0  0  0
   -1.1279    5.3253   -2.9222 C   0  0  0  0  0  0  0  0  0  0  0  0
   -1.1151   -0.6155    0.9693 C   0  0  1  0  0  0  0  0  0  0  0  0
   -1.5631   -1.3870    2.2472 C   0  0  0  0  0  0  0  0  0  0  0  0
   -2.3839   -0.4068    0.0930 C   0  0  0  0  0  0  0  0  0  0  0  0
   -3.5558    0.2287    0.4058 C   0  0  0  0  0  0  0  0  0  0  0  0
   -3.9872    0.9216    1.6792 C   0  0  0  0  0  0  0  0  0  0  0  0
   -4.5456    0.1632   -0.7195 C   0  0  2  0  0  0  0  0  0  0  0  0
   -5.6903   -0.7629   -0.3970 C   0  0  0  0  0  0  0  0  0  0  0  0
   -7.0246   -0.4054   -0.3929 C   0  0  0  0  0  0  0  0  0  0  0  0
   -7.7548   -1.4447   -0.0599 O   0  0  0  0  0  0  0  0  0  0  0  0
   -6.9621   -2.4702    0.1567 C   0  0  0  0  0  0  0  0  0  0  0  0
   -5.6488   -2.0948   -0.0401 C   0  0  0  0  0  0  0  0  0  0  0  0
   -3.6890   -0.2618   -1.8969 C   0  0  0  0  0  0  0  0  0  0  0  0
   -2.4769   -0.9660   -1.3054 C   0  0  2  0  0  0  0  0  0  0  0  0
   -2.6618   -2.3223   -1.2527 O   0  0  0  0  0  0  0  0  0  0  0  0
   -1.7752   -3.2429   -0.7959 C   0  0  0  0  0  0  0  0  0  0  0  0
   -2.0758   -4.4186   -0.9202 O   0  0  0  0  0  0  0  0  0  0  0  0
   -0.4321   -2.9412   -0.1432 C   0  0  0  0  0  0  0  0  0  0  0  0
    0.0165   -1.4596    0.1206 C   0  0  2  0  0  0  0  0  0  0  0  0
    8.4043    1.2550   -0.5003 H   0  0  0  0  0  0  0  0  0  0  0  0
    7.8027   -0.4476   -0.5702 H   0  0  0  0  0  0  0  0  0  0  0  0
    7.7609    0.4633    0.9931 H   0  0  0  0  0  0  0  0  0  0  0  0
    3.7810    1.4577   -0.9303 H   0  0  0  0  0  0  0  0  0  0  0  0
    4.0444   -0.9475   -1.8953 H   0  0  0  0  0  0  0  0  0  0  0  0
    2.4080   -0.2632   -1.7786 H   0  0  0  0  0  0  0  0  0  0  0  0
    3.6574   -1.9737    0.3425 H   0  0  0  0  0  0  0  0  0  0  0  0
    1.9799   -4.8687   -2.5964 H   0  0  0  0  0  0  0  0  0  0  0  0
    2.5426   -6.0717   -1.3680 H   0  0  0  0  0  0  0  0  0  0  0  0
    3.7045   -5.4102   -2.5885 H   0  0  0  0  0  0  0  0  0  0  0  0
    2.7563   -2.2109    2.3635 H   0  0  0  0  0  0  0  0  0  0  0  0
    1.5781   -3.3248    1.7181 H   0  0  0  0  0  0  0  0  0  0  0  0
    1.1179   -1.9898    2.8119 H   0  0  0  0  0  0  0  0  0  0  0  0
    1.4083    0.6075   -0.0663 H   0  0  0  0  0  0  0  0  0  0  0  0
    0.9036    0.2710    2.9009 H   0  0  0  0  0  0  0  0  0  0  0  0
    3.3503    2.8398    1.7951 H   0  0  0  0  0  0  0  0  0  0  0  0
    2.2701    2.6937    0.3708 H   0  0  0  0  0  0  0  0  0  0  0  0
    4.7420    0.9267    2.4659 H   0  0  0  0  0  0  0  0  0  0  0  0
    4.2444   -0.7425    2.1970 H   0  0  0  0  0  0  0  0  0  0  0  0
    3.2424    0.3391    3.2454 H   0  0  0  0  0  0  0  0  0  0  0  0
   -1.2164    1.2882    2.1397 H   0  0  0  0  0  0  0  0  0  0  0  0
   -0.4292    3.0163   -1.9183 H   0  0  0  0  0  0  0  0  0  0  0  0
   -2.5240    5.3613    0.3261 H   0  0  0  0  0  0  0  0  0  0  0  0
   -3.2388    5.9570   -1.1881 H   0  0  0  0  0  0  0  0  0  0  0  0
   -1.7205    6.6844   -0.5450 H   0  0  0  0  0  0  0  0  0  0  0  0
   -0.5266    4.6069   -3.5196 H   0  0  0  0  0  0  0  0  0  0  0  0
   -0.5446    6.2655   -2.8289 H   0  0  0  0  0  0  0  0  0  0  0  0
   -2.0651    5.5359   -3.4785 H   0  0  0  0  0  0  0  0  0  0  0  0
   -2.3792   -0.8894    2.7857 H   0  0  0  0  0  0  0  0  0  0  0  0
   -0.7961   -1.4778    3.0158 H   0  0  0  0  0  0  0  0  0  0  0  0
   -1.9635   -2.3897    2.0002 H   0  0  0  0  0  0  0  0  0  0  0  0
   -3.2482    0.9756    2.4845 H   0  0  0  0  0  0  0  0  0  0  0  0
   -4.8826    0.4084    2.0876 H   0  0  0  0  0  0  0  0  0  0  0  0
   -4.2656    1.9679    1.4369 H   0  0  0  0  0  0  0  0  0  0  0  0
   -4.9669    1.1681   -0.9532 H   0  0  0  0  0  0  0  0  0  0  0  0
   -7.4246    0.5740   -0.6222 H   0  0  0  0  0  0  0  0  0  0  0  0
   -7.3042   -3.4529    0.4507 H   0  0  0  0  0  0  0  0  0  0  0  0
   -4.7780   -2.7237    0.0721 H   0  0  0  0  0  0  0  0  0  0  0  0
   -3.2713    0.7009   -2.2801 H   0  0  0  0  0  0  0  0  0  0  0  0
   -4.1952   -0.7334   -2.7664 H   0  0  0  0  0  0  0  0  0  0  0  0
   -1.6315   -0.7333   -1.9849 H   0  0  0  0  0  0  0  0  0  0  0  0
    0.3036   -3.4479   -0.7845 H   0  0  0  0  0  0  0  0  0  0  0  0
   -0.4386   -3.4804    0.8228 H   0  0  0  0  0  0  0  0  0  0  0  0
    0.1097   -0.9642   -0.8632 H   0  0  0  0  0  0  0  0  0  0  0  0
  1  2  1  0  0  0  0
  1 46  1  0  0  0  0
  1 47  1  0  0  0  0
  1 48  1  0  0  0  0
  2  3  2  0  0  0  0
  2  4  1  0  0  0  0
  5  4  1  0  0  0  0
  5  6  1  0  0  0  0
  5 49  1  6  0  0  0
  6  7  1  0  0  0  0
  6 50  1  0  0  0  0
  6 51  1  0  0  0  0
  7  8  1  0  0  0  0
  7 12  1  0  0  0  0
  7 52  1  1  0  0  0
  8  9  1  0  0  0  0
  9 10  1  0  0  0  0
  9 11  2  0  0  0  0
 10 53  1  0  0  0  0
 10 54  1  0  0  0  0
 10 55  1  0  0  0  0
 12 13  1  1  0  0  0
 12 14  1  0  0  0  0
 13 56  1  0  0  0  0
 13 57  1  0  0  0  0
 13 58  1  0  0  0  0
 14 15  1  0  0  0  0
 14 59  1  6  0  0  0
 15 16  1  0  0  0  0
 15 20  1  0  0  0  0
 15 60  1  1  0  0  0
 16 17  1  0  0  0  0
 17 18  1  0  0  0  0
 17 61  1  0  0  0  0
 17 62  1  0  0  0  0
 18 19  1  1  0  0  0
 18  5  1  0  0  0  0
 18 14  1  0  0  0  0
 19 63  1  0  0  0  0
 19 64  1  0  0  0  0
 19 65  1  0  0  0  0
 20 21  1  0  0  0  0
 20 28  1  0  0  0  0
 20 66  1  1  0  0  0
 21 22  1  0  0  0  0
 22 23  2  0  0  0  0
 22 24  1  0  0  0  0
 24 25  2  0  0  0  0
 24 67  1  0  0  0  0
 25 26  1  0  0  0  0
 25 27  1  0  0  0  0
 26 68  1  0  0  0  0
 26 69  1  0  0  0  0
 26 70  1  0  0  0  0
 27 71  1  0  0  0  0
 27 72  1  0  0  0  0
 27 73  1  0  0  0  0
 28 29  1  1  0  0  0
 28 30  1  0  0  0  0
 29 74  1  0  0  0  0
 29 75  1  0  0  0  0
 29 76  1  0  0  0  0
 30 31  2  0  0  0  0
 31 32  1  0  0  0  0
 31 33  1  0  0  0  0
 32 77  1  0  0  0  0
 32 78  1  0  0  0  0
 32 79  1  0  0  0  0
 33 34  1  0  0  0  0
 33 39  1  0  0  0  0
 33 80  1  6  0  0  0
 34 35  2  0  0  0  0
 35 36  1  0  0  0  0
 35 81  1  0  0  0  0
 36 37  1  0  0  0  0
 37 38  2  0  0  0  0
 37 82  1  0  0  0  0
 38 34  1  0  0  0  0
 38 83  1  0  0  0  0
 39 84  1  0  0  0  0
 39 85  1  0  0  0  0
 40 39  1  0  0  0  0
 40 41  1  0  0  0  0
 40 30  1  0  0  0  0
 40 86  1  6  0  0  0
 41 42  1  0  0  0  0
 42 43  2  0  0  0  0
 42 44  1  0  0  0  0
 44 87  1  0  0  0  0
 44 88  1  0  0  0  0
 45 44  1  0  0  0  0
 45 28  1  0  0  0  0
 45 12  1  0  0  0  0
 45 89  1  6  0  0  0
M  END
>  <IDENTIFIER>
CNP0322811.1

>  <Energy>
1182.29

$$$$
