
 OpenBabel09092506093D

 81 83  0  0  0  0  0  0  0  0999 V2000
   -4.3237   -0.0548   -2.5925 C   0  0  0  0  0  0  0  0  0  0  0  0
   -3.0655    0.3711   -2.7929 C   0  0  0  0  0  0  0  0  0  0  0  0
   -2.8152    1.8247   -2.9003 C   0  0  0  0  0  0  0  0  0  0  0  0
   -2.1853    2.6480   -2.0418 C   0  0  0  0  0  0  0  0  0  0  0  0
   -1.6427    2.3725   -0.6468 C   0  0  1  0  0  0  0  0  0  0  0  0
   -2.5668    1.6952    0.1302 O   0  0  0  0  0  0  0  0  0  0  0  0
   -3.2400    2.1909    1.2056 C   0  0  0  0  0  0  0  0  0  0  0  0
   -3.1059    3.3569    1.5517 O   0  0  0  0  0  0  0  0  0  0  0  0
   -4.1419    1.2649    1.9836 C   0  0  0  0  0  0  0  0  0  0  0  0
   -4.8167    1.9417    3.1761 C   0  0  0  0  0  0  0  0  0  0  0  0
   -0.1200    1.9098   -0.4100 C   0  0  1  0  0  0  0  0  0  0  0  0
    0.6690    1.7875   -1.7420 C   0  0  0  0  0  0  0  0  0  0  0  0
    0.5888    3.1336    0.2772 C   0  0  0  0  0  0  0  0  0  0  0  0
    2.0727    2.9054    0.6359 C   0  0  0  0  0  0  0  0  0  0  0  0
    2.3502    1.5339    1.2912 C   0  0  2  0  0  0  0  0  0  0  0  0
    3.0203    0.6965    0.4053 O   0  0  0  0  0  0  0  0  0  0  0  0
    4.2763    0.1990    0.6061 C   0  0  0  0  0  0  0  0  0  0  0  0
    4.8856    0.4463    1.6396 O   0  0  0  0  0  0  0  0  0  0  0  0
    4.9137   -0.6717   -0.4554 C   0  0  0  0  0  0  0  0  0  0  0  0
    5.0273    0.1024   -1.7716 C   0  0  0  0  0  0  0  0  0  0  0  0
    6.2957   -1.1918   -0.0274 C   0  0  0  0  0  0  0  0  0  0  0  0
    1.0432    0.8568    1.7834 C   0  0  1  0  0  0  0  0  0  0  0  0
    1.4092   -0.3605    2.6636 C   0  0  0  0  0  0  0  0  0  0  0  0
    0.3771    1.7324    2.6782 O   0  0  0  0  0  0  0  0  0  0  0  0
    0.0197    0.5823    0.5452 C   0  0  2  0  0  0  0  0  0  0  0  0
    0.0458   -0.8438   -0.2398 C   0  0  1  0  0  0  0  0  0  0  0  0
    0.6911   -1.7893    0.5338 O   0  0  0  0  0  0  0  0  0  0  0  0
    1.6935   -2.6266    0.1415 C   0  0  0  0  0  0  0  0  0  0  0  0
    2.2923   -3.5727    1.1335 C   0  0  0  0  0  0  0  0  0  0  0  0
    2.0792   -2.6503   -1.0190 O   0  0  0  0  0  0  0  0  0  0  0  0
   -1.3692   -1.5060   -0.6530 C   0  0  2  0  0  0  0  0  0  0  0  0
   -2.4617   -0.7944   -0.1381 O   0  0  0  0  0  0  0  0  0  0  0  0
   -1.5199   -3.0254   -0.2363 C   0  0  1  0  0  0  0  0  0  0  0  0
   -1.7547   -3.3911    1.2410 C   0  0  0  0  0  0  0  0  0  0  0  0
   -2.6233   -3.4388   -1.1364 C   0  0  0  0  0  0  0  0  0  0  0  0
   -3.5467   -4.1759   -0.8293 O   0  0  0  0  0  0  0  0  0  0  0  0
   -2.6606   -2.6599   -2.2218 O   0  0  0  0  0  0  0  0  0  0  0  0
   -1.6344   -1.7358   -2.1890 C   0  0  1  0  0  0  0  0  0  0  0  0
   -1.9497   -0.5834   -3.1639 C   0  0  1  0  0  0  0  0  0  0  0  0
   -2.3179   -1.2759   -4.7740 Cl  0  0  0  0  0  0  0  0  0  0  0  0
   -5.1289    0.6531   -2.4209 H   0  0  0  0  0  0  0  0  0  0  0  0
   -4.5749   -1.1091   -2.6065 H   0  0  0  0  0  0  0  0  0  0  0  0
   -3.2339    2.2901   -3.7892 H   0  0  0  0  0  0  0  0  0  0  0  0
   -2.1765    3.6928   -2.3515 H   0  0  0  0  0  0  0  0  0  0  0  0
   -1.6646    3.4266   -0.2949 H   0  0  0  0  0  0  0  0  0  0  0  0
   -3.5378    0.4173    2.3679 H   0  0  0  0  0  0  0  0  0  0  0  0
   -4.9230    0.8688    1.3003 H   0  0  0  0  0  0  0  0  0  0  0  0
   -4.0509    2.3191    3.8870 H   0  0  0  0  0  0  0  0  0  0  0  0
   -5.4588    1.2066    3.7060 H   0  0  0  0  0  0  0  0  0  0  0  0
   -5.4503    2.7871    2.8331 H   0  0  0  0  0  0  0  0  0  0  0  0
    0.6138    2.7270   -2.3336 H   0  0  0  0  0  0  0  0  0  0  0  0
    0.3062    1.0015   -2.3747 H   0  0  0  0  0  0  0  0  0  0  0  0
    1.7355    1.5411   -1.5868 H   0  0  0  0  0  0  0  0  0  0  0  0
    0.0309    3.3988    1.1964 H   0  0  0  0  0  0  0  0  0  0  0  0
    0.5312    4.0547   -0.3477 H   0  0  0  0  0  0  0  0  0  0  0  0
    2.3398    3.7259    1.3385 H   0  0  0  0  0  0  0  0  0  0  0  0
    2.7476    3.0359   -0.2376 H   0  0  0  0  0  0  0  0  0  0  0  0
    3.0034    1.7470    2.1679 H   0  0  0  0  0  0  0  0  0  0  0  0
    4.2650   -1.5523   -0.6181 H   0  0  0  0  0  0  0  0  0  0  0  0
    5.6774    0.9946   -1.6450 H   0  0  0  0  0  0  0  0  0  0  0  0
    4.0234    0.4336   -2.1124 H   0  0  0  0  0  0  0  0  0  0  0  0
    5.4610   -0.5485   -2.5610 H   0  0  0  0  0  0  0  0  0  0  0  0
    6.9997   -0.3491    0.1445 H   0  0  0  0  0  0  0  0  0  0  0  0
    6.7174   -1.8547   -0.8126 H   0  0  0  0  0  0  0  0  0  0  0  0
    6.2069   -1.7835    0.9094 H   0  0  0  0  0  0  0  0  0  0  0  0
    1.9547   -0.0230    3.5718 H   0  0  0  0  0  0  0  0  0  0  0  0
    2.1205   -1.0407    2.1718 H   0  0  0  0  0  0  0  0  0  0  0  0
    0.4945   -0.8943    2.9987 H   0  0  0  0  0  0  0  0  0  0  0  0
    1.0290    2.1016    3.3319 H   0  0  0  0  0  0  0  0  0  0  0  0
   -0.8727    0.4840    1.1821 H   0  0  0  0  0  0  0  0  0  0  0  0
    0.6584   -0.7380   -1.1528 H   0  0  0  0  0  0  0  0  0  0  0  0
    1.8126   -3.4480    2.1275 H   0  0  0  0  0  0  0  0  0  0  0  0
    3.3804   -3.3743    1.2321 H   0  0  0  0  0  0  0  0  0  0  0  0
    2.1362   -4.6190    0.7963 H   0  0  0  0  0  0  0  0  0  0  0  0
   -2.4805   -0.9256    0.8407 H   0  0  0  0  0  0  0  0  0  0  0  0
   -0.6293   -3.5845   -0.5967 H   0  0  0  0  0  0  0  0  0  0  0  0
   -2.7009   -2.9608    1.6265 H   0  0  0  0  0  0  0  0  0  0  0  0
   -0.9158   -3.0533    1.8798 H   0  0  0  0  0  0  0  0  0  0  0  0
   -1.8275   -4.4959    1.3339 H   0  0  0  0  0  0  0  0  0  0  0  0
   -0.7346   -2.2470   -2.6090 H   0  0  0  0  0  0  0  0  0  0  0  0
   -1.0530   -0.0102   -3.3619 H   0  0  0  0  0  0  0  0  0  0  0  0
  1  2  2  0  0  0  0
  1 41  1  0  0  0  0
  1 42  1  0  0  0  0
  2  3  1  0  0  0  0
  3  4  2  0  0  0  0
  3 43  1  0  0  0  0
  4  5  1  0  0  0  0
  4 44  1  0  0  0  0
  5  6  1  0  0  0  0
  5 11  1  0  0  0  0
  5 45  1  1  0  0  0
  6  7  1  0  0  0  0
  7  8  2  0  0  0  0
  7  9  1  0  0  0  0
  9 10  1  0  0  0  0
  9 46  1  0  0  0  0
  9 47  1  0  0  0  0
 10 48  1  0  0  0  0
 10 49  1  0  0  0  0
 10 50  1  0  0  0  0
 11 12  1  6  0  0  0
 11 13  1  0  0  0  0
 12 51  1  0  0  0  0
 12 52  1  0  0  0  0
 12 53  1  0  0  0  0
 13 14  1  0  0  0  0
 13 54  1  0  0  0  0
 13 55  1  0  0  0  0
 14 15  1  0  0  0  0
 14 56  1  0  0  0  0
 14 57  1  0  0  0  0
 15 16  1  0  0  0  0
 15 22  1  0  0  0  0
 15 58  1  1  0  0  0
 16 17  1  0  0  0  0
 17 18  2  0  0  0  0
 17 19  1  0  0  0  0
 19 20  1  0  0  0  0
 19 21  1  0  0  0  0
 19 59  1  0  0  0  0
 20 60  1  0  0  0  0
 20 61  1  0  0  0  0
 20 62  1  0  0  0  0
 21 63  1  0  0  0  0
 21 64  1  0  0  0  0
 21 65  1  0  0  0  0
 22 23  1  0  0  0  0
 22 24  1  1  0  0  0
 22 25  1  0  0  0  0
 23 66  1  0  0  0  0
 23 67  1  0  0  0  0
 23 68  1  0  0  0  0
 24 69  1  0  0  0  0
 25 26  1  0  0  0  0
 25 11  1  0  0  0  0
 25 70  1  1  0  0  0
 26 27  1  0  0  0  0
 26 31  1  0  0  0  0
 26 71  1  6  0  0  0
 27 28  1  0  0  0  0
 28 29  1  0  0  0  0
 28 30  2  0  0  0  0
 29 72  1  0  0  0  0
 29 73  1  0  0  0  0
 29 74  1  0  0  0  0
 31 32  1  1  0  0  0
 31 33  1  0  0  0  0
 32 75  1  0  0  0  0
 33 34  1  0  0  0  0
 33 35  1  0  0  0  0
 33 76  1  6  0  0  0
 34 77  1  0  0  0  0
 34 78  1  0  0  0  0
 34 79  1  0  0  0  0
 35 36  2  0  0  0  0
 35 37  1  0  0  0  0
 38 37  1  0  0  0  0
 38 39  1  0  0  0  0
 38 31  1  0  0  0  0
 38 80  1  6  0  0  0
 39 40  1  0  0  0  0
 39  2  1  0  0  0  0
 39 81  1  6  0  0  0
M  END
>  <IDENTIFIER>
CNP0194157.2

>  <Energy>
1342.36

$$$$
