
 OpenBabel09062506343D

 32 35  0  0  0  0  0  0  0  0999 V2000
   -3.1530   -3.3283    0.7105 O   0  0  0  0  0  0  0  0  0  0  0  0
   -2.6383   -2.2402    0.5129 C   0  0  0  0  0  0  0  0  0  0  0  0
   -3.0459   -1.0002    1.1495 C   0  0  0  0  0  0  0  0  0  0  0  0
   -2.2568   -0.0813    0.6277 C   0  0  0  0  0  0  0  0  0  0  0  0
   -2.2969    1.3818    0.8137 C   0  0  0  0  0  0  0  0  0  0  0  0
   -1.5556    2.1170   -0.0419 C   0  0  0  0  0  0  0  0  0  0  0  0
   -0.6708    1.4225   -1.0854 C   0  0  2  0  0  0  0  0  0  0  0  0
   -1.3577    0.1304   -1.6198 C   0  0  0  0  0  0  0  0  0  0  0  0
   -1.2771   -0.7050   -0.3338 C   0  0  2  0  0  0  0  0  0  0  0  0
   -1.6386   -2.0390   -0.3724 O   0  0  0  0  0  0  0  0  0  0  0  0
    0.1646   -0.4543    0.1416 C   0  0  1  0  0  0  0  0  0  0  0  0
    1.2660   -1.4281   -0.3310 C   0  0  0  0  0  0  0  0  0  0  0  0
    2.6750   -0.7392   -0.2655 C   0  0  2  0  0  0  0  0  0  0  0  0
    3.6729   -1.6639    0.0777 O   0  0  0  0  0  0  0  0  0  0  0  0
    2.6819    0.5097    0.6576 C   0  0  0  0  0  0  0  0  0  0  0  0
    1.6699    1.5494    0.0949 C   0  0  0  0  0  0  0  0  0  0  0  0
    0.4885    0.8460   -0.4156 N   0  0  2  0  0  0  0  0  0  0  0  0
   -3.8547   -0.8428    1.8506 H   0  0  0  0  0  0  0  0  0  0  0  0
   -2.9586    1.8504    1.5350 H   0  0  0  0  0  0  0  0  0  0  0  0
   -1.6147    3.2003   -0.0159 H   0  0  0  0  0  0  0  0  0  0  0  0
   -0.3651    2.1339   -1.8815 H   0  0  0  0  0  0  0  0  0  0  0  0
   -0.7221   -0.3319   -2.4081 H   0  0  0  0  0  0  0  0  0  0  0  0
   -2.3836    0.2834   -2.0220 H   0  0  0  0  0  0  0  0  0  0  0  0
    0.2010   -0.4253    1.2558 H   0  0  0  0  0  0  0  0  0  0  0  0
    1.1125   -1.7772   -1.3752 H   0  0  0  0  0  0  0  0  0  0  0  0
    1.2034   -2.3146    0.3372 H   0  0  0  0  0  0  0  0  0  0  0  0
    2.9135   -0.3439   -1.2783 H   0  0  0  0  0  0  0  0  0  0  0  0
    3.5075   -1.9334    1.0189 H   0  0  0  0  0  0  0  0  0  0  0  0
    3.6872    0.9758    0.7373 H   0  0  0  0  0  0  0  0  0  0  0  0
    2.3762    0.1849    1.6757 H   0  0  0  0  0  0  0  0  0  0  0  0
    2.1357    2.0684   -0.7701 H   0  0  0  0  0  0  0  0  0  0  0  0
    1.4062    2.3043    0.8654 H   0  0  0  0  0  0  0  0  0  0  0  0
  1  2  2  0  0  0  0
  2  3  1  0  0  0  0
  3  4  2  0  0  0  0
  3 18  1  0  0  0  0
  4  5  1  0  0  0  0
  5  6  2  0  0  0  0
  5 19  1  0  0  0  0
  6  7  1  0  0  0  0
  6 20  1  0  0  0  0
  7  8  1  0  0  0  0
  7 17  1  0  0  0  0
  7 21  1  6  0  0  0
  8  9  1  0  0  0  0
  8 22  1  0  0  0  0
  8 23  1  0  0  0  0
  9 10  1  6  0  0  0
  9 11  1  0  0  0  0
  9  4  1  0  0  0  0
 10  2  1  0  0  0  0
 11 12  1  0  0  0  0
 11 24  1  1  0  0  0
 12 13  1  0  0  0  0
 12 25  1  0  0  0  0
 12 26  1  0  0  0  0
 13 14  1  0  0  0  0
 13 15  1  0  0  0  0
 13 27  1  6  0  0  0
 14 28  1  0  0  0  0
 15 16  1  0  0  0  0
 15 29  1  0  0  0  0
 15 30  1  0  0  0  0
 16 31  1  0  0  0  0
 16 32  1  0  0  0  0
 17 16  1  1  0  0  0
 17 11  1  0  0  0  0
M  END
>  <IDENTIFIER>
CNP0287672.3

>  <Energy>
593.767

$$$$
