
 OpenBabel09082507333D

 80 84  0  0  0  0  0  0  0  0999 V2000
   -6.2123    3.0899   -2.5719 C   0  0  0  0  0  0  0  0  0  0  0  0
   -6.1458    2.8483   -1.2170 O   0  0  0  0  0  0  0  0  0  0  0  0
   -5.2717    1.9768   -0.6466 C   0  0  0  0  0  0  0  0  0  0  0  0
   -4.4466    1.3883   -1.3334 O   0  0  0  0  0  0  0  0  0  0  0  0
   -5.3414    1.7392    0.8467 C   0  0  1  0  0  0  0  0  0  0  0  0
   -6.7534    1.2520    1.2501 C   0  0  0  0  0  0  0  0  0  0  0  0
   -7.1493   -0.0785    0.6471 C   0  0  0  0  0  0  0  0  0  0  0  0
   -8.0378   -0.1254   -0.4415 C   0  0  0  0  0  0  0  0  0  0  0  0
   -8.4063   -1.3536   -0.9995 C   0  0  0  0  0  0  0  0  0  0  0  0
   -7.9030   -2.5439   -0.4684 C   0  0  0  0  0  0  0  0  0  0  0  0
   -7.0306   -2.5086    0.6219 C   0  0  0  0  0  0  0  0  0  0  0  0
   -6.6534   -1.2827    1.1778 C   0  0  0  0  0  0  0  0  0  0  0  0
   -4.3096    0.7917    1.2554 N   0  0  0  0  0  0  0  0  0  0  0  0
   -3.3339    1.0815    2.1644 C   0  0  0  0  0  0  0  0  0  0  0  0
   -3.3067    2.1699    2.7203 O   0  0  0  0  0  0  0  0  0  0  0  0
   -2.2566    0.0807    2.5077 C   0  0  0  0  0  0  0  0  0  0  0  0
   -2.3947   -1.0725    1.7675 O   0  0  0  0  0  0  0  0  0  0  0  0
   -1.5242   -2.0602    1.8555 N   0  0  0  0  0  0  0  0  0  0  0  0
   -0.4882   -2.1191    1.0902 C   0  0  0  0  0  0  0  0  0  0  0  0
   -0.1978   -1.0781    0.0708 C   0  0  0  0  0  0  0  0  0  0  0  0
    1.0261   -0.9882   -0.4971 C   0  0  0  0  0  0  0  0  0  0  0  0
    1.2602   -0.0191   -1.6308 C   0  0  0  0  0  0  0  0  0  0  0  0
    2.4353    0.8766   -1.2937 C   0  0  0  0  0  0  0  0  0  0  0  0
    3.7360    0.0729   -0.9970 C   0  0  1  0  0  0  0  0  0  0  0  0
    4.8146    1.1332   -0.6046 C   0  0  2  0  0  0  0  0  0  0  0  0
    5.5209    1.9198   -1.7137 C   0  0  0  0  0  0  0  0  0  0  0  0
    6.8413    2.3934   -1.0564 C   0  0  0  0  0  0  0  0  0  0  0  0
    6.7769    1.9181    0.4236 C   0  0  1  0  0  0  0  0  0  0  0  0
    6.1059    2.8638    1.2386 O   0  0  0  0  0  0  0  0  0  0  0  0
    5.9173    0.6266    0.3098 C   0  0  2  0  0  0  0  0  0  0  0  0
    6.7727   -0.5218   -0.3264 C   0  0  0  0  0  0  0  0  0  0  0  0
    5.2589    0.1518    1.6578 C   0  0  0  0  0  0  0  0  0  0  0  0
    3.7567   -0.2918    1.5201 C   0  0  0  0  0  0  0  0  0  0  0  0
    3.5192   -1.0029    0.1586 C   0  0  1  0  0  0  0  0  0  0  0  0
    2.2059   -1.8719   -0.0630 C   0  0  2  0  0  0  0  0  0  0  0  0
    2.4719   -2.8719   -1.2240 C   0  0  0  0  0  0  0  0  0  0  0  0
    1.8729   -2.6855    1.2418 C   0  0  0  0  0  0  0  0  0  0  0  0
    0.4698   -3.2710    1.2083 C   0  0  0  0  0  0  0  0  0  0  0  0
   -7.0092    3.8358   -2.7688 H   0  0  0  0  0  0  0  0  0  0  0  0
   -6.4588    2.1524   -3.1155 H   0  0  0  0  0  0  0  0  0  0  0  0
   -5.2436    3.4928   -2.9374 H   0  0  0  0  0  0  0  0  0  0  0  0
   -5.1874    2.7231    1.3419 H   0  0  0  0  0  0  0  0  0  0  0  0
   -7.4724    2.0340    0.9190 H   0  0  0  0  0  0  0  0  0  0  0  0
   -6.8532    1.1930    2.3551 H   0  0  0  0  0  0  0  0  0  0  0  0
   -8.4358    0.7877   -0.8663 H   0  0  0  0  0  0  0  0  0  0  0  0
   -9.0820   -1.3819   -1.8442 H   0  0  0  0  0  0  0  0  0  0  0  0
   -8.1919   -3.4937   -0.8995 H   0  0  0  0  0  0  0  0  0  0  0  0
   -6.6476   -3.4314    1.0382 H   0  0  0  0  0  0  0  0  0  0  0  0
   -5.9833   -1.2744    2.0284 H   0  0  0  0  0  0  0  0  0  0  0  0
   -4.3162   -0.1331    0.8035 H   0  0  0  0  0  0  0  0  0  0  0  0
   -2.3034   -0.1618    3.5912 H   0  0  0  0  0  0  0  0  0  0  0  0
   -1.2700    0.5408    2.2836 H   0  0  0  0  0  0  0  0  0  0  0  0
   -0.9896   -0.3994   -0.2341 H   0  0  0  0  0  0  0  0  0  0  0  0
    0.3615    0.6040   -1.8345 H   0  0  0  0  0  0  0  0  0  0  0  0
    1.4884   -0.5755   -2.5624 H   0  0  0  0  0  0  0  0  0  0  0  0
    2.1417    1.4807   -0.4065 H   0  0  0  0  0  0  0  0  0  0  0  0
    2.6088    1.5762   -2.1402 H   0  0  0  0  0  0  0  0  0  0  0  0
    4.0507   -0.4855   -1.9037 H   0  0  0  0  0  0  0  0  0  0  0  0
    4.2993    1.9029    0.0214 H   0  0  0  0  0  0  0  0  0  0  0  0
    4.8779    2.7448   -2.0873 H   0  0  0  0  0  0  0  0  0  0  0  0
    5.7829    1.2486   -2.5615 H   0  0  0  0  0  0  0  0  0  0  0  0
    7.0877    3.4662   -1.2051 H   0  0  0  0  0  0  0  0  0  0  0  0
    7.6701    1.8423   -1.5495 H   0  0  0  0  0  0  0  0  0  0  0  0
    7.7841    1.7635    0.8676 H   0  0  0  0  0  0  0  0  0  0  0  0
    6.0180    3.7316    0.7669 H   0  0  0  0  0  0  0  0  0  0  0  0
    7.6079   -0.7788    0.3593 H   0  0  0  0  0  0  0  0  0  0  0  0
    7.2191   -0.2541   -1.3012 H   0  0  0  0  0  0  0  0  0  0  0  0
    6.2202   -1.4515   -0.5212 H   0  0  0  0  0  0  0  0  0  0  0  0
    5.2599    0.9415    2.4377 H   0  0  0  0  0  0  0  0  0  0  0  0
    5.8788   -0.6739    2.0711 H   0  0  0  0  0  0  0  0  0  0  0  0
    3.0741    0.5833    1.5706 H   0  0  0  0  0  0  0  0  0  0  0  0
    3.5686   -0.9100    2.4162 H   0  0  0  0  0  0  0  0  0  0  0  0
    4.3193   -1.7606    0.1768 H   0  0  0  0  0  0  0  0  0  0  0  0
    3.2937   -3.5700   -0.9565 H   0  0  0  0  0  0  0  0  0  0  0  0
    2.7721   -2.3641   -2.1610 H   0  0  0  0  0  0  0  0  0  0  0  0
    1.5729   -3.4754   -1.4614 H   0  0  0  0  0  0  0  0  0  0  0  0
    1.8494   -2.0290    2.1317 H   0  0  0  0  0  0  0  0  0  0  0  0
    2.6392   -3.4717    1.4165 H   0  0  0  0  0  0  0  0  0  0  0  0
    0.2532   -3.8717    2.1184 H   0  0  0  0  0  0  0  0  0  0  0  0
    0.3639   -3.9389    0.3308 H   0  0  0  0  0  0  0  0  0  0  0  0
  1  2  1  0  0  0  0
  1 39  1  0  0  0  0
  1 40  1  0  0  0  0
  1 41  1  0  0  0  0
  2  3  1  0  0  0  0
  3  4  2  0  0  0  0
  3  5  1  0  0  0  0
  5  6  1  0  0  0  0
  5 13  1  0  0  0  0
  5 42  1  1  0  0  0
  6  7  1  0  0  0  0
  6 43  1  0  0  0  0
  6 44  1  0  0  0  0
  7  8  2  0  0  0  0
  8  9  1  0  0  0  0
  8 45  1  0  0  0  0
  9 10  2  0  0  0  0
  9 46  1  0  0  0  0
 10 11  1  0  0  0  0
 10 47  1  0  0  0  0
 11 12  2  0  0  0  0
 11 48  1  0  0  0  0
 12  7  1  0  0  0  0
 12 49  1  0  0  0  0
 13 14  1  0  0  0  0
 13 50  1  0  0  0  0
 14 15  2  0  0  0  0
 14 16  1  0  0  0  0
 16 17  1  0  0  0  0
 16 51  1  0  0  0  0
 16 52  1  0  0  0  0
 17 18  1  0  0  0  0
 18 19  2  0  0  0  0
 19 20  1  0  0  0  0
 20 21  2  0  0  0  0
 20 53  1  0  0  0  0
 21 22  1  0  0  0  0
 22 23  1  0  0  0  0
 22 54  1  0  0  0  0
 22 55  1  0  0  0  0
 23 56  1  0  0  0  0
 23 57  1  0  0  0  0
 24 23  1  0  0  0  0
 24 25  1  0  0  0  0
 24 58  1  6  0  0  0
 25 26  1  0  0  0  0
 25 59  1  1  0  0  0
 26 27  1  0  0  0  0
 26 60  1  0  0  0  0
 26 61  1  0  0  0  0
 27 28  1  0  0  0  0
 27 62  1  0  0  0  0
 27 63  1  0  0  0  0
 28 29  1  0  0  0  0
 28 30  1  0  0  0  0
 28 64  1  1  0  0  0
 29 65  1  0  0  0  0
 30 31  1  6  0  0  0
 30 32  1  0  0  0  0
 30 25  1  0  0  0  0
 31 66  1  0  0  0  0
 31 67  1  0  0  0  0
 31 68  1  0  0  0  0
 32 33  1  0  0  0  0
 32 69  1  0  0  0  0
 32 70  1  0  0  0  0
 33 71  1  0  0  0  0
 33 72  1  0  0  0  0
 34 33  1  0  0  0  0
 34 35  1  0  0  0  0
 34 24  1  0  0  0  0
 34 73  1  6  0  0  0
 35 36  1  6  0  0  0
 35 37  1  0  0  0  0
 35 21  1  0  0  0  0
 36 74  1  0  0  0  0
 36 75  1  0  0  0  0
 36 76  1  0  0  0  0
 37 38  1  0  0  0  0
 37 77  1  0  0  0  0
 37 78  1  0  0  0  0
 38 19  1  0  0  0  0
 38 79  1  0  0  0  0
 38 80  1  0  0  0  0
M  END
>  <IDENTIFIER>
CNP0365631.1

>  <Energy>
871.199

$$$$
