
 OpenBabel09112502363D

 39 44  0  0  0  0  0  0  0  0999 V2000
   -0.7551    1.2071    0.1827 C   0  0  0  0  0  0  0  0  0  0  0  0
   -1.9009    0.5386    0.4042 C   0  0  0  0  0  0  0  0  0  0  0  0
   -2.7631    0.9586    1.4466 C   0  0  0  0  0  0  0  0  0  0  0  0
   -3.9472    0.2565    1.6422 C   0  0  0  0  0  0  0  0  0  0  0  0
   -4.9015    0.4742    2.5508 O   0  0  0  0  0  0  0  0  0  0  0  0
   -5.8947   -0.4821    2.3532 C   0  0  0  0  0  0  0  0  0  0  0  0
   -5.4721   -1.2711    1.2860 O   0  0  0  0  0  0  0  0  0  0  0  0
   -4.2916   -0.7982    0.8794 C   0  0  0  0  0  0  0  0  0  0  0  0
   -3.4863   -1.2594   -0.1550 C   0  0  0  0  0  0  0  0  0  0  0  0
   -2.2678   -0.5834   -0.4038 C   0  0  0  0  0  0  0  0  0  0  0  0
   -1.4689   -1.0036   -1.3985 C   0  0  0  0  0  0  0  0  0  0  0  0
   -0.2374   -0.3452   -1.6875 N   0  0  0  0  0  0  0  0  0  0  0  0
    0.6298   -0.9036   -2.7315 C   0  0  0  0  0  0  0  0  0  0  0  0
    1.9444   -0.1056   -2.8557 C   0  0  0  0  0  0  0  0  0  0  0  0
    2.5140    0.0769   -1.4715 C   0  0  0  0  0  0  0  0  0  0  0  0
    3.8519   -0.2377   -1.1622 C   0  0  0  0  0  0  0  0  0  0  0  0
    4.2680   -0.0449    0.1519 C   0  0  0  0  0  0  0  0  0  0  0  0
    3.4349    0.4065    1.1148 C   0  0  0  0  0  0  0  0  0  0  0  0
    2.0986    0.7129    0.8638 C   0  0  0  0  0  0  0  0  0  0  0  0
    1.6292    0.5540   -0.4625 C   0  0  0  0  0  0  0  0  0  0  0  0
    0.2065    0.8251   -0.9224 C   0  0  2  0  0  0  0  0  0  0  0  0
    4.1031    0.4921    2.2681 O   0  0  0  0  0  0  0  0  0  0  0  0
    5.4133    0.0846    2.0268 C   0  0  0  0  0  0  0  0  0  0  0  0
    5.4775   -0.2534    0.6772 O   0  0  0  0  0  0  0  0  0  0  0  0
   -0.5042    2.0700    0.7955 H   0  0  0  0  0  0  0  0  0  0  0  0
   -2.5240    1.8035    2.0817 H   0  0  0  0  0  0  0  0  0  0  0  0
   -6.8572    0.0132    2.1041 H   0  0  0  0  0  0  0  0  0  0  0  0
   -6.0119   -1.1056    3.2649 H   0  0  0  0  0  0  0  0  0  0  0  0
   -3.8003   -2.1116   -0.7466 H   0  0  0  0  0  0  0  0  0  0  0  0
   -1.7582   -1.8628   -2.0003 H   0  0  0  0  0  0  0  0  0  0  0  0
    0.1046   -0.9153   -3.7107 H   0  0  0  0  0  0  0  0  0  0  0  0
    0.8820   -1.9502   -2.4512 H   0  0  0  0  0  0  0  0  0  0  0  0
    1.7025    0.8993   -3.2639 H   0  0  0  0  0  0  0  0  0  0  0  0
    2.6576   -0.5924   -3.5550 H   0  0  0  0  0  0  0  0  0  0  0  0
    4.5374   -0.6077   -1.9137 H   0  0  0  0  0  0  0  0  0  0  0  0
    1.4650    1.0641    1.6662 H   0  0  0  0  0  0  0  0  0  0  0  0
    0.2527    1.6902   -1.6188 H   0  0  0  0  0  0  0  0  0  0  0  0
    5.6605   -0.7982    2.6533 H   0  0  0  0  0  0  0  0  0  0  0  0
    6.1176    0.9157    2.2450 H   0  0  0  0  0  0  0  0  0  0  0  0
  1  2  2  0  0  0  0
  1 25  1  0  0  0  0
  2  3  1  0  0  0  0
  3  4  2  0  0  0  0
  3 26  1  0  0  0  0
  4  5  1  0  0  0  0
  5  6  1  0  0  0  0
  6  7  1  0  0  0  0
  6 27  1  0  0  0  0
  6 28  1  0  0  0  0
  7  8  1  0  0  0  0
  8  9  2  0  0  0  0
  8  4  1  0  0  0  0
  9 10  1  0  0  0  0
  9 29  1  0  0  0  0
 10 11  2  0  0  0  0
 10  2  1  0  0  0  0
 11 12  1  0  0  0  0
 11 30  1  0  0  0  0
 12 13  1  0  0  0  0
 13 14  1  0  0  0  0
 13 31  1  0  0  0  0
 13 32  1  0  0  0  0
 14 15  1  0  0  0  0
 14 33  1  0  0  0  0
 14 34  1  0  0  0  0
 15 16  2  0  0  0  0
 16 17  1  0  0  0  0
 16 35  1  0  0  0  0
 17 18  2  0  0  0  0
 18 19  1  0  0  0  0
 18 22  1  0  0  0  0
 19 20  2  0  0  0  0
 19 36  1  0  0  0  0
 20 21  1  0  0  0  0
 20 15  1  0  0  0  0
 21  1  1  0  0  0  0
 21 12  1  0  0  0  0
 21 37  1  6  0  0  0
 22 23  1  0  0  0  0
 23 24  1  0  0  0  0
 23 38  1  0  0  0  0
 23 39  1  0  0  0  0
 24 17  1  0  0  0  0
M  END
>  <IDENTIFIER>
CNP0571033.0

>  <Energy>
457.051

$$$$
