
 OpenBabel09122502123D

 65 68  0  0  0  0  0  0  0  0999 V2000
    6.3688    2.2611    2.8464 C   0  0  0  0  0  0  0  0  0  0  0  0
    5.9419    1.4629    1.6190 C   0  0  0  0  0  0  0  0  0  0  0  0
    6.9501    1.6329    0.4701 C   0  0  0  0  0  0  0  0  0  0  0  0
    6.6160    0.7659   -0.7546 C   0  0  0  0  0  0  0  0  0  0  0  0
    5.2829    1.1477   -1.4195 C   0  0  0  0  0  0  0  0  0  0  0  0
    4.9772    0.3236   -2.6826 C   0  0  0  0  0  0  0  0  0  0  0  0
    4.8578   -1.1908   -2.4208 C   0  0  0  0  0  0  0  0  0  0  0  0
    3.9644   -1.4697   -1.4032 O   0  0  0  0  0  0  0  0  0  0  0  0
    2.6183   -1.2961   -1.4148 C   0  0  0  0  0  0  0  0  0  0  0  0
    1.8972   -0.9584   -2.5752 C   0  0  0  0  0  0  0  0  0  0  0  0
    0.5113   -0.7894   -2.5207 C   0  0  0  0  0  0  0  0  0  0  0  0
   -0.1848   -0.9701   -1.3159 C   0  0  0  0  0  0  0  0  0  0  0  0
   -1.6608   -0.7797   -1.3141 C   0  0  0  0  0  0  0  0  0  0  0  0
   -2.4559   -1.1381   -0.2906 C   0  0  0  0  0  0  0  0  0  0  0  0
   -3.9561   -0.8868   -0.2904 C   0  0  2  0  0  0  0  0  0  0  0  0
   -4.5542   -1.3155   -1.5330 N   0  0  0  0  0  0  0  0  0  0  0  0
   -5.0160   -0.2396   -2.2031 C   0  0  0  0  0  0  0  0  0  0  0  0
   -5.5527   -0.3184   -3.2961 O   0  0  0  0  0  0  0  0  0  0  0  0
   -4.7729    1.0352   -1.4661 C   0  0  0  0  0  0  0  0  0  0  0  0
   -4.1358    0.5486   -0.2634 N   0  0  0  0  0  0  0  0  0  0  0  0
   -4.5207    0.9264    1.0348 C   0  0  0  0  0  0  0  0  0  0  0  0
   -4.6263    2.2301    1.5205 C   0  0  0  0  0  0  0  0  0  0  0  0
   -4.9904    2.4118    2.8647 C   0  0  0  0  0  0  0  0  0  0  0  0
   -5.2614    1.2986    3.6847 C   0  0  0  0  0  0  0  0  0  0  0  0
   -5.1811   -0.0023    3.1628 C   0  0  0  0  0  0  0  0  0  0  0  0
   -4.7901   -0.1639    1.8302 C   0  0  0  0  0  0  0  0  0  0  0  0
   -4.7211   -1.4172    1.0043 C   0  0  0  0  0  0  0  0  0  0  0  0
   -6.1807   -1.8196    0.6791 C   0  0  0  0  0  0  0  0  0  0  0  0
   -4.0583   -2.6056    1.7416 C   0  0  0  0  0  0  0  0  0  0  0  0
    0.5456   -1.3130   -0.1574 C   0  0  0  0  0  0  0  0  0  0  0  0
    1.9295   -1.4693   -0.2131 C   0  0  0  0  0  0  0  0  0  0  0  0
    5.6241    2.1189    3.6584 H   0  0  0  0  0  0  0  0  0  0  0  0
    6.4284    3.3434    2.6018 H   0  0  0  0  0  0  0  0  0  0  0  0
    7.3586    1.9103    3.2078 H   0  0  0  0  0  0  0  0  0  0  0  0
    4.9373    1.8177    1.3099 H   0  0  0  0  0  0  0  0  0  0  0  0
    5.8736    0.3891    1.8991 H   0  0  0  0  0  0  0  0  0  0  0  0
    7.9536    1.3204    0.8340 H   0  0  0  0  0  0  0  0  0  0  0  0
    7.0068    2.7021    0.1695 H   0  0  0  0  0  0  0  0  0  0  0  0
    6.5993   -0.2960   -0.4319 H   0  0  0  0  0  0  0  0  0  0  0  0
    7.4302    0.8934   -1.5010 H   0  0  0  0  0  0  0  0  0  0  0  0
    5.3231    2.2201   -1.7110 H   0  0  0  0  0  0  0  0  0  0  0  0
    4.4430    1.0156   -0.7072 H   0  0  0  0  0  0  0  0  0  0  0  0
    5.7666    0.4929   -3.4462 H   0  0  0  0  0  0  0  0  0  0  0  0
    4.0247    0.7065   -3.1013 H   0  0  0  0  0  0  0  0  0  0  0  0
    5.8498   -1.5823   -2.1187 H   0  0  0  0  0  0  0  0  0  0  0  0
    4.5724   -1.7315   -3.3479 H   0  0  0  0  0  0  0  0  0  0  0  0
    2.3921   -0.8273   -3.5266 H   0  0  0  0  0  0  0  0  0  0  0  0
   -0.0208   -0.5283   -3.4273 H   0  0  0  0  0  0  0  0  0  0  0  0
   -2.1150   -0.3359   -2.1967 H   0  0  0  0  0  0  0  0  0  0  0  0
   -2.0058   -1.6080    0.5584 H   0  0  0  0  0  0  0  0  0  0  0  0
   -4.6051   -2.2878   -1.8699 H   0  0  0  0  0  0  0  0  0  0  0  0
   -5.7245    1.5659   -1.2416 H   0  0  0  0  0  0  0  0  0  0  0  0
   -4.0826    1.6901   -2.0384 H   0  0  0  0  0  0  0  0  0  0  0  0
   -4.4135    3.0795    0.8843 H   0  0  0  0  0  0  0  0  0  0  0  0
   -5.0634    3.4112    3.2728 H   0  0  0  0  0  0  0  0  0  0  0  0
   -5.5465    1.4463    4.7181 H   0  0  0  0  0  0  0  0  0  0  0  0
   -5.4161   -0.8583    3.7813 H   0  0  0  0  0  0  0  0  0  0  0  0
   -6.7373   -2.0718    1.6079 H   0  0  0  0  0  0  0  0  0  0  0  0
   -6.2023   -2.7112    0.0166 H   0  0  0  0  0  0  0  0  0  0  0  0
   -6.7218   -0.9912    0.1710 H   0  0  0  0  0  0  0  0  0  0  0  0
   -4.6880   -2.9295    2.5973 H   0  0  0  0  0  0  0  0  0  0  0  0
   -3.0784   -2.3440    2.1847 H   0  0  0  0  0  0  0  0  0  0  0  0
   -3.9427   -3.4678    1.0504 H   0  0  0  0  0  0  0  0  0  0  0  0
    0.0762   -1.4485    0.8043 H   0  0  0  0  0  0  0  0  0  0  0  0
    2.4714   -1.7242    0.6896 H   0  0  0  0  0  0  0  0  0  0  0  0
  1  2  1  0  0  0  0
  1 32  1  0  0  0  0
  1 33  1  0  0  0  0
  1 34  1  0  0  0  0
  2  3  1  0  0  0  0
  2 35  1  0  0  0  0
  2 36  1  0  0  0  0
  3  4  1  0  0  0  0
  3 37  1  0  0  0  0
  3 38  1  0  0  0  0
  4  5  1  0  0  0  0
  4 39  1  0  0  0  0
  4 40  1  0  0  0  0
  5  6  1  0  0  0  0
  5 41  1  0  0  0  0
  5 42  1  0  0  0  0
  6  7  1  0  0  0  0
  6 43  1  0  0  0  0
  6 44  1  0  0  0  0
  7  8  1  0  0  0  0
  7 45  1  0  0  0  0
  7 46  1  0  0  0  0
  8  9  1  0  0  0  0
  9 10  2  0  0  0  0
 10 11  1  0  0  0  0
 10 47  1  0  0  0  0
 11 12  2  0  0  0  0
 11 48  1  0  0  0  0
 12 13  1  0  0  0  0
 12 30  1  0  0  0  0
 13 14  2  0  0  0  0
 13 49  1  0  0  0  0
 14 50  1  0  0  0  0
 15 14  1  1  0  0  0
 15 16  1  0  0  0  0
 16 17  1  0  0  0  0
 16 51  1  0  0  0  0
 17 18  2  0  0  0  0
 17 19  1  0  0  0  0
 19 20  1  0  0  0  0
 19 52  1  0  0  0  0
 19 53  1  0  0  0  0
 20 21  1  0  0  0  0
 20 15  1  0  0  0  0
 21 22  2  0  0  0  0
 22 23  1  0  0  0  0
 22 54  1  0  0  0  0
 23 24  2  0  0  0  0
 23 55  1  0  0  0  0
 24 25  1  0  0  0  0
 24 56  1  0  0  0  0
 25 26  2  0  0  0  0
 25 57  1  0  0  0  0
 26 27  1  0  0  0  0
 26 21  1  0  0  0  0
 27 28  1  0  0  0  0
 27 29  1  0  0  0  0
 27 15  1  0  0  0  0
 28 58  1  0  0  0  0
 28 59  1  0  0  0  0
 28 60  1  0  0  0  0
 29 61  1  0  0  0  0
 29 62  1  0  0  0  0
 29 63  1  0  0  0  0
 30 31  2  0  0  0  0
 30 64  1  0  0  0  0
 31  9  1  0  0  0  0
 31 65  1  0  0  0  0
M  END
>  <IDENTIFIER>
CNP0291239.1

>  <Energy>
545.282

$$$$
