
 OpenBabel09102510243D

 48 48  0  0  0  0  0  0  0  0999 V2000
    6.0297    1.2217    1.5267 C   0  0  0  0  0  0  0  0  0  0  0  0
    6.1756   -0.2874    1.3180 C   0  0  0  0  0  0  0  0  0  0  0  0
    5.4405   -0.8047    0.0693 C   0  0  0  0  0  0  0  0  0  0  0  0
    3.9196   -0.6223    0.1568 C   0  0  0  0  0  0  0  0  0  0  0  0
    3.2133   -1.1837   -1.0877 C   0  0  0  0  0  0  0  0  0  0  0  0
    1.6817   -1.0880   -0.9841 C   0  0  0  0  0  0  0  0  0  0  0  0
    1.1634    0.3644   -0.9421 C   0  0  0  0  0  0  0  0  0  0  0  0
   -0.3691    0.4599   -0.8516 C   0  0  0  0  0  0  0  0  0  0  0  0
   -0.9094   -0.0968    0.4831 C   0  0  0  0  0  0  0  0  0  0  0  0
   -2.4344    0.0237    0.6860 C   0  0  1  0  0  0  0  0  0  0  0  0
   -2.9326    1.4853    0.7162 C   0  0  0  0  0  0  0  0  0  0  0  0
   -4.4411    1.4980    1.0162 C   0  0  1  0  0  0  0  0  0  0  0  0
   -4.9400    2.8114    1.0418 O   0  0  0  0  0  0  0  0  0  0  0  0
   -5.1963    0.6385   -0.0115 C   0  0  0  0  0  0  0  0  0  0  0  0
   -4.6123   -0.7905   -0.0246 C   0  0  1  0  0  0  0  0  0  0  0  0
   -5.3362   -1.6657   -1.0492 C   0  0  0  0  0  0  0  0  0  0  0  0
   -3.1695   -0.7554   -0.3286 N   0  0  0  0  0  0  0  0  0  0  0  0
    6.6302    1.5321    2.4079 H   0  0  0  0  0  0  0  0  0  0  0  0
    4.9766    1.5036    1.7246 H   0  0  0  0  0  0  0  0  0  0  0  0
    6.3973    1.7708    0.6341 H   0  0  0  0  0  0  0  0  0  0  0  0
    5.8092   -0.8220    2.2215 H   0  0  0  0  0  0  0  0  0  0  0  0
    7.2570   -0.5133    1.1971 H   0  0  0  0  0  0  0  0  0  0  0  0
    5.6613   -1.8902   -0.0311 H   0  0  0  0  0  0  0  0  0  0  0  0
    5.8322   -0.2848   -0.8319 H   0  0  0  0  0  0  0  0  0  0  0  0
    3.6941    0.4565    0.2432 H   0  0  0  0  0  0  0  0  0  0  0  0
    3.5437   -1.1497    1.0606 H   0  0  0  0  0  0  0  0  0  0  0  0
    3.4774   -2.2597   -1.1876 H   0  0  0  0  0  0  0  0  0  0  0  0
    3.5638   -0.6535   -2.0002 H   0  0  0  0  0  0  0  0  0  0  0  0
    1.3713   -1.6484   -0.0795 H   0  0  0  0  0  0  0  0  0  0  0  0
    1.2403   -1.5899   -1.8727 H   0  0  0  0  0  0  0  0  0  0  0  0
    1.4915    0.8764   -1.8734 H   0  0  0  0  0  0  0  0  0  0  0  0
    1.5852    0.9153   -0.0773 H   0  0  0  0  0  0  0  0  0  0  0  0
   -0.8183   -0.0701   -1.7171 H   0  0  0  0  0  0  0  0  0  0  0  0
   -0.6299    1.5365   -0.9240 H   0  0  0  0  0  0  0  0  0  0  0  0
   -0.4063    0.4362    1.3200 H   0  0  0  0  0  0  0  0  0  0  0  0
   -0.6614   -1.1744    0.5643 H   0  0  0  0  0  0  0  0  0  0  0  0
   -2.6333   -0.4234    1.6878 H   0  0  0  0  0  0  0  0  0  0  0  0
   -2.7532    1.9708   -0.2666 H   0  0  0  0  0  0  0  0  0  0  0  0
   -2.3937    2.0589    1.5015 H   0  0  0  0  0  0  0  0  0  0  0  0
   -4.6003    1.0556    2.0253 H   0  0  0  0  0  0  0  0  0  0  0  0
   -4.7991    3.2051    0.1411 H   0  0  0  0  0  0  0  0  0  0  0  0
   -5.0896    1.0905   -1.0228 H   0  0  0  0  0  0  0  0  0  0  0  0
   -6.2767    0.6089    0.2496 H   0  0  0  0  0  0  0  0  0  0  0  0
   -4.7631   -1.2555    0.9764 H   0  0  0  0  0  0  0  0  0  0  0  0
   -5.2213   -1.2482   -2.0725 H   0  0  0  0  0  0  0  0  0  0  0  0
   -6.4179   -1.7271   -0.8042 H   0  0  0  0  0  0  0  0  0  0  0  0
   -4.9121   -2.6924   -1.0326 H   0  0  0  0  0  0  0  0  0  0  0  0
   -3.0287   -0.3324   -1.2764 H   0  0  0  0  0  0  0  0  0  0  0  0
  1  2  1  0  0  0  0
  1 18  1  0  0  0  0
  1 19  1  0  0  0  0
  1 20  1  0  0  0  0
  2  3  1  0  0  0  0
  2 21  1  0  0  0  0
  2 22  1  0  0  0  0
  3  4  1  0  0  0  0
  3 23  1  0  0  0  0
  3 24  1  0  0  0  0
  4  5  1  0  0  0  0
  4 25  1  0  0  0  0
  4 26  1  0  0  0  0
  5  6  1  0  0  0  0
  5 27  1  0  0  0  0
  5 28  1  0  0  0  0
  6  7  1  0  0  0  0
  6 29  1  0  0  0  0
  6 30  1  0  0  0  0
  7  8  1  0  0  0  0
  7 31  1  0  0  0  0
  7 32  1  0  0  0  0
  8  9  1  0  0  0  0
  8 33  1  0  0  0  0
  8 34  1  0  0  0  0
  9 35  1  0  0  0  0
  9 36  1  0  0  0  0
 10  9  1  0  0  0  0
 10 11  1  0  0  0  0
 10 37  1  1  0  0  0
 11 12  1  0  0  0  0
 11 38  1  0  0  0  0
 11 39  1  0  0  0  0
 12 13  1  0  0  0  0
 12 14  1  0  0  0  0
 12 40  1  1  0  0  0
 13 41  1  0  0  0  0
 14 15  1  0  0  0  0
 14 42  1  0  0  0  0
 14 43  1  0  0  0  0
 15 16  1  0  0  0  0
 15 17  1  0  0  0  0
 15 44  1  1  0  0  0
 16 45  1  0  0  0  0
 16 46  1  0  0  0  0
 16 47  1  0  0  0  0
 17 10  1  0  0  0  0
 17 48  1  0  0  0  0
M  END
>  <IDENTIFIER>
CNP0280888.1

>  <Energy>
142.296

$$$$
