
 OpenBabel09112500573D

 68 71  0  0  0  0  0  0  0  0999 V2000
   -1.8245   -1.0067   -2.7684 C   0  0  0  0  0  0  0  0  0  0  0  0
   -1.8570   -0.1236   -1.5042 C   0  0  1  0  0  0  0  0  0  0  0  0
   -0.6474    0.8673   -1.3637 C   0  0  2  0  0  0  0  0  0  0  0  0
    0.8127    0.3193   -1.6430 C   0  0  1  0  0  0  0  0  0  0  0  0
    1.4225    1.0137   -2.7097 O   0  0  0  0  0  0  0  0  0  0  0  0
    1.7371    0.3196   -0.4071 C   0  0  1  0  0  0  0  0  0  0  0  0
    3.1840   -0.2405   -0.6681 C   0  0  2  0  0  0  0  0  0  0  0  0
    3.1530   -1.5675   -1.4624 C   0  0  0  0  0  0  0  0  0  0  0  0
    3.9582   -0.4584    0.6344 C   0  0  0  0  0  0  0  0  0  0  0  0
    4.1655   -1.6008    1.0265 O   0  0  0  0  0  0  0  0  0  0  0  0
    4.4563    0.5931    1.3464 N   0  0  0  0  0  0  0  0  0  0  0  0
    5.2120    0.4159    2.5742 C   0  0  0  0  0  0  0  0  0  0  0  0
    6.4744   -0.3522    2.3150 C   0  0  0  0  0  0  0  0  0  0  0  0
    7.4970    0.0337    1.4581 C   0  0  0  0  0  0  0  0  0  0  0  0
    8.5470   -0.8907    1.4068 C   0  0  0  0  0  0  0  0  0  0  0  0
    8.3510   -1.9993    2.2205 C   0  0  0  0  0  0  0  0  0  0  0  0
    6.8739   -1.8318    3.0085 S   0  0  0  0  0  0  0  0  0  0  0  0
    1.7494    1.7338    0.2672 C   0  0  0  0  0  0  0  0  0  0  0  0
    0.4430    2.5693    0.1187 C   0  0  0  0  0  0  0  0  0  0  0  0
   -0.8179    1.6946   -0.0142 C   0  0  2  0  0  0  0  0  0  0  0  0
   -0.9649    0.8562    1.3026 C   0  0  0  0  0  0  0  0  0  0  0  0
   -2.1236    2.5761   -0.1067 C   0  0  0  0  0  0  0  0  0  0  0  0
   -3.0696    2.1818   -1.2573 C   0  0  0  0  0  0  0  0  0  0  0  0
   -3.2319    0.6573   -1.4690 C   0  0  2  0  0  0  0  0  0  0  0  0
   -4.1416    0.0740   -0.4870 N   0  0  0  0  0  0  0  0  0  0  0  0
   -5.3142   -0.5412   -0.8332 C   0  0  0  0  0  0  0  0  0  0  0  0
   -5.6270   -0.6182   -2.0141 O   0  0  0  0  0  0  0  0  0  0  0  0
   -6.2411   -1.1446    0.1811 C   0  0  0  0  0  0  0  0  0  0  0  0
   -5.9966   -1.1018    1.5708 C   0  0  0  0  0  0  0  0  0  0  0  0
   -6.9054   -1.6874    2.4568 C   0  0  0  0  0  0  0  0  0  0  0  0
   -8.0240   -2.2984    1.9887 N   0  0  0  0  0  0  0  0  0  0  0  0
   -8.2942   -2.3602    0.6605 C   0  0  0  0  0  0  0  0  0  0  0  0
   -7.4158   -1.7885   -0.2610 C   0  0  0  0  0  0  0  0  0  0  0  0
   -0.9544   -1.6884   -2.7945 H   0  0  0  0  0  0  0  0  0  0  0  0
   -1.8221   -0.3781   -3.6835 H   0  0  0  0  0  0  0  0  0  0  0  0
   -2.7222   -1.6619   -2.7848 H   0  0  0  0  0  0  0  0  0  0  0  0
   -1.8060   -0.8310   -0.6502 H   0  0  0  0  0  0  0  0  0  0  0  0
   -0.7647    1.5710   -2.2137 H   0  0  0  0  0  0  0  0  0  0  0  0
    0.7221   -0.7208   -1.9825 H   0  0  0  0  0  0  0  0  0  0  0  0
    1.5652    1.9541   -2.4338 H   0  0  0  0  0  0  0  0  0  0  0  0
    1.2632   -0.4164    0.2606 H   0  0  0  0  0  0  0  0  0  0  0  0
    3.7612    0.4681   -1.3019 H   0  0  0  0  0  0  0  0  0  0  0  0
    2.5616   -2.3398   -0.9248 H   0  0  0  0  0  0  0  0  0  0  0  0
    4.1881   -1.9447   -1.6105 H   0  0  0  0  0  0  0  0  0  0  0  0
    2.7333   -1.4251   -2.4786 H   0  0  0  0  0  0  0  0  0  0  0  0
    4.3158    1.5542    1.0085 H   0  0  0  0  0  0  0  0  0  0  0  0
    4.5834   -0.1140    3.3221 H   0  0  0  0  0  0  0  0  0  0  0  0
    5.4852    1.4091    2.9911 H   0  0  0  0  0  0  0  0  0  0  0  0
    7.4845    0.9519    0.8858 H   0  0  0  0  0  0  0  0  0  0  0  0
    9.4261   -0.7560    0.7909 H   0  0  0  0  0  0  0  0  0  0  0  0
    9.0349   -2.8304    2.3271 H   0  0  0  0  0  0  0  0  0  0  0  0
    2.5553    2.3763   -0.1486 H   0  0  0  0  0  0  0  0  0  0  0  0
    1.9627    1.5682    1.3448 H   0  0  0  0  0  0  0  0  0  0  0  0
    0.5066    3.1654   -0.8183 H   0  0  0  0  0  0  0  0  0  0  0  0
    0.3810    3.3070    0.9485 H   0  0  0  0  0  0  0  0  0  0  0  0
   -1.0698    1.5479    2.1670 H   0  0  0  0  0  0  0  0  0  0  0  0
   -0.1287    0.2057    1.5766 H   0  0  0  0  0  0  0  0  0  0  0  0
   -1.8626    0.2188    1.3009 H   0  0  0  0  0  0  0  0  0  0  0  0
   -1.8747    3.6483   -0.2678 H   0  0  0  0  0  0  0  0  0  0  0  0
   -2.6892    2.5526    0.8509 H   0  0  0  0  0  0  0  0  0  0  0  0
   -2.6230    2.5874   -2.1909 H   0  0  0  0  0  0  0  0  0  0  0  0
   -4.0516    2.6947   -1.1668 H   0  0  0  0  0  0  0  0  0  0  0  0
   -3.6937    0.6044   -2.4806 H   0  0  0  0  0  0  0  0  0  0  0  0
   -3.8676    0.1362    0.4974 H   0  0  0  0  0  0  0  0  0  0  0  0
   -5.1255   -0.6300    1.9950 H   0  0  0  0  0  0  0  0  0  0  0  0
   -6.7201   -1.6553    3.5220 H   0  0  0  0  0  0  0  0  0  0  0  0
   -9.1934   -2.8547    0.3174 H   0  0  0  0  0  0  0  0  0  0  0  0
   -7.6571   -1.8541   -1.3147 H   0  0  0  0  0  0  0  0  0  0  0  0
  1 34  1  0  0  0  0
  1 35  1  0  0  0  0
  1 36  1  0  0  0  0
  2  1  1  0  0  0  0
  2  3  1  0  0  0  0
  2 37  1  1  0  0  0
  3  4  1  0  0  0  0
  3 20  1  0  0  0  0
  3 38  1  6  0  0  0
  4  5  1  0  0  0  0
  4  6  1  0  0  0  0
  4 39  1  6  0  0  0
  5 40  1  0  0  0  0
  6  7  1  0  0  0  0
  6 18  1  0  0  0  0
  6 41  1  1  0  0  0
  7  8  1  0  0  0  0
  7  9  1  0  0  0  0
  7 42  1  6  0  0  0
  8 43  1  0  0  0  0
  8 44  1  0  0  0  0
  8 45  1  0  0  0  0
  9 10  2  0  0  0  0
  9 11  1  0  0  0  0
 11 12  1  0  0  0  0
 11 46  1  0  0  0  0
 12 13  1  0  0  0  0
 12 47  1  0  0  0  0
 12 48  1  0  0  0  0
 13 14  2  0  0  0  0
 14 15  1  0  0  0  0
 14 49  1  0  0  0  0
 15 16  2  0  0  0  0
 15 50  1  0  0  0  0
 16 17  1  0  0  0  0
 16 51  1  0  0  0  0
 17 13  1  0  0  0  0
 18 19  1  0  0  0  0
 18 52  1  0  0  0  0
 18 53  1  0  0  0  0
 19 20  1  0  0  0  0
 19 54  1  0  0  0  0
 19 55  1  0  0  0  0
 20 21  1  1  0  0  0
 20 22  1  0  0  0  0
 21 56  1  0  0  0  0
 21 57  1  0  0  0  0
 21 58  1  0  0  0  0
 22 23  1  0  0  0  0
 22 59  1  0  0  0  0
 22 60  1  0  0  0  0
 23 24  1  0  0  0  0
 23 61  1  0  0  0  0
 23 62  1  0  0  0  0
 24 25  1  0  0  0  0
 24  2  1  0  0  0  0
 24 63  1  6  0  0  0
 25 26  1  0  0  0  0
 25 64  1  0  0  0  0
 26 27  2  0  0  0  0
 26 28  1  0  0  0  0
 28 29  2  0  0  0  0
 29 30  1  0  0  0  0
 29 65  1  0  0  0  0
 30 31  2  0  0  0  0
 30 66  1  0  0  0  0
 31 32  1  0  0  0  0
 32 33  2  0  0  0  0
 32 67  1  0  0  0  0
 33 28  1  0  0  0  0
 33 68  1  0  0  0  0
M  END
>  <IDENTIFIER>
CNP0192270.2

>  <Energy>
896.55

$$$$
