
 OpenBabel09112520133D

 64 65  0  0  0  0  0  0  0  0999 V2000
   -2.6342   -1.6554    1.7233 C   0  0  0  0  0  0  0  0  0  0  0  0
   -2.6554   -0.4500    0.7753 C   0  0  2  0  0  0  0  0  0  0  0  0
   -1.8248    0.7318    1.3173 C   0  0  0  0  0  0  0  0  0  0  0  0
   -0.3306    0.4107    1.4647 C   0  0  0  0  0  0  0  0  0  0  0  0
    0.4639    1.6490    1.9238 C   0  0  0  0  0  0  0  0  0  0  0  0
    1.9724    1.3604    2.0477 C   0  0  0  0  0  0  0  0  0  0  0  0
    2.6488    1.0599    0.7314 C   0  0  0  0  0  0  0  0  0  0  0  0
    2.0199    1.1284   -0.3173 O   0  0  0  0  0  0  0  0  0  0  0  0
    3.9675    0.7252    0.7235 O   0  0  0  0  0  0  0  0  0  0  0  0
    4.6562    0.2674   -0.3913 C   0  0  2  0  0  0  0  0  0  0  0  0
    5.1815   -1.0242   -0.0630 O   0  0  0  0  0  0  0  0  0  0  0  0
    6.3473   -1.3234   -0.7996 C   0  0  2  0  0  0  0  0  0  0  0  0
    6.7010   -2.8072   -0.6544 C   0  0  0  0  0  0  0  0  0  0  0  0
    5.6399   -3.6102   -1.0982 O   0  0  0  0  0  0  0  0  0  0  0  0
    7.5255   -0.4151   -0.3344 C   0  0  1  0  0  0  0  0  0  0  0  0
    8.5345   -0.4036   -1.3154 O   0  0  0  0  0  0  0  0  0  0  0  0
    7.0256    1.0278    0.0075 C   0  0  2  0  0  0  0  0  0  0  0  0
    6.7750    1.1811    1.3886 O   0  0  0  0  0  0  0  0  0  0  0  0
    5.7411    1.3303   -0.7799 C   0  0  1  0  0  0  0  0  0  0  0  0
    6.0226    1.2720   -2.1550 O   0  0  0  0  0  0  0  0  0  0  0  0
   -3.9937    0.0002    0.6505 O   0  0  0  0  0  0  0  0  0  0  0  0
   -4.6245   -0.3488   -0.5734 C   0  0  2  0  0  0  0  0  0  0  0  0
   -5.1233    0.8426   -1.1953 O   0  0  0  0  0  0  0  0  0  0  0  0
   -6.4258    1.1478   -0.7445 C   0  0  1  0  0  0  0  0  0  0  0  0
   -6.8073    2.5658   -1.1624 C   0  0  0  0  0  0  0  0  0  0  0  0
   -7.4434    0.1037   -1.2889 C   0  0  2  0  0  0  0  0  0  0  0  0
   -8.5952    0.1015   -0.4815 O   0  0  0  0  0  0  0  0  0  0  0  0
   -6.8028   -1.3040   -1.3784 C   0  0  0  0  0  0  0  0  0  0  0  0
   -5.7241   -1.4313   -0.3026 C   0  0  1  0  0  0  0  0  0  0  0  0
   -5.1761   -2.7244   -0.2601 O   0  0  0  0  0  0  0  0  0  0  0  0
   -1.6092   -2.0562    1.8493 H   0  0  0  0  0  0  0  0  0  0  0  0
   -3.2512   -2.4756    1.3099 H   0  0  0  0  0  0  0  0  0  0  0  0
   -3.0437   -1.3710    2.7161 H   0  0  0  0  0  0  0  0  0  0  0  0
   -2.1962   -0.7510   -0.1942 H   0  0  0  0  0  0  0  0  0  0  0  0
   -2.2356    1.0638    2.2963 H   0  0  0  0  0  0  0  0  0  0  0  0
   -1.9289    1.5723    0.5952 H   0  0  0  0  0  0  0  0  0  0  0  0
    0.0368    0.0510    0.4835 H   0  0  0  0  0  0  0  0  0  0  0  0
   -0.1798   -0.3941    2.2133 H   0  0  0  0  0  0  0  0  0  0  0  0
    0.0821    1.9565    2.9217 H   0  0  0  0  0  0  0  0  0  0  0  0
    0.3096    2.4957    1.2193 H   0  0  0  0  0  0  0  0  0  0  0  0
    2.1148    0.4982    2.7369 H   0  0  0  0  0  0  0  0  0  0  0  0
    2.4764    2.2445    2.4930 H   0  0  0  0  0  0  0  0  0  0  0  0
    3.9548    0.1619   -1.2472 H   0  0  0  0  0  0  0  0  0  0  0  0
    6.1257   -1.1593   -1.8798 H   0  0  0  0  0  0  0  0  0  0  0  0
    6.9548   -3.0524    0.4027 H   0  0  0  0  0  0  0  0  0  0  0  0
    7.5963   -3.0413   -1.2687 H   0  0  0  0  0  0  0  0  0  0  0  0
    5.0007   -3.6830   -0.3415 H   0  0  0  0  0  0  0  0  0  0  0  0
    7.9953   -0.8100    0.5933 H   0  0  0  0  0  0  0  0  0  0  0  0
    8.1678    0.0260   -2.1305 H   0  0  0  0  0  0  0  0  0  0  0  0
    7.8326    1.7526   -0.2360 H   0  0  0  0  0  0  0  0  0  0  0  0
    6.3804    0.3448    1.7480 H   0  0  0  0  0  0  0  0  0  0  0  0
    5.3775    2.3606   -0.5528 H   0  0  0  0  0  0  0  0  0  0  0  0
    5.2245    1.6277   -2.6272 H   0  0  0  0  0  0  0  0  0  0  0  0
   -3.9440   -0.7760   -1.3449 H   0  0  0  0  0  0  0  0  0  0  0  0
   -6.4172    1.1351    0.3719 H   0  0  0  0  0  0  0  0  0  0  0  0
   -6.8186    2.6503   -2.2703 H   0  0  0  0  0  0  0  0  0  0  0  0
   -6.0664    3.2888   -0.7598 H   0  0  0  0  0  0  0  0  0  0  0  0
   -7.8118    2.8266   -0.7675 H   0  0  0  0  0  0  0  0  0  0  0  0
   -7.7643    0.3450   -2.3259 H   0  0  0  0  0  0  0  0  0  0  0  0
   -8.3383   -0.2399    0.4155 H   0  0  0  0  0  0  0  0  0  0  0  0
   -6.2838   -1.4080   -2.3584 H   0  0  0  0  0  0  0  0  0  0  0  0
   -7.5843   -2.0926   -1.3257 H   0  0  0  0  0  0  0  0  0  0  0  0
   -6.2189   -1.2387    0.6743 H   0  0  0  0  0  0  0  0  0  0  0  0
   -4.8251   -2.9331   -1.1661 H   0  0  0  0  0  0  0  0  0  0  0  0
  1 31  1  0  0  0  0
  1 32  1  0  0  0  0
  1 33  1  0  0  0  0
  2  1  1  0  0  0  0
  2  3  1  0  0  0  0
  2 21  1  0  0  0  0
  2 34  1  6  0  0  0
  3  4  1  0  0  0  0
  3 35  1  0  0  0  0
  3 36  1  0  0  0  0
  4  5  1  0  0  0  0
  4 37  1  0  0  0  0
  4 38  1  0  0  0  0
  5  6  1  0  0  0  0
  5 39  1  0  0  0  0
  5 40  1  0  0  0  0
  6  7  1  0  0  0  0
  6 41  1  0  0  0  0
  6 42  1  0  0  0  0
  7  8  2  0  0  0  0
  7  9  1  0  0  0  0
 10  9  1  0  0  0  0
 10 11  1  0  0  0  0
 10 43  1  6  0  0  0
 11 12  1  0  0  0  0
 12 13  1  0  0  0  0
 12 15  1  0  0  0  0
 12 44  1  6  0  0  0
 13 14  1  0  0  0  0
 13 45  1  0  0  0  0
 13 46  1  0  0  0  0
 14 47  1  0  0  0  0
 15 16  1  0  0  0  0
 15 17  1  0  0  0  0
 15 48  1  1  0  0  0
 16 49  1  0  0  0  0
 17 18  1  0  0  0  0
 17 19  1  0  0  0  0
 17 50  1  6  0  0  0
 18 51  1  0  0  0  0
 19 20  1  0  0  0  0
 19 10  1  0  0  0  0
 19 52  1  1  0  0  0
 20 53  1  0  0  0  0
 22 21  1  0  0  0  0
 22 23  1  0  0  0  0
 22 54  1  6  0  0  0
 23 24  1  0  0  0  0
 24 25  1  0  0  0  0
 24 26  1  0  0  0  0
 24 55  1  1  0  0  0
 25 56  1  0  0  0  0
 25 57  1  0  0  0  0
 25 58  1  0  0  0  0
 26 27  1  0  0  0  0
 26 28  1  0  0  0  0
 26 59  1  6  0  0  0
 27 60  1  0  0  0  0
 28 29  1  0  0  0  0
 28 61  1  0  0  0  0
 28 62  1  0  0  0  0
 29 30  1  0  0  0  0
 29 22  1  0  0  0  0
 29 63  1  1  0  0  0
 30 64  1  0  0  0  0
M  END
>  <IDENTIFIER>
CNP0089813.1

>  <Energy>
683.857

$$$$
