
 OpenBabel09122512023D

 25 25  0  0  0  0  0  0  0  0999 V2000
    3.0278   -0.0581    2.0097 O   0  0  0  0  0  0  0  0  0  0  0  0
    3.1590   -0.4125    0.8485 C   0  0  0  0  0  0  0  0  0  0  0  0
    4.1875   -1.2236    0.5229 O   0  0  0  0  0  0  0  0  0  0  0  0
    2.1981    0.0500   -0.2226 C   0  0  0  0  0  0  0  0  0  0  0  0
    1.1047    1.0047    0.3098 C   0  0  1  0  0  0  0  0  0  0  0  0
    0.1807    1.5082   -0.7986 C   0  0  0  0  0  0  0  0  0  0  0  0
   -0.8420    0.4196   -0.8146 C   0  0  0  0  0  0  0  0  0  0  0  0
   -1.0055    0.2370    0.6907 C   0  0  1  0  0  0  0  0  0  0  0  0
   -1.6804   -1.0931    1.0550 C   0  0  0  0  0  0  0  0  0  0  0  0
   -3.0876   -1.1738    0.5196 C   0  0  0  0  0  0  0  0  0  0  0  0
   -3.3864   -2.0540   -0.2711 O   0  0  0  0  0  0  0  0  0  0  0  0
   -4.0313   -0.2917    0.9142 O   0  0  0  0  0  0  0  0  0  0  0  0
    0.2911    0.3238    1.2570 O   0  0  0  0  0  0  0  0  0  0  0  0
    4.3311   -1.5177   -0.3876 H   0  0  0  0  0  0  0  0  0  0  0  0
    1.7431   -0.8484   -0.6874 H   0  0  0  0  0  0  0  0  0  0  0  0
    2.7886    0.5856   -0.9970 H   0  0  0  0  0  0  0  0  0  0  0  0
    1.6103    1.8827    0.7695 H   0  0  0  0  0  0  0  0  0  0  0  0
    0.6720    1.7360   -1.7688 H   0  0  0  0  0  0  0  0  0  0  0  0
   -0.3264    2.4349   -0.4407 H   0  0  0  0  0  0  0  0  0  0  0  0
   -0.3995   -0.4951   -1.2666 H   0  0  0  0  0  0  0  0  0  0  0  0
   -1.7791    0.6693   -1.3568 H   0  0  0  0  0  0  0  0  0  0  0  0
   -1.6003    1.0829    1.1067 H   0  0  0  0  0  0  0  0  0  0  0  0
   -1.7209   -1.1927    2.1606 H   0  0  0  0  0  0  0  0  0  0  0  0
   -1.0708   -1.9337    0.6550 H   0  0  0  0  0  0  0  0  0  0  0  0
   -3.8408    0.4071    1.5550 H   0  0  0  0  0  0  0  0  0  0  0  0
  1  2  2  0  0  0  0
  2  3  1  0  0  0  0
  2  4  1  0  0  0  0
  3 14  1  0  0  0  0
  4 15  1  0  0  0  0
  4 16  1  0  0  0  0
  5  4  1  0  0  0  0
  5  6  1  0  0  0  0
  5 17  1  1  0  0  0
  6  7  1  0  0  0  0
  6 18  1  0  0  0  0
  6 19  1  0  0  0  0
  7  8  1  0  0  0  0
  7 20  1  0  0  0  0
  7 21  1  0  0  0  0
  8  9  1  0  0  0  0
  8 13  1  0  0  0  0
  8 22  1  1  0  0  0
  9 10  1  0  0  0  0
  9 23  1  0  0  0  0
  9 24  1  0  0  0  0
 10 11  2  0  0  0  0
 10 12  1  0  0  0  0
 12 25  1  0  0  0  0
 13  5  1  0  0  0  0
M  END
>  <IDENTIFIER>
CNP0419430.2

>  <Energy>
157.587

$$$$
