
 OpenBabel09072520133D

 41 43  0  0  0  0  0  0  0  0999 V2000
   -0.0947    3.2018   -0.8769 C   0  0  0  0  0  0  0  0  0  0  0  0
   -0.5262    1.7267   -0.9214 C   0  0  2  0  0  0  0  0  0  0  0  0
   -1.5099    1.4370    0.1858 C   0  0  0  0  0  0  0  0  0  0  0  0
   -2.1621    0.2681    0.3185 C   0  0  0  0  0  0  0  0  0  0  0  0
   -3.0173   -0.0740    1.4447 C   0  0  0  0  0  0  0  0  0  0  0  0
   -3.3856    0.6966    2.3156 O   0  0  0  0  0  0  0  0  0  0  0  0
   -3.2367   -1.3994    1.4946 O   0  0  0  0  0  0  0  0  0  0  0  0
   -2.4547   -2.0407    0.5494 C   0  0  0  0  0  0  0  0  0  0  0  0
   -2.1609   -0.9692   -0.5410 C   0  0  1  0  0  0  0  0  0  0  0  0
   -3.3210   -0.9085   -1.3426 O   0  0  0  0  0  0  0  0  0  0  0  0
   -0.8922   -1.2588   -1.4290 C   0  0  1  0  0  0  0  0  0  0  0  0
   -0.9962   -0.7841   -2.7581 O   0  0  0  0  0  0  0  0  0  0  0  0
    0.4595   -0.7599   -0.8630 C   0  0  2  0  0  0  0  0  0  0  0  0
    0.9171   -1.2606    0.5107 C   0  0  0  0  0  0  0  0  0  0  0  0
    2.1309   -0.3643    0.8220 C   0  0  0  0  0  0  0  0  0  0  0  0
    2.5288   -0.4455    2.3085 C   0  0  0  0  0  0  0  0  0  0  0  0
    3.3798   -0.7053   -0.0314 C   0  0  0  0  0  0  0  0  0  0  0  0
    1.5570    1.0091    0.4554 C   0  0  0  0  0  0  0  0  0  0  0  0
    0.7199    0.7840   -0.8364 C   0  0  2  0  0  0  0  0  0  0  0  0
   -0.9839    3.8600   -0.9841 H   0  0  0  0  0  0  0  0  0  0  0  0
    0.6012    3.4218   -1.7141 H   0  0  0  0  0  0  0  0  0  0  0  0
    0.4066    3.4528    0.0815 H   0  0  0  0  0  0  0  0  0  0  0  0
   -1.0402    1.6031   -1.8895 H   0  0  0  0  0  0  0  0  0  0  0  0
   -1.6739    2.2022    0.9411 H   0  0  0  0  0  0  0  0  0  0  0  0
   -2.9519   -2.9430    0.1342 H   0  0  0  0  0  0  0  0  0  0  0  0
   -1.5377   -2.3871    1.0635 H   0  0  0  0  0  0  0  0  0  0  0  0
   -3.4016   -1.7699   -1.8313 H   0  0  0  0  0  0  0  0  0  0  0  0
   -0.8525   -2.3656   -1.5297 H   0  0  0  0  0  0  0  0  0  0  0  0
   -1.7527   -0.1569   -2.8605 H   0  0  0  0  0  0  0  0  0  0  0  0
    1.2080   -1.1808   -1.5687 H   0  0  0  0  0  0  0  0  0  0  0  0
    1.1216   -2.3520    0.5528 H   0  0  0  0  0  0  0  0  0  0  0  0
    0.1334   -1.0157    1.2580 H   0  0  0  0  0  0  0  0  0  0  0  0
    2.8722   -1.4712    2.5620 H   0  0  0  0  0  0  0  0  0  0  0  0
    1.6675   -0.1979    2.9659 H   0  0  0  0  0  0  0  0  0  0  0  0
    3.3481    0.2718    2.5305 H   0  0  0  0  0  0  0  0  0  0  0  0
    3.7162   -1.7423    0.1842 H   0  0  0  0  0  0  0  0  0  0  0  0
    4.2098   -0.0107    0.2197 H   0  0  0  0  0  0  0  0  0  0  0  0
    3.2180   -0.6134   -1.1220 H   0  0  0  0  0  0  0  0  0  0  0  0
    2.2847    1.8475    0.4052 H   0  0  0  0  0  0  0  0  0  0  0  0
    0.8439    1.2592    1.2727 H   0  0  0  0  0  0  0  0  0  0  0  0
    1.3602    1.0006   -1.7221 H   0  0  0  0  0  0  0  0  0  0  0  0
  1 20  1  0  0  0  0
  1 21  1  0  0  0  0
  1 22  1  0  0  0  0
  2  1  1  0  0  0  0
  2  3  1  0  0  0  0
  2 23  1  6  0  0  0
  3  4  2  0  0  0  0
  3 24  1  0  0  0  0
  4  5  1  0  0  0  0
  5  6  2  0  0  0  0
  5  7  1  0  0  0  0
  7  8  1  0  0  0  0
  8  9  1  0  0  0  0
  8 25  1  0  0  0  0
  8 26  1  0  0  0  0
  9 10  1  6  0  0  0
  9 11  1  0  0  0  0
  9  4  1  0  0  0  0
 10 27  1  0  0  0  0
 11 12  1  0  0  0  0
 11 13  1  0  0  0  0
 11 28  1  6  0  0  0
 12 29  1  0  0  0  0
 13 14  1  0  0  0  0
 13 30  1  6  0  0  0
 14 15  1  0  0  0  0
 14 31  1  0  0  0  0
 14 32  1  0  0  0  0
 15 16  1  0  0  0  0
 15 17  1  0  0  0  0
 15 18  1  0  0  0  0
 16 33  1  0  0  0  0
 16 34  1  0  0  0  0
 16 35  1  0  0  0  0
 17 36  1  0  0  0  0
 17 37  1  0  0  0  0
 17 38  1  0  0  0  0
 18 39  1  0  0  0  0
 18 40  1  0  0  0  0
 19 18  1  0  0  0  0
 19  2  1  0  0  0  0
 19 13  1  0  0  0  0
 19 41  1  6  0  0  0
M  END
>  <IDENTIFIER>
CNP0177785.2

>  <Energy>
619.435

$$$$
