
 OpenBabel09062509402D

171170  0  0  0  0  0  0  0  0999 V2000
   25.9808   15.0000    0.0000 C   0  0  0  0  0  0  0  0  0  0  0  0
   24.6817   14.2500    0.0000 C   0  0  0  0  0  0  0  0  0  0  0  0
   23.7835   12.8088    0.2740 C   0  0  0  0  0  0  0  0  0  0  0  0
   22.0836   12.7500    0.0000 C   0  0  0  0  0  0  0  0  0  0  0  0
   20.7846   12.0000    0.0000 C   0  0  0  0  0  2  0  0  0  0  0  0
   19.4856   11.2500    0.0000 C   0  0  0  0  0  0  0  0  0  0  0  0
   18.1865   10.5000    0.0000 C   0  0  0  0  0  0  0  0  0  0  0  0
   16.8875    9.7500    0.0000 C   0  0  0  0  0  2  0  0  0  0  0  0
   15.5885    9.0000    0.0000 C   0  0  0  0  0  0  0  0  0  0  0  0
   13.9450    8.6521   -0.0573 C   0  0  0  0  0  0  0  0  0  0  0  0
   13.3398    7.0665    0.0648 C   0  0  0  0  0  0  0  0  0  0  0  0
   11.6913    6.7500    0.0000 C   0  0  0  0  0  0  0  0  0  0  0  0
   10.3923    6.0000    0.0000 C   0  0  0  0  0  0  0  0  0  0  0  0
    9.0933    5.2500    0.0000 C   0  0  0  0  0  0  0  0  0  0  0  0
    7.7942    4.5000    0.0000 C   0  0  0  0  0  0  0  0  0  0  0  0
    6.4952    3.7500    0.0000 C   0  0  0  0  0  0  0  0  0  0  0  0
    5.1962    3.0000    0.0000 C   0  0  0  0  0  0  0  0  0  0  0  0
    3.5298    2.9653   -0.1358 C   0  0  0  0  0  0  0  0  0  0  0  0
    2.7368    1.4750   -0.0617 C   0  0  0  0  0  0  0  0  0  0  0  0
    1.0802    1.2208   -0.2130 C   0  0  0  0  0  0  0  0  0  0  0  0
    0.3989   -0.2777   -0.0965 C   0  0  0  0  0  0  0  0  0  0  0  0
    1.1770   -1.1856    0.1507 O   0  0  0  0  0  0  0  0  0  0  0  0
   -1.0002   -0.6306   -0.2571 O   0  0  0  0  0  0  0  0  0  0  0  0
   -1.6275   -1.9413    0.0024 C   0  0  0  0  0  0  0  0  0  0  0  0
   -3.2467   -2.2946   -0.3188 C   0  0  2  0  0  0  0  0  0  0  0  0
   -3.7001   -3.8701    0.1214 C   0  0  0  0  0  0  0  0  0  0  0  0
   -4.9735   -4.5705   -0.1578 O   0  0  0  0  0  0  0  0  0  0  0  0
   -5.1962   -6.0000    0.0000 C   0  0  0  0  0  0  0  0  0  0  0  0
   -4.1850   -6.6676    0.2190 O   0  0  0  0  0  0  0  0  0  0  0  0
   -6.4952   -6.7500    0.0000 C   0  0  0  0  0  0  0  0  0  0  0  0
   -7.7942   -7.5000    0.0000 C   0  0  0  0  0  0  0  0  0  0  0  0
   -9.0933   -8.2500    0.0000 C   0  0  0  0  0  0  0  0  0  0  0  0
  -10.3923   -9.0000    0.0000 C   0  0  0  0  0  0  0  0  0  0  0  0
  -11.6913   -9.7500    0.0000 C   0  0  0  0  0  0  0  0  0  0  0  0
  -13.3399  -10.0663   -0.0632 C   0  0  0  0  0  0  0  0  0  0  0  0
  -13.9450  -11.6520    0.0569 C   0  0  0  0  0  0  0  0  0  0  0  0
  -15.5885  -12.0000    0.0000 C   0  0  0  0  0  0  0  0  0  0  0  0
  -16.8875  -12.7500    0.0000 C   0  0  0  0  0  2  0  0  0  0  0  0
  -18.1865  -13.5000    0.0000 C   0  0  0  0  0  0  0  0  0  0  0  0
  -19.4856  -14.2500    0.0000 C   0  0  0  0  0  0  0  0  0  0  0  0
  -20.7846  -15.0000    0.0000 C   0  0  0  0  0  2  0  0  0  0  0  0
  -22.0836  -15.7500    0.0000 C   0  0  0  0  0  0  0  0  0  0  0  0
  -23.6455  -16.1971   -0.3425 C   0  0  0  0  0  0  0  0  0  0  0  0
  -24.3881  -17.5543    0.3714 C   0  0  0  0  0  0  0  0  0  0  0  0
  -25.9808  -18.0000    0.0000 C   0  0  0  0  0  0  0  0  0  0  0  0
  -27.2798  -18.7500    0.0000 C   0  0  0  0  0  0  0  0  0  0  0  0
  -26.7308  -16.7010    0.0000 C   0  0  0  0  0  0  0  0  0  0  0  0
   -3.9988   -1.2371    0.2239 O   0  0  0  0  0  0  0  0  0  0  0  0
   -5.3266   -0.8712    0.1365 C   0  0  0  0  0  0  0  0  0  0  0  0
   -6.2143   -1.7074    0.1597 O   0  0  0  0  0  0  0  0  0  0  0  0
   -5.6359    0.6261   -0.0696 C   0  0  0  0  0  0  0  0  0  0  0  0
   -7.0545    1.2974    0.1911 C   0  0  0  0  0  0  0  0  0  0  0  0
   -6.9956    2.7859   -0.3272 C   0  0  0  0  0  0  0  0  0  0  0  0
   -7.8301    4.0338    0.1769 C   0  0  0  0  0  0  0  0  0  0  0  0
   -9.3305    4.5043   -0.1342 C   0  0  0  0  0  0  0  0  0  0  0  0
   -9.3481    6.0933    0.0000 C   0  0  0  0  0  0  0  0  0  0  0  0
  -10.0981    7.3923    0.0000 C   0  0  0  0  0  0  0  0  0  0  0  0
  -10.8481    8.6913    0.0000 C   0  0  0  0  0  0  0  0  0  0  0  0
  -11.3037   10.2582    0.4142 C   0  0  0  0  0  0  0  0  0  0  0  0
  -12.7906   10.9365   -0.0870 C   0  0  0  0  0  0  0  0  0  0  0  0
  -13.0981   12.5885    0.0000 C   0  0  0  0  0  0  0  0  0  0  0  0
  -13.8481   13.8875    0.0000 C   0  0  0  0  0  0  0  0  0  0  0  0
  -14.5981   15.1865    0.0000 C   0  0  0  0  0  0  0  0  0  0  0  0
  -15.3481   16.4856    0.0000 C   0  0  0  0  0  0  0  0  0  0  0  0
  -15.8971   14.4365    0.0000 C   0  0  0  0  0  0  0  0  0  0  0  0
   26.4817   14.3560   -0.7567 H   0  0  0  0  0  0  0  0  0  0  0  0
   25.6160   15.9613   -0.4388 H   0  0  0  0  0  0  0  0  0  0  0  0
   26.9075   15.5350    0.0000 H   0  0  0  0  0  0  0  0  0  0  0  0
   24.0667   14.9324    0.6301 H   0  0  0  0  0  0  0  0  0  0  0  0
   24.3302   14.4102   -1.0501 H   0  0  0  0  0  0  0  0  0  0  0  0
   23.9562   12.5088    1.3281 H   0  0  0  0  0  0  0  0  0  0  0  0
   24.2359   12.0258   -0.3710 H   0  0  0  0  0  0  0  0  0  0  0  0
   22.0509   13.1424   -1.0374 H   0  0  0  0  0  0  0  0  0  0  0  0
   21.7758   13.6058    0.6357 H   0  0  0  0  0  0  0  0  0  0  0  0
   19.8547   10.6943    0.8959 H   0  0  0  0  0  0  0  0  0  0  0  0
   19.8547   10.6944   -0.8960 H   0  0  0  0  0  0  0  0  0  0  0  0
   17.8174   11.0557   -0.8959 H   0  0  0  0  0  0  0  0  0  0  0  0
   17.8174   11.0556    0.8960 H   0  0  0  0  0  0  0  0  0  0  0  0
   15.7842    8.4659    0.9532 H   0  0  0  0  0  0  0  0  0  0  0  0
   15.8819    8.2958   -0.8064 H   0  0  0  0  0  0  0  0  0  0  0  0
   13.5676    9.0625   -1.0174 H   0  0  0  0  0  0  0  0  0  0  0  0
   13.4687    9.2363    0.7579 H   0  0  0  0  0  0  0  0  0  0  0  0
   13.8124    6.4785   -0.7498 H   0  0  0  0  0  0  0  0  0  0  0  0
   13.7103    6.6536    1.0265 H   0  0  0  0  0  0  0  0  0  0  0  0
   11.4295    7.4966    0.7906 H   0  0  0  0  0  0  0  0  0  0  0  0
   11.5270    7.3263   -0.9468 H   0  0  0  0  0  0  0  0  0  0  0  0
   10.9224    5.3724   -0.7895 H   0  0  0  0  0  0  0  0  0  0  0  0
   10.6201    5.6171    1.0315 H   0  0  0  0  0  0  0  0  0  0  0  0
    8.9328    5.5689   -1.0751 H   0  0  0  0  0  0  0  0  0  0  0  0
    9.5778    4.2155   -0.0304 H   0  0  0  0  0  0  0  0  0  0  0  0
    7.3062    5.5325    0.0261 H   0  0  0  0  0  0  0  0  0  0  0  0
    7.9535    4.1843    1.0761 H   0  0  0  0  0  0  0  0  0  0  0  0
    5.9626    4.3745    0.7883 H   0  0  0  0  0  0  0  0  0  0  0  0
    6.2713    4.1171   -1.0366 H   0  0  0  0  0  0  0  0  0  0  0  0
    5.2947    2.4161    0.9497 H   0  0  0  0  0  0  0  0  0  0  0  0
    5.4212    2.2306   -0.7785 H   0  0  0  0  0  0  0  0  0  0  0  0
    3.1138    3.6073    0.6690 H   0  0  0  0  0  0  0  0  0  0  0  0
    3.2671    3.4313   -1.1082 H   0  0  0  0  0  0  0  0  0  0  0  0
    3.2015    0.8504   -0.8531 H   0  0  0  0  0  0  0  0  0  0  0  0
    3.0245    1.0298    0.9134 H   0  0  0  0  0  0  0  0  0  0  0  0
    0.5900    1.8468    0.5616 H   0  0  0  0  0  0  0  0  0  0  0  0
    0.7915    1.6285   -1.2036 H   0  0  0  0  0  0  0  0  0  0  0  0
   -1.0397   -2.7068   -0.5455 H   0  0  0  0  0  0  0  0  0  0  0  0
   -1.4832   -2.1465    1.0846 H   0  0  0  0  0  0  0  0  0  0  0  0
   -3.3543   -2.2318   -1.4236 H   0  0  0  0  0  0  0  0  0  0  0  0
   -3.5159   -3.9541    1.2126 H   0  0  0  0  0  0  0  0  0  0  0  0
   -2.9146   -4.4868   -0.3666 H   0  0  0  0  0  0  0  0  0  0  0  0
   -6.3042   -7.0753    1.0547 H   0  0  0  0  0  0  0  0  0  0  0  0
   -6.0168   -7.3265   -0.8579 H   0  0  0  0  0  0  0  0  0  0  0  0
   -7.9792   -7.1724   -1.0713 H   0  0  0  0  0  0  0  0  0  0  0  0
   -7.2938   -8.5261   -0.0293 H   0  0  0  0  0  0  0  0  0  0  0  0
   -9.5803   -7.2164    0.0513 H   0  0  0  0  0  0  0  0  0  0  0  0
   -8.9251   -8.5834    1.0688 H   0  0  0  0  0  0  0  0  0  0  0  0
  -10.6250   -8.6081   -1.0268 H   0  0  0  0  0  0  0  0  0  0  0  0
  -10.9192   -8.3810    0.7987 H   0  0  0  0  0  0  0  0  0  0  0  0
  -11.4307  -10.4927   -0.7945 H   0  0  0  0  0  0  0  0  0  0  0  0
  -11.5257  -10.3314    0.9437 H   0  0  0  0  0  0  0  0  0  0  0  0
  -13.8117   -9.4795    0.7528 H   0  0  0  0  0  0  0  0  0  0  0  0
  -13.7113   -9.6518   -1.0239 H   0  0  0  0  0  0  0  0  0  0  0  0
  -13.5671  -12.0636    1.0163 H   0  0  0  0  0  0  0  0  0  0  0  0
  -13.4690  -12.2352   -0.7593 H   0  0  0  0  0  0  0  0  0  0  0  0
  -15.7847  -11.4650   -0.9526 H   0  0  0  0  0  0  0  0  0  0  0  0
  -15.8815  -11.2966    0.8072 H   0  0  0  0  0  0  0  0  0  0  0  0
  -17.8173  -14.0558    0.8959 H   0  0  0  0  0  0  0  0  0  0  0  0
  -17.8175  -14.0555   -0.8961 H   0  0  0  0  0  0  0  0  0  0  0  0
  -19.8548  -13.6942   -0.8958 H   0  0  0  0  0  0  0  0  0  0  0  0
  -19.8546  -13.6945    0.8961 H   0  0  0  0  0  0  0  0  0  0  0  0
  -22.1997  -15.7479    1.1041 H   0  0  0  0  0  0  0  0  0  0  0  0
  -21.6285  -16.7306   -0.2521 H   0  0  0  0  0  0  0  0  0  0  0  0
  -24.2533  -15.3077   -0.0760 H   0  0  0  0  0  0  0  0  0  0  0  0
  -23.7067  -16.3337   -1.4425 H   0  0  0  0  0  0  0  0  0  0  0  0
  -23.7476  -18.4357    0.1568 H   0  0  0  0  0  0  0  0  0  0  0  0
  -24.3464  -17.3852    1.4679 H   0  0  0  0  0  0  0  0  0  0  0  0
  -25.7783  -18.1966   -1.0846 H   0  0  0  0  0  0  0  0  0  0  0  0
  -27.4544  -18.7132    1.1054 H   0  0  0  0  0  0  0  0  0  0  0  0
  -26.8420  -19.7571   -0.1997 H   0  0  0  0  0  0  0  0  0  0  0  0
  -28.2064  -19.2850    0.0000 H   0  0  0  0  0  0  0  0  0  0  0  0
  -26.1494  -16.1354   -0.7548 H   0  0  0  0  0  0  0  0  0  0  0  0
  -26.5390  -16.4252    1.0633 H   0  0  0  0  0  0  0  0  0  0  0  0
  -27.2658  -15.7744    0.0000 H   0  0  0  0  0  0  0  0  0  0  0  0
   -5.3215    0.8437   -1.1130 H   0  0  0  0  0  0  0  0  0  0  0  0
   -4.9256    1.1697    0.5906 H   0  0  0  0  0  0  0  0  0  0  0  0
   -7.8807    0.7653   -0.3244 H   0  0  0  0  0  0  0  0  0  0  0  0
   -7.2319    1.2729    1.2873 H   0  0  0  0  0  0  0  0  0  0  0  0
   -6.9926    2.7712   -1.4385 H   0  0  0  0  0  0  0  0  0  0  0  0
   -5.9710    3.1075   -0.0261 H   0  0  0  0  0  0  0  0  0  0  0  0
   -7.6640    4.1399    1.2713 H   0  0  0  0  0  0  0  0  0  0  0  0
   -7.2137    4.8315   -0.2966 H   0  0  0  0  0  0  0  0  0  0  0  0
   -9.6137    4.2530   -1.1784 H   0  0  0  0  0  0  0  0  0  0  0  0
  -10.0290    4.0025    0.5678 H   0  0  0  0  0  0  0  0  0  0  0  0
   -8.7282    6.2340    0.9234 H   0  0  0  0  0  0  0  0  0  0  0  0
   -8.6467    6.3465   -0.8322 H   0  0  0  0  0  0  0  0  0  0  0  0
  -10.6989    6.9474   -0.8434 H   0  0  0  0  0  0  0  0  0  0  0  0
  -10.5551    7.1233    0.9896 H   0  0  0  0  0  0  0  0  0  0  0  0
  -10.6958    8.9644   -1.0744 H   0  0  0  0  0  0  0  0  0  0  0  0
  -11.9105    8.3256    0.0854 H   0  0  0  0  0  0  0  0  0  0  0  0
  -11.3066   10.3300    1.5220 H   0  0  0  0  0  0  0  0  0  0  0  0
  -10.4856   10.9207    0.0572 H   0  0  0  0  0  0  0  0  0  0  0  0
  -13.5702   10.4135    0.5054 H   0  0  0  0  0  0  0  0  0  0  0  0
  -12.9549   10.6549   -1.1489 H   0  0  0  0  0  0  0  0  0  0  0  0
  -12.3147   12.8554   -0.7622 H   0  0  0  0  0  0  0  0  0  0  0  0
  -12.4602   12.7098    0.9219 H   0  0  0  0  0  0  0  0  0  0  0  0
  -14.2259   13.4166   -0.9866 H   0  0  0  0  0  0  0  0  0  0  0  0
  -14.1795   13.5897    1.0542 H   0  0  0  0  0  0  0  0  0  0  0  0
  -14.0426   15.4027   -0.9572 H   0  0  0  0  0  0  0  0  0  0  0  0
  -14.4865   17.1048    0.3378 H   0  0  0  0  0  0  0  0  0  0  0  0
  -15.5486   16.6682   -1.0948 H   0  0  0  0  0  0  0  0  0  0  0  0
  -15.8831   17.4123    0.0000 H   0  0  0  0  0  0  0  0  0  0  0  0
  -16.2981   14.6423    1.0334 H   0  0  0  0  0  0  0  0  0  0  0  0
  -16.3668   14.6731   -0.9968 H   0  0  0  0  0  0  0  0  0  0  0  0
  -16.8237   13.9015    0.0000 H   0  0  0  0  0  0  0  0  0  0  0  0
  1  2  1  0  0  0  0
  1 66  1  0  0  0  0
  1 67  1  0  0  0  0
  1 68  1  0  0  0  0
  2  3  1  0  0  0  0
  2 69  1  0  0  0  0
  2 70  1  0  0  0  0
  3  4  1  0  0  0  0
  3 71  1  0  0  0  0
  3 72  1  0  0  0  0
  4  5  1  0  0  0  0
  4 73  1  0  0  0  0
  4 74  1  0  0  0  0
  5  6  1  0  0  0  0
  6  7  1  0  0  0  0
  6 75  1  0  0  0  0
  6 76  1  0  0  0  0
  7  8  1  0  0  0  0
  7 77  1  0  0  0  0
  7 78  1  0  0  0  0
  8  9  1  0  0  0  0
  9 10  1  0  0  0  0
  9 79  1  0  0  0  0
  9 80  1  0  0  0  0
 10 11  1  0  0  0  0
 10 81  1  0  0  0  0
 10 82  1  0  0  0  0
 11 12  1  0  0  0  0
 11 83  1  0  0  0  0
 11 84  1  0  0  0  0
 12 13  1  0  0  0  0
 12 85  1  0  0  0  0
 12 86  1  0  0  0  0
 13 14  1  0  0  0  0
 13 87  1  0  0  0  0
 13 88  1  0  0  0  0
 14 15  1  0  0  0  0
 14 89  1  0  0  0  0
 14 90  1  0  0  0  0
 15 16  1  0  0  0  0
 15 91  1  0  0  0  0
 15 92  1  0  0  0  0
 16 17  1  0  0  0  0
 16 93  1  0  0  0  0
 16 94  1  0  0  0  0
 17 18  1  0  0  0  0
 17 95  1  0  0  0  0
 17 96  1  0  0  0  0
 18 19  1  0  0  0  0
 18 97  1  0  0  0  0
 18 98  1  0  0  0  0
 19 20  1  0  0  0  0
 19 99  1  0  0  0  0
 19100  1  0  0  0  0
 20 21  1  0  0  0  0
 20101  1  0  0  0  0
 20102  1  0  0  0  0
 21 22  2  0  0  0  0
 21 23  1  0  0  0  0
 23 24  1  0  0  0  0
 24103  1  0  0  0  0
 24104  1  0  0  0  0
 25 24  1  0  0  0  0
 25 26  1  0  0  0  0
 25 48  1  0  0  0  0
 25105  1  1  0  0  0
 26 27  1  0  0  0  0
 26106  1  0  0  0  0
 26107  1  0  0  0  0
 27 28  1  0  0  0  0
 28 29  2  0  0  0  0
 28 30  1  0  0  0  0
 30 31  1  0  0  0  0
 30108  1  0  0  0  0
 30109  1  0  0  0  0
 31 32  1  0  0  0  0
 31110  1  0  0  0  0
 31111  1  0  0  0  0
 32 33  1  0  0  0  0
 32112  1  0  0  0  0
 32113  1  0  0  0  0
 33 34  1  0  0  0  0
 33114  1  0  0  0  0
 33115  1  0  0  0  0
 34 35  1  0  0  0  0
 34116  1  0  0  0  0
 34117  1  0  0  0  0
 35 36  1  0  0  0  0
 35118  1  0  0  0  0
 35119  1  0  0  0  0
 36 37  1  0  0  0  0
 36120  1  0  0  0  0
 36121  1  0  0  0  0
 37 38  1  0  0  0  0
 37122  1  0  0  0  0
 37123  1  0  0  0  0
 38 39  1  0  0  0  0
 39 40  1  0  0  0  0
 39124  1  0  0  0  0
 39125  1  0  0  0  0
 40 41  1  0  0  0  0
 40126  1  0  0  0  0
 40127  1  0  0  0  0
 41 42  1  0  0  0  0
 42 43  1  0  0  0  0
 42128  1  0  0  0  0
 42129  1  0  0  0  0
 43 44  1  0  0  0  0
 43130  1  0  0  0  0
 43131  1  0  0  0  0
 44 45  1  0  0  0  0
 44132  1  0  0  0  0
 44133  1  0  0  0  0
 45 46  1  0  0  0  0
 45 47  1  0  0  0  0
 45134  1  0  0  0  0
 46135  1  0  0  0  0
 46136  1  0  0  0  0
 46137  1  0  0  0  0
 47138  1  0  0  0  0
 47139  1  0  0  0  0
 47140  1  0  0  0  0
 48 49  1  0  0  0  0
 49 50  2  0  0  0  0
 49 51  1  0  0  0  0
 51 52  1  0  0  0  0
 51141  1  0  0  0  0
 51142  1  0  0  0  0
 52 53  1  0  0  0  0
 52143  1  0  0  0  0
 52144  1  0  0  0  0
 53 54  1  0  0  0  0
 53145  1  0  0  0  0
 53146  1  0  0  0  0
 54 55  1  0  0  0  0
 54147  1  0  0  0  0
 54148  1  0  0  0  0
 55 56  1  0  0  0  0
 55149  1  0  0  0  0
 55150  1  0  0  0  0
 56 57  1  0  0  0  0
 56151  1  0  0  0  0
 56152  1  0  0  0  0
 57 58  1  0  0  0  0
 57153  1  0  0  0  0
 57154  1  0  0  0  0
 58 59  1  0  0  0  0
 58155  1  0  0  0  0
 58156  1  0  0  0  0
 59 60  1  0  0  0  0
 59157  1  0  0  0  0
 59158  1  0  0  0  0
 60 61  1  0  0  0  0
 60159  1  0  0  0  0
 60160  1  0  0  0  0
 61 62  1  0  0  0  0
 61161  1  0  0  0  0
 61162  1  0  0  0  0
 62 63  1  0  0  0  0
 62163  1  0  0  0  0
 62164  1  0  0  0  0
 63 64  1  0  0  0  0
 63 65  1  0  0  0  0
 63165  1  0  0  0  0
 64166  1  0  0  0  0
 64167  1  0  0  0  0
 64168  1  0  0  0  0
 65169  1  0  0  0  0
 65170  1  0  0  0  0
 65171  1  0  0  0  0
M  END
>  <IDENTIFIER>
CNP0486411.2

>  <Energy>
13641.5

$$$$
