
 OpenBabel09072507503D

 85 90  0  0  0  0  0  0  0  0999 V2000
    5.0802    2.3537    1.6622 C   0  0  0  0  0  0  0  0  0  0  0  0
    5.4656    0.8588    1.6044 C   0  0  0  0  0  0  0  0  0  0  0  0
    6.9430    0.7111    2.0488 C   0  0  0  0  0  0  0  0  0  0  0  0
    4.6215    0.1176    2.4490 O   0  0  0  0  0  0  0  0  0  0  0  0
    5.3135    0.3462    0.1466 C   0  0  1  0  0  0  0  0  0  0  0  0
    5.5798   -1.1646   -0.0544 C   0  0  0  0  0  0  0  0  0  0  0  0
    4.2578   -1.6564   -0.5977 C   0  0  0  0  0  0  0  0  0  0  0  0
    3.7269   -0.4080   -1.3002 C   0  0  1  0  0  0  0  0  0  0  0  0
    4.5015   -0.1376   -2.6336 C   0  0  0  0  0  0  0  0  0  0  0  0
    2.1869   -0.3614   -1.6563 C   0  0  1  0  0  0  0  0  0  0  0  0
    1.6471   -1.1434   -2.9281 C   0  0  1  0  0  0  0  0  0  0  0  0
    2.2118   -2.4057   -3.1839 O   0  0  0  0  0  0  0  0  0  0  0  0
    0.0895   -1.2466   -2.7585 C   0  0  0  0  0  0  0  0  0  0  0  0
   -0.2407   -0.1359   -1.7446 C   0  0  1  0  0  0  0  0  0  0  0  0
   -0.1233    1.2090   -2.5919 C   0  0  0  0  0  0  0  0  0  0  0  0
   -1.6992   -0.1771   -1.0428 C   0  0  2  0  0  0  0  0  0  0  0  0
   -2.5358    1.1723   -1.2164 C   0  0  0  0  0  0  0  0  0  0  0  0
   -3.8913    1.2608   -0.4723 C   0  0  2  0  0  0  0  0  0  0  0  0
   -4.3968    2.5680   -0.5790 O   0  0  0  0  0  0  0  0  0  0  0  0
   -3.7672    0.7937    1.0196 C   0  0  1  0  0  0  0  0  0  0  0  0
   -5.1104    0.6629    1.8464 C   0  0  0  0  0  0  0  0  0  0  0  0
   -4.7642    0.3332    3.3258 C   0  0  0  0  0  0  0  0  0  0  0  0
   -5.8844    2.0032    1.8882 C   0  0  0  0  0  0  0  0  0  0  0  0
   -6.0331   -0.4658    1.2573 C   0  0  1  0  0  0  0  0  0  0  0  0
   -6.5270   -0.0803   -0.0020 O   0  0  0  0  0  0  0  0  0  0  0  0
   -5.2806   -1.8207    1.1446 C   0  0  0  0  0  0  0  0  0  0  0  0
   -4.0106   -1.6946    0.2995 C   0  0  0  0  0  0  0  0  0  0  0  0
   -3.0885   -0.5828    0.9234 C   0  0  2  0  0  0  0  0  0  0  0  0
   -2.0709   -1.2083    1.7536 C   0  0  0  0  0  0  0  0  0  0  0  0
   -1.5692   -0.3770    0.5074 C   0  0  1  0  0  0  0  0  0  0  0  0
   -0.5419    0.6596    1.1283 C   0  0  0  0  0  0  0  0  0  0  0  0
    0.8440    0.6811    0.3977 C   0  0  0  0  0  0  0  0  0  0  0  0
    0.9500   -0.4050   -0.6978 C   0  0  2  0  0  0  0  0  0  0  0  0
    0.9462   -1.8182    0.0137 C   0  0  0  0  0  0  0  0  0  0  0  0
    4.0249    0.6311   -0.3850 O   0  0  0  0  0  0  0  0  0  0  0  0
    5.2140    2.7528    2.6888 H   0  0  0  0  0  0  0  0  0  0  0  0
    4.0161    2.4950    1.3763 H   0  0  0  0  0  0  0  0  0  0  0  0
    5.7142    2.9528    0.9709 H   0  0  0  0  0  0  0  0  0  0  0  0
    7.0854    1.1056    3.0763 H   0  0  0  0  0  0  0  0  0  0  0  0
    7.6145    1.2830    1.3688 H   0  0  0  0  0  0  0  0  0  0  0  0
    7.2678   -0.3487    2.0427 H   0  0  0  0  0  0  0  0  0  0  0  0
    4.7678    0.4420    3.3780 H   0  0  0  0  0  0  0  0  0  0  0  0
    6.0516    0.9161   -0.4632 H   0  0  0  0  0  0  0  0  0  0  0  0
    5.9060   -1.7409    0.8378 H   0  0  0  0  0  0  0  0  0  0  0  0
    6.3596   -1.2792   -0.8368 H   0  0  0  0  0  0  0  0  0  0  0  0
    3.6500   -1.8457    0.2951 H   0  0  0  0  0  0  0  0  0  0  0  0
    4.3297   -2.5907   -1.1904 H   0  0  0  0  0  0  0  0  0  0  0  0
    4.3350   -0.9550   -3.3628 H   0  0  0  0  0  0  0  0  0  0  0  0
    5.5966   -0.0477   -2.5067 H   0  0  0  0  0  0  0  0  0  0  0  0
    4.1651    0.8195   -3.0874 H   0  0  0  0  0  0  0  0  0  0  0  0
    2.1734    0.7012   -1.9439 H   0  0  0  0  0  0  0  0  0  0  0  0
    1.9001   -0.5068   -3.8031 H   0  0  0  0  0  0  0  0  0  0  0  0
    2.4002   -2.8540   -2.3280 H   0  0  0  0  0  0  0  0  0  0  0  0
   -0.1704   -2.2186   -2.2926 H   0  0  0  0  0  0  0  0  0  0  0  0
   -0.4708   -1.2202   -3.7186 H   0  0  0  0  0  0  0  0  0  0  0  0
   -0.9320    1.2589   -3.3469 H   0  0  0  0  0  0  0  0  0  0  0  0
    0.7591    1.3278   -3.2439 H   0  0  0  0  0  0  0  0  0  0  0  0
   -0.1401    2.1174   -1.9615 H   0  0  0  0  0  0  0  0  0  0  0  0
   -2.2542   -1.0147   -1.5118 H   0  0  0  0  0  0  0  0  0  0  0  0
   -2.7571    1.3783   -2.2829 H   0  0  0  0  0  0  0  0  0  0  0  0
   -1.9353    2.0093   -0.8146 H   0  0  0  0  0  0  0  0  0  0  0  0
   -4.5719    0.6093   -1.0365 H   0  0  0  0  0  0  0  0  0  0  0  0
   -3.7982    3.1654   -0.0581 H   0  0  0  0  0  0  0  0  0  0  0  0
   -3.1148    1.5180    1.5486 H   0  0  0  0  0  0  0  0  0  0  0  0
   -4.1308    1.1335    3.7663 H   0  0  0  0  0  0  0  0  0  0  0  0
   -4.2150   -0.6171    3.4448 H   0  0  0  0  0  0  0  0  0  0  0  0
   -5.6891    0.2521    3.9366 H   0  0  0  0  0  0  0  0  0  0  0  0
   -5.2411    2.8131    2.2971 H   0  0  0  0  0  0  0  0  0  0  0  0
   -6.7830    1.9152    2.5363 H   0  0  0  0  0  0  0  0  0  0  0  0
   -6.2488    2.3109    0.8898 H   0  0  0  0  0  0  0  0  0  0  0  0
   -6.9115   -0.5937    1.9313 H   0  0  0  0  0  0  0  0  0  0  0  0
   -7.0916   -0.8203   -0.3470 H   0  0  0  0  0  0  0  0  0  0  0  0
   -5.9508   -2.5878    0.7008 H   0  0  0  0  0  0  0  0  0  0  0  0
   -5.0078   -2.1926    2.1550 H   0  0  0  0  0  0  0  0  0  0  0  0
   -4.3093   -1.4586   -0.7361 H   0  0  0  0  0  0  0  0  0  0  0  0
   -3.5128   -2.6864    0.2333 H   0  0  0  0  0  0  0  0  0  0  0  0
   -1.8693   -2.2922    1.6204 H   0  0  0  0  0  0  0  0  0  0  0  0
   -2.0365   -0.7538    2.7644 H   0  0  0  0  0  0  0  0  0  0  0  0
   -0.3195    0.4531    2.1975 H   0  0  0  0  0  0  0  0  0  0  0  0
   -0.9430    1.6916    1.1398 H   0  0  0  0  0  0  0  0  0  0  0  0
    1.6716    0.5821    1.1347 H   0  0  0  0  0  0  0  0  0  0  0  0
    0.9782    1.6803   -0.0624 H   0  0  0  0  0  0  0  0  0  0  0  0
    1.6750   -1.8444    0.8381 H   0  0  0  0  0  0  0  0  0  0  0  0
    1.1587   -2.6698   -0.6474 H   0  0  0  0  0  0  0  0  0  0  0  0
    0.0200   -2.1223    0.4953 H   0  0  0  0  0  0  0  0  0  0  0  0
  1  2  1  0  0  0  0
  1 36  1  0  0  0  0
  1 37  1  0  0  0  0
  1 38  1  0  0  0  0
  2  3  1  0  0  0  0
  2  4  1  0  0  0  0
  3 39  1  0  0  0  0
  3 40  1  0  0  0  0
  3 41  1  0  0  0  0
  4 42  1  0  0  0  0
  5  2  1  0  0  0  0
  5  6  1  0  0  0  0
  5 43  1  6  0  0  0
  6  7  1  0  0  0  0
  6 44  1  0  0  0  0
  6 45  1  0  0  0  0
  7  8  1  0  0  0  0
  7 46  1  0  0  0  0
  7 47  1  0  0  0  0
  8  9  1  6  0  0  0
  8 35  1  0  0  0  0
  9 48  1  0  0  0  0
  9 49  1  0  0  0  0
  9 50  1  0  0  0  0
 10  8  1  0  0  0  0
 10 11  1  0  0  0  0
 10 51  1  6  0  0  0
 11 12  1  0  0  0  0
 11 13  1  0  0  0  0
 11 52  1  6  0  0  0
 12 53  1  0  0  0  0
 13 14  1  0  0  0  0
 13 54  1  0  0  0  0
 13 55  1  0  0  0  0
 14 15  1  6  0  0  0
 14 16  1  0  0  0  0
 15 56  1  0  0  0  0
 15 57  1  0  0  0  0
 15 58  1  0  0  0  0
 16 17  1  0  0  0  0
 16 59  1  6  0  0  0
 17 18  1  0  0  0  0
 17 60  1  0  0  0  0
 17 61  1  0  0  0  0
 18 19  1  0  0  0  0
 18 20  1  0  0  0  0
 18 62  1  6  0  0  0
 19 63  1  0  0  0  0
 20 21  1  0  0  0  0
 20 64  1  1  0  0  0
 21 22  1  0  0  0  0
 21 23  1  0  0  0  0
 21 24  1  0  0  0  0
 22 65  1  0  0  0  0
 22 66  1  0  0  0  0
 22 67  1  0  0  0  0
 23 68  1  0  0  0  0
 23 69  1  0  0  0  0
 23 70  1  0  0  0  0
 24 25  1  0  0  0  0
 24 26  1  0  0  0  0
 24 71  1  1  0  0  0
 25 72  1  0  0  0  0
 26 27  1  0  0  0  0
 26 73  1  0  0  0  0
 26 74  1  0  0  0  0
 27 75  1  0  0  0  0
 27 76  1  0  0  0  0
 28 27  1  6  0  0  0
 28 29  1  0  0  0  0
 28 20  1  0  0  0  0
 29 77  1  0  0  0  0
 29 78  1  0  0  0  0
 30 29  1  1  0  0  0
 30 31  1  0  0  0  0
 30 16  1  0  0  0  0
 30 28  1  0  0  0  0
 31 32  1  0  0  0  0
 31 79  1  0  0  0  0
 31 80  1  0  0  0  0
 32 33  1  0  0  0  0
 32 81  1  0  0  0  0
 32 82  1  0  0  0  0
 33 34  1  1  0  0  0
 33 10  1  0  0  0  0
 33 14  1  0  0  0  0
 34 83  1  0  0  0  0
 34 84  1  0  0  0  0
 34 85  1  0  0  0  0
 35  5  1  0  0  0  0
M  END
>  <IDENTIFIER>
CNP0243356.1

>  <Energy>
2813.04

$$$$
