
 OpenBabel09102509222D

146145  0  0  0  0  0  0  0  0999 V2000
   22.0836   12.7500    0.0000 C   0  0  0  0  0  0  0  0  0  0  0  0
   20.7846   12.0000    0.0000 C   0  0  0  0  0  2  0  0  0  0  0  0
   19.4856   11.2500    0.0000 C   0  0  0  0  0  0  0  0  0  0  0  0
   18.1865   10.5000    0.0000 C   0  0  0  0  0  0  0  0  0  0  0  0
   16.8875    9.7500    0.0000 C   0  0  0  0  0  2  0  0  0  0  0  0
   15.5885    9.0000    0.0000 C   0  0  0  0  0  0  0  0  0  0  0  0
   13.9441    8.6534    0.0368 C   0  0  0  0  0  0  0  0  0  0  0  0
   13.3414    7.0635   -0.0272 C   0  0  0  0  0  0  0  0  0  0  0  0
   11.6913    6.7500    0.0000 C   0  0  0  0  0  0  0  0  0  0  0  0
   10.3923    6.0000    0.0000 C   0  0  0  0  0  0  0  0  0  0  0  0
    9.0933    5.2500    0.0000 C   0  0  0  0  0  0  0  0  0  0  0  0
    7.7942    4.5000    0.0000 C   0  0  0  0  0  0  0  0  0  0  0  0
    6.4952    3.7500    0.0000 C   0  0  0  0  0  0  0  0  0  0  0  0
    5.1962    3.0000    0.0000 C   0  0  0  0  0  0  0  0  0  0  0  0
    3.5769    2.7332   -0.0968 C   0  0  0  0  0  0  0  0  0  0  0  0
    3.0571    1.1610    0.1018 C   0  0  0  0  0  0  0  0  0  0  0  0
    1.4767    0.7312   -0.0707 C   0  0  0  0  0  0  0  0  0  0  0  0
    0.8579   -0.7023    0.3957 C   0  0  0  0  0  0  0  0  0  0  0  0
    1.0419   -1.0120    1.5621 O   0  0  0  0  0  0  0  0  0  0  0  0
   -0.0579   -1.5051   -0.3676 O   0  0  0  0  0  0  0  0  0  0  0  0
   -1.2990   -2.2500    0.0000 C   0  0  1  0  0  0  0  0  0  0  0  0
   -2.0490   -0.9510   -0.0000 C   0  0  0  0  0  0  0  0  0  0  0  0
   -3.4273   -0.5830    0.3711 O   0  0  0  0  0  0  0  0  0  0  0  0
   -4.0528    0.6808   -0.0034 C   0  0  0  0  0  0  0  0  0  0  0  0
   -3.6121    1.2278   -1.0027 O   0  0  0  0  0  0  0  0  0  0  0  0
   -5.2734    1.5278    0.7311 C   0  0  0  0  0  0  0  0  0  0  0  0
   -5.7990    2.9462    0.0000 C   0  0  0  0  0  0  0  0  0  0  0  0
   -6.5490    4.2452    0.0000 C   0  0  0  0  0  0  0  0  0  0  0  0
   -7.2990    5.5442    0.0000 C   0  0  0  0  0  0  0  0  0  0  0  0
   -8.0490    6.8433    0.0000 C   0  0  0  0  0  0  0  0  0  0  0  0
   -8.7990    8.1423    0.0000 C   0  0  0  0  0  0  0  0  0  0  0  0
   -9.5490    9.4413    0.0000 C   0  0  0  0  0  0  0  0  0  0  0  0
   -9.9331   11.0551   -0.2687 C   0  0  0  0  0  0  0  0  0  0  0  0
  -11.4228   11.7162    0.2256 C   0  0  0  0  0  0  0  0  0  0  0  0
  -11.7990   13.3385    0.0000 C   0  0  0  0  0  0  0  0  0  0  0  0
  -12.5490   14.6375    0.0000 C   0  0  0  0  0  0  0  0  0  0  0  0
  -13.2990   15.9365    0.0000 C   0  0  0  0  0  0  0  0  0  0  0  0
  -14.0490   17.2356    0.0000 C   0  0  0  0  0  0  0  0  0  0  0  0
  -14.7990   18.5346    0.0000 C   0  0  0  0  0  0  0  0  0  0  0  0
  -15.3481   16.4856    0.0000 C   0  0  0  0  0  0  0  0  0  0  0  0
   -0.5490   -3.5490    0.0000 C   0  0  0  0  0  0  0  0  0  0  0  0
    0.6269   -4.1207   -0.6878 O   0  0  0  0  0  0  0  0  0  0  0  0
    1.3899   -5.2496   -0.1634 C   0  0  0  0  0  0  0  0  0  0  0  0
    1.1611   -5.5626    0.9939 O   0  0  0  0  0  0  0  0  0  0  0  0
    2.5218   -6.2065   -0.9053 C   0  0  0  0  0  0  0  0  0  0  0  0
    3.2010   -7.4462    0.0000 C   0  0  0  0  0  0  0  0  0  0  0  0
    3.9510   -8.7452    0.0000 C   0  0  0  0  0  0  0  0  0  0  0  0
    4.7010  -10.0442    0.0000 C   0  0  0  0  0  0  0  0  0  0  0  0
    5.4510  -11.3433    0.0000 C   0  0  0  0  0  0  0  0  0  0  0  0
    6.2010  -12.6423    0.0000 C   0  0  0  0  0  0  0  0  0  0  0  0
    6.9510  -13.9413    0.0000 C   0  0  0  0  0  0  0  0  0  0  0  0
    7.2633  -15.4897   -0.6712 C   0  0  0  0  0  0  0  0  0  0  0  0
    8.4510  -16.5394    0.0000 C   0  0  3  0  0  0  0  0  0  0  0  0
    9.2010  -17.8385    0.0000 C   0  0  0  0  0  0  0  0  0  0  0  0
    9.7500  -15.7894    0.0000 C   0  0  0  0  0  2  0  0  0  0  0  0
   11.0490  -15.0394    0.0000 C   0  0  0  0  0  0  0  0  0  0  0  0
   22.6068   12.0035   -0.6322 H   0  0  0  0  0  0  0  0  0  0  0  0
   21.7011   13.5723   -0.6388 H   0  0  0  0  0  0  0  0  0  0  0  0
   23.0102   13.2850    0.0000 H   0  0  0  0  0  0  0  0  0  0  0  0
   19.8548   10.6938    0.8956 H   0  0  0  0  0  0  0  0  0  0  0  0
   19.8545   10.6947   -0.8963 H   0  0  0  0  0  0  0  0  0  0  0  0
   17.8176   11.0553    0.8962 H   0  0  0  0  0  0  0  0  0  0  0  0
   17.8172   11.0559   -0.8957 H   0  0  0  0  0  0  0  0  0  0  0  0
   15.8032    8.4322   -0.9293 H   0  0  0  0  0  0  0  0  0  0  0  0
   15.8655    8.3253    0.8368 H   0  0  0  0  0  0  0  0  0  0  0  0
   13.5464    9.1037    0.9706 H   0  0  0  0  0  0  0  0  0  0  0  0
   13.4854    9.2023   -0.8122 H   0  0  0  0  0  0  0  0  0  0  0  0
   13.7883    6.5169    0.8295 H   0  0  0  0  0  0  0  0  0  0  0  0
   13.7408    6.6034   -0.9556 H   0  0  0  0  0  0  0  0  0  0  0  0
   11.4575    7.4337   -0.8529 H   0  0  0  0  0  0  0  0  0  0  0  0
   11.4958    7.3981    0.8944 H   0  0  0  0  0  0  0  0  0  0  0  0
   10.6853    5.5072   -0.9653 H   0  0  0  0  0  0  0  0  0  0  0  0
   10.8663    5.4672    0.8893 H   0  0  0  0  0  0  0  0  0  0  0  0
    9.5719    4.2310    0.2017 H   0  0  0  0  0  0  0  0  0  0  0  0
    8.8508    5.7056    1.0068 H   0  0  0  0  0  0  0  0  0  0  0  0
    7.3232    5.5135   -0.2355 H   0  0  0  0  0  0  0  0  0  0  0  0
    8.0482    4.0214   -0.9972 H   0  0  0  0  0  0  0  0  0  0  0  0
    6.0601    4.2167   -0.9443 H   0  0  0  0  0  0  0  0  0  0  0  0
    6.1533    4.3176    0.9081 H   0  0  0  0  0  0  0  0  0  0  0  0
    5.4641    2.2535   -0.7915 H   0  0  0  0  0  0  0  0  0  0  0  0
    5.3492    2.4214    0.9450 H   0  0  0  0  0  0  0  0  0  0  0  0
    3.2414    3.0822   -1.0962 H   0  0  0  0  0  0  0  0  0  0  0  0
    3.0694    3.3583    0.6683 H   0  0  0  0  0  0  0  0  0  0  0  0
    3.3527    0.8766    1.1336 H   0  0  0  0  0  0  0  0  0  0  0  0
    3.6340    0.5178   -0.5951 H   0  0  0  0  0  0  0  0  0  0  0  0
    1.1726    0.9229   -1.1204 H   0  0  0  0  0  0  0  0  0  0  0  0
    0.9335    1.4688    0.5572 H   0  0  0  0  0  0  0  0  0  0  0  0
   -1.8296   -2.5789   -0.9264 H   0  0  0  0  0  0  0  0  0  0  0  0
   -1.9312   -0.5023   -1.0261 H   0  0  0  0  0  0  0  0  0  0  0  0
   -1.5183   -0.2448    0.6816 H   0  0  0  0  0  0  0  0  0  0  0  0
   -4.9020    1.7950    1.7437 H   0  0  0  0  0  0  0  0  0  0  0  0
   -6.1518    0.8627    0.8554 H   0  0  0  0  0  0  0  0  0  0  0  0
   -6.0336    2.5351   -1.0171 H   0  0  0  0  0  0  0  0  0  0  0  0
   -4.7854    3.3815   -0.1707 H   0  0  0  0  0  0  0  0  0  0  0  0
   -7.4490    3.5488    0.0276 H   0  0  0  0  0  0  0  0  0  0  0  0
   -6.1483    4.4714    1.0217 H   0  0  0  0  0  0  0  0  0  0  0  0
   -7.6679    5.3112   -1.0404 H   0  0  0  0  0  0  0  0  0  0  0  0
   -8.1024    5.1847    0.7308 H   0  0  0  0  0  0  0  0  0  0  0  0
   -7.1888    7.2202   -0.6472 H   0  0  0  0  0  0  0  0  0  0  0  0
   -7.7442    7.0479    1.0766 H   0  0  0  0  0  0  0  0  0  0  0  0
   -8.9514    8.0585   -1.1125 H   0  0  0  0  0  0  0  0  0  0  0  0
   -7.9178    8.8262    0.2270 H   0  0  0  0  0  0  0  0  0  0  0  0
  -10.5356    9.0650   -0.3747 H   0  0  0  0  0  0  0  0  0  0  0  0
   -9.7227    9.4839    1.1033 H   0  0  0  0  0  0  0  0  0  0  0  0
   -9.1346   11.6560    0.2160 H   0  0  0  0  0  0  0  0  0  0  0  0
   -9.8564   11.2289   -1.3622 H   0  0  0  0  0  0  0  0  0  0  0  0
  -11.5187   11.5165    1.3133 H   0  0  0  0  0  0  0  0  0  0  0  0
  -12.2145   11.1296   -0.2865 H   0  0  0  0  0  0  0  0  0  0  0  0
  -11.5541   13.3461   -1.0878 H   0  0  0  0  0  0  0  0  0  0  0  0
  -10.8639   13.7127    0.4844 H   0  0  0  0  0  0  0  0  0  0  0  0
  -12.6289   14.5997    1.1201 H   0  0  0  0  0  0  0  0  0  0  0  0
  -13.4546   14.0818   -0.3630 H   0  0  0  0  0  0  0  0  0  0  0  0
  -13.2493   15.9666   -1.1266 H   0  0  0  0  0  0  0  0  0  0  0  0
  -12.3243   16.4552    0.2296 H   0  0  0  0  0  0  0  0  0  0  0  0
  -13.8323   17.4340    1.0915 H   0  0  0  0  0  0  0  0  0  0  0  0
  -13.9054   19.2047    0.0746 H   0  0  0  0  0  0  0  0  0  0  0  0
  -15.0584   18.5580   -1.0914 H   0  0  0  0  0  0  0  0  0  0  0  0
  -15.3340   19.4612    0.0000 H   0  0  0  0  0  0  0  0  0  0  0  0
  -15.4121   16.1059   -1.0565 H   0  0  0  0  0  0  0  0  0  0  0  0
  -15.3566   15.8767    0.9541 H   0  0  0  0  0  0  0  0  0  0  0  0
  -16.2748   15.9506    0.0000 H   0  0  0  0  0  0  0  0  0  0  0  0
   -0.2197   -3.5166    1.0627 H   0  0  0  0  0  0  0  0  0  0  0  0
   -1.3078   -4.3671    0.0491 H   0  0  0  0  0  0  0  0  0  0  0  0
    2.0082   -6.6729   -1.7707 H   0  0  0  0  0  0  0  0  0  0  0  0
    3.3466   -5.5722   -1.2994 H   0  0  0  0  0  0  0  0  0  0  0  0
    3.7086   -6.8674    0.8060 H   0  0  0  0  0  0  0  0  0  0  0  0
    2.2014   -7.7495    0.4230 H   0  0  0  0  0  0  0  0  0  0  0  0
    3.5921   -9.0111    1.0396 H   0  0  0  0  0  0  0  0  0  0  0  0
    3.2297   -9.1513   -0.7590 H   0  0  0  0  0  0  0  0  0  0  0  0
    5.1754   -9.7506   -0.9846 H   0  0  0  0  0  0  0  0  0  0  0  0
    5.4662   -9.6143    0.7155 H   0  0  0  0  0  0  0  0  0  0  0  0
    5.0615  -11.5679    1.0337 H   0  0  0  0  0  0  0  0  0  0  0  0
    4.6746  -11.6721   -0.7676 H   0  0  0  0  0  0  0  0  0  0  0  0
    5.2925  -13.3241    0.0381 H   0  0  0  0  0  0  0  0  0  0  0  0
    6.5505  -12.4562   -1.0496 H   0  0  0  0  0  0  0  0  0  0  0  0
    6.8364  -14.2467    1.0702 H   0  0  0  0  0  0  0  0  0  0  0  0
    7.9986  -13.5556   -0.0074 H   0  0  0  0  0  0  0  0  0  0  0  0
    6.3016  -16.0434   -0.6455 H   0  0  0  0  0  0  0  0  0  0  0  0
    7.5256  -15.3363   -1.7391 H   0  0  0  0  0  0  0  0  0  0  0  0
    8.0984  -16.5180    1.0565 H   0  0  0  0  0  0  0  0  0  0  0  0
    8.3076  -18.4786    0.1791 H   0  0  0  0  0  0  0  0  0  0  0  0
    9.3988  -17.8816   -1.1020 H   0  0  0  0  0  0  0  0  0  0  0  0
    9.7360  -18.7652    0.0000 H   0  0  0  0  0  0  0  0  0  0  0  0
   11.5653  -15.7735    0.6521 H   0  0  0  0  0  0  0  0  0  0  0  0
   10.6589  -14.2052    0.6186 H   0  0  0  0  0  0  0  0  0  0  0  0
   11.9756  -14.5044    0.0000 H   0  0  0  0  0  0  0  0  0  0  0  0
  1  2  1  0  0  0  0
  1 57  1  0  0  0  0
  1 58  1  0  0  0  0
  1 59  1  0  0  0  0
  2  3  1  0  0  0  0
  3  4  1  0  0  0  0
  3 60  1  0  0  0  0
  3 61  1  0  0  0  0
  4  5  1  0  0  0  0
  4 62  1  0  0  0  0
  4 63  1  0  0  0  0
  5  6  1  0  0  0  0
  6  7  1  0  0  0  0
  6 64  1  0  0  0  0
  6 65  1  0  0  0  0
  7  8  1  0  0  0  0
  7 66  1  0  0  0  0
  7 67  1  0  0  0  0
  8  9  1  0  0  0  0
  8 68  1  0  0  0  0
  8 69  1  0  0  0  0
  9 10  1  0  0  0  0
  9 70  1  0  0  0  0
  9 71  1  0  0  0  0
 10 11  1  0  0  0  0
 10 72  1  0  0  0  0
 10 73  1  0  0  0  0
 11 12  1  0  0  0  0
 11 74  1  0  0  0  0
 11 75  1  0  0  0  0
 12 13  1  0  0  0  0
 12 76  1  0  0  0  0
 12 77  1  0  0  0  0
 13 14  1  0  0  0  0
 13 78  1  0  0  0  0
 13 79  1  0  0  0  0
 14 15  1  0  0  0  0
 14 80  1  0  0  0  0
 14 81  1  0  0  0  0
 15 16  1  0  0  0  0
 15 82  1  0  0  0  0
 15 83  1  0  0  0  0
 16 17  1  0  0  0  0
 16 84  1  0  0  0  0
 16 85  1  0  0  0  0
 17 18  1  0  0  0  0
 17 86  1  0  0  0  0
 17 87  1  0  0  0  0
 18 19  2  0  0  0  0
 18 20  1  0  0  0  0
 20 21  1  0  0  0  0
 21 22  1  0  0  0  0
 21 41  1  0  0  0  0
 21 88  1  1  0  0  0
 22 23  1  0  0  0  0
 22 89  1  0  0  0  0
 22 90  1  0  0  0  0
 23 24  1  0  0  0  0
 24 25  2  0  0  0  0
 24 26  1  0  0  0  0
 26 27  1  0  0  0  0
 26 91  1  0  0  0  0
 26 92  1  0  0  0  0
 27 28  1  0  0  0  0
 27 93  1  0  0  0  0
 27 94  1  0  0  0  0
 28 29  1  0  0  0  0
 28 95  1  0  0  0  0
 28 96  1  0  0  0  0
 29 30  1  0  0  0  0
 29 97  1  0  0  0  0
 29 98  1  0  0  0  0
 30 31  1  0  0  0  0
 30 99  1  0  0  0  0
 30100  1  0  0  0  0
 31 32  1  0  0  0  0
 31101  1  0  0  0  0
 31102  1  0  0  0  0
 32 33  1  0  0  0  0
 32103  1  0  0  0  0
 32104  1  0  0  0  0
 33 34  1  0  0  0  0
 33105  1  0  0  0  0
 33106  1  0  0  0  0
 34 35  1  0  0  0  0
 34107  1  0  0  0  0
 34108  1  0  0  0  0
 35 36  1  0  0  0  0
 35109  1  0  0  0  0
 35110  1  0  0  0  0
 36 37  1  0  0  0  0
 36111  1  0  0  0  0
 36112  1  0  0  0  0
 37 38  1  0  0  0  0
 37113  1  0  0  0  0
 37114  1  0  0  0  0
 38 39  1  0  0  0  0
 38 40  1  0  0  0  0
 38115  1  0  0  0  0
 39116  1  0  0  0  0
 39117  1  0  0  0  0
 39118  1  0  0  0  0
 40119  1  0  0  0  0
 40120  1  0  0  0  0
 40121  1  0  0  0  0
 41 42  1  0  0  0  0
 41122  1  0  0  0  0
 41123  1  0  0  0  0
 42 43  1  0  0  0  0
 43 44  2  0  0  0  0
 43 45  1  0  0  0  0
 45 46  1  0  0  0  0
 45124  1  0  0  0  0
 45125  1  0  0  0  0
 46 47  1  0  0  0  0
 46126  1  0  0  0  0
 46127  1  0  0  0  0
 47 48  1  0  0  0  0
 47128  1  0  0  0  0
 47129  1  0  0  0  0
 48 49  1  0  0  0  0
 48130  1  0  0  0  0
 48131  1  0  0  0  0
 49 50  1  0  0  0  0
 49132  1  0  0  0  0
 49133  1  0  0  0  0
 50 51  1  0  0  0  0
 50134  1  0  0  0  0
 50135  1  0  0  0  0
 51 52  1  0  0  0  0
 51136  1  0  0  0  0
 51137  1  0  0  0  0
 52 53  1  0  0  0  0
 52138  1  0  0  0  0
 52139  1  0  0  0  0
 53 54  1  0  0  0  0
 53 55  1  0  0  0  0
 53140  1  0  0  0  0
 54141  1  0  0  0  0
 54142  1  0  0  0  0
 54143  1  0  0  0  0
 55 56  1  0  0  0  0
 56144  1  0  0  0  0
 56145  1  0  0  0  0
 56146  1  0  0  0  0
M  END
>  <IDENTIFIER>
CNP0532006.2

>  <Energy>
13307.2

$$$$
