
 OpenBabel09052505143D

 43 44  0  0  0  0  0  0  0  0999 V2000
   -3.4410   -3.5581   -0.3597 C   0  0  0  0  0  0  0  0  0  0  0  0
   -3.1793   -2.2747   -0.0776 C   0  0  0  0  0  0  0  0  0  0  0  0
   -4.1560   -1.2824    0.3219 C   0  0  0  0  0  0  0  0  0  0  0  0
   -5.3525   -1.4839    0.4586 O   0  0  0  0  0  0  0  0  0  0  0  0
   -3.5784   -0.1003    0.5732 O   0  0  0  0  0  0  0  0  0  0  0  0
   -2.2448   -0.1313    0.2141 C   0  0  1  0  0  0  0  0  0  0  0  0
   -1.3378    0.5779    1.2180 C   0  0  0  0  0  0  0  0  0  0  0  0
   -1.2660    2.0745    0.9427 C   0  0  0  0  0  0  0  0  0  0  0  0
   -2.4571    2.9406    1.2479 C   0  0  0  0  0  0  0  0  0  0  0  0
   -0.1507    2.6482    0.4153 C   0  0  0  0  0  0  0  0  0  0  0  0
    1.0730    1.8474    0.0194 C   0  0  0  0  0  0  0  0  0  0  0  0
    0.7657    0.9072   -1.1818 C   0  0  0  0  0  0  0  0  0  0  0  0
    1.3526   -0.4859   -1.0460 C   0  0  0  0  0  0  0  0  0  0  0  0
    2.8641   -0.6189   -0.9596 C   0  0  0  0  0  0  0  0  0  0  0  0
    3.3478   -0.0120    0.1801 O   0  0  0  0  0  0  0  0  0  0  0  0
    4.6632    0.0210    0.5163 C   0  0  0  0  0  0  0  0  0  0  0  0
    5.0899    0.7220    1.7643 C   0  0  0  0  0  0  0  0  0  0  0  0
    5.5051   -0.5194   -0.1879 O   0  0  0  0  0  0  0  0  0  0  0  0
    0.6025   -1.6313   -1.0678 C   0  0  0  0  0  0  0  0  0  0  0  0
   -0.9094   -1.8437   -1.2362 C   0  0  0  0  0  0  0  0  0  0  0  0
   -1.8313   -1.6219    0.0073 C   0  0  2  0  0  0  0  0  0  0  0  0
   -4.4609   -3.9290   -0.3477 H   0  0  0  0  0  0  0  0  0  0  0  0
   -2.6434   -4.2515   -0.6006 H   0  0  0  0  0  0  0  0  0  0  0  0
   -2.2254    0.3616   -0.7774 H   0  0  0  0  0  0  0  0  0  0  0  0
   -0.3449    0.1208    1.1059 H   0  0  0  0  0  0  0  0  0  0  0  0
   -1.6193    0.3501    2.2682 H   0  0  0  0  0  0  0  0  0  0  0  0
   -3.2883    2.3411    1.6740 H   0  0  0  0  0  0  0  0  0  0  0  0
   -2.8149    3.4271    0.3155 H   0  0  0  0  0  0  0  0  0  0  0  0
   -2.1764    3.7233    1.9836 H   0  0  0  0  0  0  0  0  0  0  0  0
   -0.1250    3.7230    0.2570 H   0  0  0  0  0  0  0  0  0  0  0  0
    1.4042    1.3012    0.9264 H   0  0  0  0  0  0  0  0  0  0  0  0
    1.9191    2.5109   -0.2612 H   0  0  0  0  0  0  0  0  0  0  0  0
    1.1213    1.3940   -2.1151 H   0  0  0  0  0  0  0  0  0  0  0  0
   -0.3072    0.8139   -1.3417 H   0  0  0  0  0  0  0  0  0  0  0  0
    3.3136   -0.1438   -1.8586 H   0  0  0  0  0  0  0  0  0  0  0  0
    3.1773   -1.6869   -0.9494 H   0  0  0  0  0  0  0  0  0  0  0  0
    4.2095    1.1586    2.2815 H   0  0  0  0  0  0  0  0  0  0  0  0
    5.7998    1.5368    1.5100 H   0  0  0  0  0  0  0  0  0  0  0  0
    5.5886    0.0013    2.4460 H   0  0  0  0  0  0  0  0  0  0  0  0
    1.1528   -2.5683   -1.0187 H   0  0  0  0  0  0  0  0  0  0  0  0
   -0.9811   -2.9305   -1.4480 H   0  0  0  0  0  0  0  0  0  0  0  0
   -1.2959   -1.3392   -2.1479 H   0  0  0  0  0  0  0  0  0  0  0  0
   -1.3707   -2.0849    0.9090 H   0  0  0  0  0  0  0  0  0  0  0  0
  1  2  2  0  0  0  0
  1 22  1  0  0  0  0
  1 23  1  0  0  0  0
  2  3  1  0  0  0  0
  3  4  2  0  0  0  0
  3  5  1  0  0  0  0
  5  6  1  0  0  0  0
  6  7  1  0  0  0  0
  6 24  1  6  0  0  0
  7  8  1  0  0  0  0
  7 25  1  0  0  0  0
  7 26  1  0  0  0  0
  8  9  1  0  0  0  0
  8 10  2  0  0  0  0
  9 27  1  0  0  0  0
  9 28  1  0  0  0  0
  9 29  1  0  0  0  0
 10 11  1  0  0  0  0
 10 30  1  0  0  0  0
 11 12  1  0  0  0  0
 11 31  1  0  0  0  0
 11 32  1  0  0  0  0
 12 13  1  0  0  0  0
 12 33  1  0  0  0  0
 12 34  1  0  0  0  0
 13 14  1  0  0  0  0
 13 19  2  0  0  0  0
 14 15  1  0  0  0  0
 14 35  1  0  0  0  0
 14 36  1  0  0  0  0
 15 16  1  0  0  0  0
 16 17  1  0  0  0  0
 16 18  2  0  0  0  0
 17 37  1  0  0  0  0
 17 38  1  0  0  0  0
 17 39  1  0  0  0  0
 19 20  1  0  0  0  0
 19 40  1  0  0  0  0
 20 41  1  0  0  0  0
 20 42  1  0  0  0  0
 21 20  1  0  0  0  0
 21  2  1  0  0  0  0
 21  6  1  0  0  0  0
 21 43  1  1  0  0  0
M  END
>  <IDENTIFIER>
CNP0159727.2

>  <Energy>
441.212

$$$$
