
 OpenBabel09082523253D

170175  0  0  0  0  0  0  0  0999 V2000
   -6.2105    5.4481   -0.5042 C   0  0  0  0  0  0  0  0  0  0  0  0
   -7.5612    4.7398   -0.6425 C   0  0  0  0  0  0  0  0  0  0  0  0
   -7.9762    4.6562   -2.1186 C   0  0  0  0  0  0  0  0  0  0  0  0
   -7.6329    3.3597    0.0704 C   0  0  0  0  0  0  0  0  0  0  0  0
   -6.8015    2.1777   -0.5109 C   0  0  2  0  0  0  0  0  0  0  0  0
   -7.0453    0.8716    0.1274 N   0  0  0  0  0  0  0  0  0  0  0  0
   -7.8949    0.5723    1.1656 C   0  0  0  0  0  0  0  0  0  0  0  0
   -8.6514    1.4087    1.6297 O   0  0  0  0  0  0  0  0  0  0  0  0
   -7.9490   -0.8084    1.7952 C   0  0  0  0  0  0  0  0  0  0  0  0
   -6.8429   -1.6769    1.4298 N   0  0  0  0  0  0  0  0  0  0  0  0
   -5.5523   -1.3893    1.7680 C   0  0  0  0  0  0  0  0  0  0  0  0
   -5.2848   -0.3468    2.3520 O   0  0  0  0  0  0  0  0  0  0  0  0
   -4.4324   -2.3560    1.4389 C   0  0  2  0  0  0  0  0  0  0  0  0
   -3.6979   -2.7776    2.7424 C   0  0  0  0  0  0  0  0  0  0  0  0
   -4.5902   -3.4903    3.7772 C   0  0  0  0  0  0  0  0  0  0  0  0
   -5.0874   -4.8559    3.2939 C   0  0  0  0  0  0  0  0  0  0  0  0
   -5.8528   -5.4879    4.3469 N   0  0  0  0  0  0  0  0  0  0  0  0
   -6.3798   -6.6666    4.2725 C   0  0  0  0  0  0  0  0  0  0  0  0
   -6.2417   -7.4804    3.1117 N   0  0  0  0  0  0  0  0  0  0  0  0
   -7.1108   -7.1614    5.3812 N   0  0  0  0  0  0  0  0  0  0  0  0
   -3.5048   -1.7316    0.5016 N   0  0  0  0  0  0  0  0  0  0  0  0
   -2.4942   -2.4261   -0.0934 C   0  0  0  0  0  0  0  0  0  0  0  0
   -2.3195   -3.6078    0.1717 O   0  0  0  0  0  0  0  0  0  0  0  0
   -1.5704   -1.7572   -1.0861 C   0  0  2  0  0  0  0  0  0  0  0  0
   -1.7323   -2.2594   -2.5423 C   0  0  0  0  0  0  0  0  0  0  0  0
   -1.7211   -3.7514   -2.7347 C   0  0  0  0  0  0  0  0  0  0  0  0
   -0.6796   -4.5212   -3.2414 C   0  0  0  0  0  0  0  0  0  0  0  0
   -1.0465   -5.8230   -3.2911 N   0  0  0  0  0  0  0  0  0  0  0  0
   -2.3128   -5.8811   -2.8409 C   0  0  0  0  0  0  0  0  0  0  0  0
   -3.1223   -7.0103   -2.7210 C   0  0  0  0  0  0  0  0  0  0  0  0
   -4.4327   -6.8342   -2.2390 C   0  0  0  0  0  0  0  0  0  0  0  0
   -4.9026   -5.5469   -1.8981 C   0  0  0  0  0  0  0  0  0  0  0  0
   -4.0651   -4.4273   -2.0322 C   0  0  0  0  0  0  0  0  0  0  0  0
   -2.7632   -4.6327   -2.4998 C   0  0  0  0  0  0  0  0  0  0  0  0
   -0.1948   -1.9190   -0.6251 N   0  0  0  0  0  0  0  0  0  0  0  0
    0.5927   -0.8549   -0.3006 C   0  0  0  0  0  0  0  0  0  0  0  0
    0.1762    0.2850   -0.4305 O   0  0  0  0  0  0  0  0  0  0  0  0
    1.9776   -1.0378    0.2523 C   0  0  0  0  0  0  0  0  0  0  0  0
    2.8576   -1.7365   -0.6657 N   0  0  0  0  0  0  0  0  0  0  0  0
    4.1839   -1.8506   -0.3829 C   0  0  0  0  0  0  0  0  0  0  0  0
    4.6337   -1.3215    0.6251 O   0  0  0  0  0  0  0  0  0  0  0  0
    5.1399   -2.5277   -1.3437 C   0  0  2  0  0  0  0  0  0  0  0  0
    5.8803   -3.7581   -0.7548 C   0  0  0  0  0  0  0  0  0  0  0  0
    6.5625   -3.5072    0.5689 C   0  0  0  0  0  0  0  0  0  0  0  0
    7.9142   -3.2540    0.7795 C   0  0  0  0  0  0  0  0  0  0  0  0
    8.1524   -3.0603    2.0983 N   0  0  0  0  0  0  0  0  0  0  0  0
    6.9707   -3.2041    2.7247 C   0  0  0  0  0  0  0  0  0  0  0  0
    6.7133   -3.0922    4.0920 C   0  0  0  0  0  0  0  0  0  0  0  0
    5.3910   -3.2891    4.5314 C   0  0  0  0  0  0  0  0  0  0  0  0
    4.3684   -3.5966    3.6075 C   0  0  0  0  0  0  0  0  0  0  0  0
    4.6583   -3.7041    2.2364 C   0  0  0  0  0  0  0  0  0  0  0  0
    5.9775   -3.4902    1.8255 C   0  0  0  0  0  0  0  0  0  0  0  0
    6.0811   -1.5093   -1.7850 N   0  0  0  0  0  0  0  0  0  0  0  0
    5.9321   -0.8478   -2.9700 C   0  0  0  0  0  0  0  0  0  0  0  0
    5.0581   -1.1744   -3.7618 O   0  0  0  0  0  0  0  0  0  0  0  0
    6.7396    0.4019   -3.2544 C   0  0  2  0  0  0  0  0  0  0  0  0
    8.2109    0.0423   -3.5612 C   0  0  0  0  0  0  0  0  0  0  0  0
    9.0155    1.1516   -4.2800 C   0  0  0  0  0  0  0  0  0  0  0  0
    9.1517    2.4621   -3.5406 C   0  0  0  0  0  0  0  0  0  0  0  0
   10.3647    2.9021   -3.1322 N   0  0  0  0  0  0  0  0  0  0  0  0
    8.1664    3.1574   -3.3469 O   0  0  0  0  0  0  0  0  0  0  0  0
    6.6314    1.2798   -2.0901 N   0  0  0  0  0  0  0  0  0  0  0  0
    5.4282    1.7282   -1.6160 C   0  0  0  0  0  0  0  0  0  0  0  0
    4.4007    1.4543   -2.2224 O   0  0  0  0  0  0  0  0  0  0  0  0
    5.2805    2.5125   -0.3123 C   0  0  1  0  0  0  0  0  0  0  0  0
    6.6039    2.7854    0.4342 C   0  0  0  0  0  0  0  0  0  0  0  0
    7.4236    3.6341   -0.3220 O   0  0  0  0  0  0  0  0  0  0  0  0
    4.5494    3.7503   -0.5609 N   0  0  0  0  0  0  0  0  0  0  0  0
    4.0024    4.5030    0.4370 C   0  0  0  0  0  0  0  0  0  0  0  0
    4.1441    4.1773    1.6074 O   0  0  0  0  0  0  0  0  0  0  0  0
    3.1322    5.6996    0.0924 C   0  0  2  0  0  0  0  0  0  0  0  0
    3.5800    7.0165    0.7332 C   0  0  0  0  0  0  0  0  0  0  0  0
    2.8537    7.0005    2.0608 C   0  0  0  0  0  0  0  0  0  0  0  0
    1.4863    6.4373    1.6725 C   0  0  0  0  0  0  0  0  0  0  0  0
    1.7956    5.4834    0.6259 N   0  0  0  0  0  0  0  0  0  0  0  0
    0.9650    4.5110    0.1264 C   0  0  0  0  0  0  0  0  0  0  0  0
    1.3505    3.8696   -0.8440 O   0  0  0  0  0  0  0  0  0  0  0  0
   -0.3987    4.1302    0.7235 C   0  0  2  0  0  0  0  0  0  0  0  0
   -0.2361    3.1563    1.9224 C   0  0  0  0  0  0  0  0  0  0  0  0
    0.2767    3.7504    3.2003 C   0  0  0  0  0  0  0  0  0  0  0  0
    1.3328    3.3632    3.6712 O   0  0  0  0  0  0  0  0  0  0  0  0
   -0.4542    4.6669    3.8712 O   0  0  0  0  0  0  0  0  0  0  0  0
   -1.1438    3.3654   -0.2713 N   0  0  0  0  0  0  0  0  0  0  0  0
   -2.4466    3.5686   -0.6108 C   0  0  0  0  0  0  0  0  0  0  0  0
   -3.0893    4.4804   -0.1116 O   0  0  0  0  0  0  0  0  0  0  0  0
   -3.0985    2.5542   -1.5388 C   0  0  2  0  0  0  0  0  0  0  0  0
   -2.5346    2.7124   -2.9638 C   0  0  0  0  0  0  0  0  0  0  0  0
   -3.0503    1.7267   -3.8176 O   0  0  0  0  0  0  0  0  0  0  0  0
   -4.5592    2.5874   -1.5462 N   0  0  0  0  0  0  0  0  0  0  0  0
   -5.3077    2.4127   -0.4177 C   0  0  0  0  0  0  0  0  0  0  0  0
   -4.7724    2.3665    0.6821 O   0  0  0  0  0  0  0  0  0  0  0  0
   -6.2855    6.4792   -0.9107 H   0  0  0  0  0  0  0  0  0  0  0  0
   -5.4212    4.9338   -1.0763 H   0  0  0  0  0  0  0  0  0  0  0  0
   -5.9189    5.5179    0.5652 H   0  0  0  0  0  0  0  0  0  0  0  0
   -8.3040    5.3863   -0.1231 H   0  0  0  0  0  0  0  0  0  0  0  0
   -7.2496    4.0579   -2.7064 H   0  0  0  0  0  0  0  0  0  0  0  0
   -8.0199    5.6744   -2.5605 H   0  0  0  0  0  0  0  0  0  0  0  0
   -8.9832    4.1965   -2.2103 H   0  0  0  0  0  0  0  0  0  0  0  0
   -8.7030    3.0714   -0.0104 H   0  0  0  0  0  0  0  0  0  0  0  0
   -7.3788    3.5037    1.1436 H   0  0  0  0  0  0  0  0  0  0  0  0
   -7.0896    2.0760   -1.5777 H   0  0  0  0  0  0  0  0  0  0  0  0
   -6.4836    0.0992   -0.2611 H   0  0  0  0  0  0  0  0  0  0  0  0
   -8.9183   -1.2803    1.5254 H   0  0  0  0  0  0  0  0  0  0  0  0
   -7.9279   -0.6938    2.9014 H   0  0  0  0  0  0  0  0  0  0  0  0
   -7.0573   -2.5612    0.9447 H   0  0  0  0  0  0  0  0  0  0  0  0
   -4.8630   -3.2492    0.9383 H   0  0  0  0  0  0  0  0  0  0  0  0
   -3.2762   -1.8642    3.2170 H   0  0  0  0  0  0  0  0  0  0  0  0
   -2.8442   -3.4493    2.5210 H   0  0  0  0  0  0  0  0  0  0  0  0
   -5.4518   -2.8457    4.0544 H   0  0  0  0  0  0  0  0  0  0  0  0
   -3.9800   -3.6542    4.6927 H   0  0  0  0  0  0  0  0  0  0  0  0
   -4.2083   -5.4903    3.0432 H   0  0  0  0  0  0  0  0  0  0  0  0
   -5.7307   -4.7376    2.3971 H   0  0  0  0  0  0  0  0  0  0  0  0
   -5.7185   -7.1692    2.2817 H   0  0  0  0  0  0  0  0  0  0  0  0
   -6.6699   -8.4170    3.0884 H   0  0  0  0  0  0  0  0  0  0  0  0
   -7.2232   -6.5894    6.2311 H   0  0  0  0  0  0  0  0  0  0  0  0
   -7.5391   -8.0977    5.3494 H   0  0  0  0  0  0  0  0  0  0  0  0
   -3.6450   -0.7432    0.2384 H   0  0  0  0  0  0  0  0  0  0  0  0
   -1.8299   -0.6788   -1.1374 H   0  0  0  0  0  0  0  0  0  0  0  0
   -0.9178   -1.7979   -3.1426 H   0  0  0  0  0  0  0  0  0  0  0  0
   -2.6888   -1.8866   -2.9690 H   0  0  0  0  0  0  0  0  0  0  0  0
    0.2894   -4.1519   -3.5501 H   0  0  0  0  0  0  0  0  0  0  0  0
   -0.4626   -6.6222   -3.6247 H   0  0  0  0  0  0  0  0  0  0  0  0
   -2.7575   -7.9924   -2.9930 H   0  0  0  0  0  0  0  0  0  0  0  0
   -5.0879   -7.6887   -2.1332 H   0  0  0  0  0  0  0  0  0  0  0  0
   -5.9138   -5.4203   -1.5334 H   0  0  0  0  0  0  0  0  0  0  0  0
   -4.4259   -3.4390   -1.7778 H   0  0  0  0  0  0  0  0  0  0  0  0
    0.1845   -2.8727   -0.5180 H   0  0  0  0  0  0  0  0  0  0  0  0
    1.9266   -1.5934    1.2135 H   0  0  0  0  0  0  0  0  0  0  0  0
    2.4003   -0.0266    0.4545 H   0  0  0  0  0  0  0  0  0  0  0  0
    2.4864   -2.1190   -1.5491 H   0  0  0  0  0  0  0  0  0  0  0  0
    4.5576   -2.9046   -2.2128 H   0  0  0  0  0  0  0  0  0  0  0  0
    6.6338   -4.0835   -1.5047 H   0  0  0  0  0  0  0  0  0  0  0  0
    5.1777   -4.6075   -0.6151 H   0  0  0  0  0  0  0  0  0  0  0  0
    8.6759   -3.1986    0.0127 H   0  0  0  0  0  0  0  0  0  0  0  0
    9.0728   -2.8420    2.5400 H   0  0  0  0  0  0  0  0  0  0  0  0
    7.5031   -2.8598    4.7943 H   0  0  0  0  0  0  0  0  0  0  0  0
    5.1548   -3.2065    5.5845 H   0  0  0  0  0  0  0  0  0  0  0  0
    3.3549   -3.7489    3.9554 H   0  0  0  0  0  0  0  0  0  0  0  0
    3.8767   -3.9378    1.5252 H   0  0  0  0  0  0  0  0  0  0  0  0
    6.7719   -1.1559   -1.1047 H   0  0  0  0  0  0  0  0  0  0  0  0
    6.3188    0.8928   -4.1615 H   0  0  0  0  0  0  0  0  0  0  0  0
    8.2120   -0.8142   -4.2722 H   0  0  0  0  0  0  0  0  0  0  0  0
    8.7269   -0.2941   -2.6355 H   0  0  0  0  0  0  0  0  0  0  0  0
    8.5499    1.3639   -5.2673 H   0  0  0  0  0  0  0  0  0  0  0  0
   10.0269    0.7351   -4.4775 H   0  0  0  0  0  0  0  0  0  0  0  0
   11.2156    2.3461   -3.3000 H   0  0  0  0  0  0  0  0  0  0  0  0
   10.4537    3.8067   -2.6457 H   0  0  0  0  0  0  0  0  0  0  0  0
    7.4944    1.4944   -1.5756 H   0  0  0  0  0  0  0  0  0  0  0  0
    4.6518    1.8643    0.3394 H   0  0  0  0  0  0  0  0  0  0  0  0
    7.1156    1.8159    0.6333 H   0  0  0  0  0  0  0  0  0  0  0  0
    6.4016    3.2604    1.4163 H   0  0  0  0  0  0  0  0  0  0  0  0
    8.3008    3.6534    0.1417 H   0  0  0  0  0  0  0  0  0  0  0  0
    4.3675    4.0281   -1.5381 H   0  0  0  0  0  0  0  0  0  0  0  0
    3.1130    5.8473   -1.0104 H   0  0  0  0  0  0  0  0  0  0  0  0
    3.1253    7.8489    0.1490 H   0  0  0  0  0  0  0  0  0  0  0  0
    4.6787    7.1778    0.7720 H   0  0  0  0  0  0  0  0  0  0  0  0
    2.8183    7.9705    2.6001 H   0  0  0  0  0  0  0  0  0  0  0  0
    3.3642    6.2606    2.7155 H   0  0  0  0  0  0  0  0  0  0  0  0
    0.8153    7.2146    1.2473 H   0  0  0  0  0  0  0  0  0  0  0  0
    1.0393    6.0137    2.5740 H   0  0  0  0  0  0  0  0  0  0  0  0
   -0.9796    5.0311    1.0169 H   0  0  0  0  0  0  0  0  0  0  0  0
    0.4190    2.3127    1.6075 H   0  0  0  0  0  0  0  0  0  0  0  0
   -1.2309    2.7262    2.1730 H   0  0  0  0  0  0  0  0  0  0  0  0
   -1.3088    4.9771    3.5375 H   0  0  0  0  0  0  0  0  0  0  0  0
   -0.6809    2.5384   -0.6726 H   0  0  0  0  0  0  0  0  0  0  0  0
   -2.8145    1.5493   -1.1564 H   0  0  0  0  0  0  0  0  0  0  0  0
   -1.4215    2.6659   -2.9681 H   0  0  0  0  0  0  0  0  0  0  0  0
   -2.8151    3.7103   -3.3652 H   0  0  0  0  0  0  0  0  0  0  0  0
   -2.5498    0.8921   -3.6216 H   0  0  0  0  0  0  0  0  0  0  0  0
   -5.0472    2.6549   -2.4527 H   0  0  0  0  0  0  0  0  0  0  0  0
  1  2  1  0  0  0  0
  1 92  1  0  0  0  0
  1 93  1  0  0  0  0
  1 94  1  0  0  0  0
  2  3  1  0  0  0  0
  2  4  1  0  0  0  0
  2 95  1  0  0  0  0
  3 96  1  0  0  0  0
  3 97  1  0  0  0  0
  3 98  1  0  0  0  0
  4 99  1  0  0  0  0
  4100  1  0  0  0  0
  5  4  1  0  0  0  0
  5  6  1  0  0  0  0
  5101  1  6  0  0  0
  6  7  1  0  0  0  0
  6102  1  0  0  0  0
  7  8  2  0  0  0  0
  7  9  1  0  0  0  0
  9 10  1  0  0  0  0
  9103  1  0  0  0  0
  9104  1  0  0  0  0
 10 11  1  0  0  0  0
 10105  1  0  0  0  0
 11 12  2  0  0  0  0
 11 13  1  0  0  0  0
 13 14  1  0  0  0  0
 13 21  1  0  0  0  0
 13106  1  6  0  0  0
 14 15  1  0  0  0  0
 14107  1  0  0  0  0
 14108  1  0  0  0  0
 15 16  1  0  0  0  0
 15109  1  0  0  0  0
 15110  1  0  0  0  0
 16 17  1  0  0  0  0
 16111  1  0  0  0  0
 16112  1  0  0  0  0
 17 18  2  0  0  0  0
 18 19  1  0  0  0  0
 18 20  1  0  0  0  0
 19113  1  0  0  0  0
 19114  1  0  0  0  0
 20115  1  0  0  0  0
 20116  1  0  0  0  0
 21 22  1  0  0  0  0
 21117  1  0  0  0  0
 22 23  2  0  0  0  0
 22 24  1  0  0  0  0
 24 25  1  0  0  0  0
 24 35  1  0  0  0  0
 24118  1  1  0  0  0
 25 26  1  0  0  0  0
 25119  1  0  0  0  0
 25120  1  0  0  0  0
 26 27  2  0  0  0  0
 27 28  1  0  0  0  0
 27121  1  0  0  0  0
 28 29  1  0  0  0  0
 28122  1  0  0  0  0
 29 30  2  0  0  0  0
 30 31  1  0  0  0  0
 30123  1  0  0  0  0
 31 32  2  0  0  0  0
 31124  1  0  0  0  0
 32 33  1  0  0  0  0
 32125  1  0  0  0  0
 33 34  2  0  0  0  0
 33126  1  0  0  0  0
 34 26  1  0  0  0  0
 34 29  1  0  0  0  0
 35 36  1  0  0  0  0
 35127  1  0  0  0  0
 36 37  2  0  0  0  0
 36 38  1  0  0  0  0
 38 39  1  0  0  0  0
 38128  1  0  0  0  0
 38129  1  0  0  0  0
 39 40  1  0  0  0  0
 39130  1  0  0  0  0
 40 41  2  0  0  0  0
 40 42  1  0  0  0  0
 42 43  1  0  0  0  0
 42 53  1  0  0  0  0
 42131  1  6  0  0  0
 43 44  1  0  0  0  0
 43132  1  0  0  0  0
 43133  1  0  0  0  0
 44 45  2  0  0  0  0
 45 46  1  0  0  0  0
 45134  1  0  0  0  0
 46 47  1  0  0  0  0
 46135  1  0  0  0  0
 47 48  2  0  0  0  0
 48 49  1  0  0  0  0
 48136  1  0  0  0  0
 49 50  2  0  0  0  0
 49137  1  0  0  0  0
 50 51  1  0  0  0  0
 50138  1  0  0  0  0
 51 52  2  0  0  0  0
 51139  1  0  0  0  0
 52 44  1  0  0  0  0
 52 47  1  0  0  0  0
 53 54  1  0  0  0  0
 53140  1  0  0  0  0
 54 55  2  0  0  0  0
 54 56  1  0  0  0  0
 56 57  1  0  0  0  0
 56 62  1  0  0  0  0
 56141  1  6  0  0  0
 57 58  1  0  0  0  0
 57142  1  0  0  0  0
 57143  1  0  0  0  0
 58 59  1  0  0  0  0
 58144  1  0  0  0  0
 58145  1  0  0  0  0
 59 60  1  0  0  0  0
 59 61  2  0  0  0  0
 60146  1  0  0  0  0
 60147  1  0  0  0  0
 62 63  1  0  0  0  0
 62148  1  0  0  0  0
 63 64  2  0  0  0  0
 63 65  1  0  0  0  0
 65 66  1  0  0  0  0
 65 68  1  0  0  0  0
 65149  1  1  0  0  0
 66 67  1  0  0  0  0
 66150  1  0  0  0  0
 66151  1  0  0  0  0
 67152  1  0  0  0  0
 68 69  1  0  0  0  0
 68153  1  0  0  0  0
 69 70  2  0  0  0  0
 69 71  1  0  0  0  0
 71 72  1  0  0  0  0
 71154  1  6  0  0  0
 72 73  1  0  0  0  0
 72155  1  0  0  0  0
 72156  1  0  0  0  0
 73 74  1  0  0  0  0
 73157  1  0  0  0  0
 73158  1  0  0  0  0
 74 75  1  0  0  0  0
 74159  1  0  0  0  0
 74160  1  0  0  0  0
 75 76  1  0  0  0  0
 75 71  1  0  0  0  0
 76 77  2  0  0  0  0
 76 78  1  0  0  0  0
 78 79  1  0  0  0  0
 78 83  1  0  0  0  0
 78161  1  1  0  0  0
 79 80  1  0  0  0  0
 79162  1  0  0  0  0
 79163  1  0  0  0  0
 80 81  2  0  0  0  0
 80 82  1  0  0  0  0
 82164  1  0  0  0  0
 83 84  1  0  0  0  0
 83165  1  0  0  0  0
 84 85  2  0  0  0  0
 84 86  1  0  0  0  0
 86 87  1  0  0  0  0
 86 89  1  0  0  0  0
 86166  1  1  0  0  0
 87 88  1  0  0  0  0
 87167  1  0  0  0  0
 87168  1  0  0  0  0
 88169  1  0  0  0  0
 89 90  1  0  0  0  0
 89170  1  0  0  0  0
 90 91  2  0  0  0  0
 90  5  1  0  0  0  0
M  END
>  <IDENTIFIER>
CNP0598781.1

>  <Energy>
1282.18

$$$$
