
 OpenBabel09112509153D

 56 57  0  0  0  0  0  0  0  0999 V2000
    5.7470    2.0294   -2.6157 C   0  0  0  0  0  0  0  0  0  0  0  0
    5.6685    0.6719   -1.9582 C   0  0  0  0  0  0  0  0  0  0  0  0
    6.8181   -0.2903   -2.1139 C   0  0  0  0  0  0  0  0  0  0  0  0
    4.5973    0.2829   -1.2294 C   0  0  0  0  0  0  0  0  0  0  0  0
    3.3651    1.1255   -0.9869 C   0  0  0  0  0  0  0  0  0  0  0  0
    3.1103    1.5060    0.4926 C   0  0  0  0  0  0  0  0  0  0  0  0
    2.8480    0.3533    1.4664 C   0  0  0  0  0  0  0  0  0  0  0  0
    3.9787   -0.5860    1.8110 C   0  0  0  0  0  0  0  0  0  0  0  0
    1.6748    0.1480    2.1285 C   0  0  0  0  0  0  0  0  0  0  0  0
    0.3951    0.9558    2.0405 C   0  0  0  0  0  0  0  0  0  0  0  0
   -0.8101    0.0631    1.7756 C   0  0  0  0  0  0  0  0  0  0  0  0
   -0.9522   -0.6451    0.5537 C   0  0  0  0  0  0  0  0  0  0  0  0
   -0.0482   -0.5497   -0.4383 O   0  0  0  0  0  0  0  0  0  0  0  0
   -2.0648   -1.4603    0.3352 C   0  0  0  0  0  0  0  0  0  0  0  0
   -3.0711   -1.5701    1.2976 C   0  0  0  0  0  0  0  0  0  0  0  0
   -4.2950   -2.4123    1.0306 C   0  0  0  0  0  0  0  0  0  0  0  0
   -5.5197   -1.5137    0.7883 C   0  0  0  0  0  0  0  0  0  0  0  0
   -5.3376   -0.6936   -0.4714 C   0  0  0  0  0  0  0  0  0  0  0  0
   -5.2611   -1.3317   -1.7231 C   0  0  0  0  0  0  0  0  0  0  0  0
   -5.0764   -0.5842   -2.8892 C   0  0  0  0  0  0  0  0  0  0  0  0
   -4.9624    0.8058   -2.8179 C   0  0  0  0  0  0  0  0  0  0  0  0
   -5.0389    1.4507   -1.5803 C   0  0  0  0  0  0  0  0  0  0  0  0
   -5.2290    0.7062   -0.4101 C   0  0  0  0  0  0  0  0  0  0  0  0
   -2.9471   -0.8691    2.5030 C   0  0  0  0  0  0  0  0  0  0  0  0
   -1.8260   -0.0653    2.7534 C   0  0  0  0  0  0  0  0  0  0  0  0
   -1.7278    0.5853    3.9332 O   0  0  0  0  0  0  0  0  0  0  0  0
    6.7015    2.1646   -3.1648 H   0  0  0  0  0  0  0  0  0  0  0  0
    5.6785    2.8274   -1.8466 H   0  0  0  0  0  0  0  0  0  0  0  0
    4.9185    2.1430   -3.3468 H   0  0  0  0  0  0  0  0  0  0  0  0
    7.6345    0.1395   -2.7310 H   0  0  0  0  0  0  0  0  0  0  0  0
    6.4654   -1.2217   -2.6052 H   0  0  0  0  0  0  0  0  0  0  0  0
    7.2340   -0.5408   -1.1149 H   0  0  0  0  0  0  0  0  0  0  0  0
    4.6059   -0.7145   -0.8039 H   0  0  0  0  0  0  0  0  0  0  0  0
    2.5033    0.5816   -1.4111 H   0  0  0  0  0  0  0  0  0  0  0  0
    3.4290    2.0819   -1.5423 H   0  0  0  0  0  0  0  0  0  0  0  0
    2.2593    2.2057    0.4721 H   0  0  0  0  0  0  0  0  0  0  0  0
    3.9731    2.0945    0.8720 H   0  0  0  0  0  0  0  0  0  0  0  0
    4.9318   -0.2866    1.3348 H   0  0  0  0  0  0  0  0  0  0  0  0
    3.7183   -1.6232    1.5109 H   0  0  0  0  0  0  0  0  0  0  0  0
    4.1603   -0.5619    2.9068 H   0  0  0  0  0  0  0  0  0  0  0  0
    1.6357   -0.6737    2.8412 H   0  0  0  0  0  0  0  0  0  0  0  0
    0.4064    1.7596    1.2865 H   0  0  0  0  0  0  0  0  0  0  0  0
    0.2902    1.4581    3.0250 H   0  0  0  0  0  0  0  0  0  0  0  0
    0.7061    0.0414   -0.3919 H   0  0  0  0  0  0  0  0  0  0  0  0
   -2.1573   -1.9861   -0.6076 H   0  0  0  0  0  0  0  0  0  0  0  0
   -4.4631   -3.0914    1.8939 H   0  0  0  0  0  0  0  0  0  0  0  0
   -4.1450   -3.0563    0.1375 H   0  0  0  0  0  0  0  0  0  0  0  0
   -5.6672   -0.8576    1.6740 H   0  0  0  0  0  0  0  0  0  0  0  0
   -6.4333   -2.1361    0.6776 H   0  0  0  0  0  0  0  0  0  0  0  0
   -5.3476   -2.4086   -1.7978 H   0  0  0  0  0  0  0  0  0  0  0  0
   -5.0194   -1.0836   -3.8478 H   0  0  0  0  0  0  0  0  0  0  0  0
   -4.8150    1.3821   -3.7223 H   0  0  0  0  0  0  0  0  0  0  0  0
   -4.9470    2.5278   -1.5286 H   0  0  0  0  0  0  0  0  0  0  0  0
   -5.2790    1.2216    0.5412 H   0  0  0  0  0  0  0  0  0  0  0  0
   -3.7231   -0.9533    3.2545 H   0  0  0  0  0  0  0  0  0  0  0  0
   -2.3988    0.5069    4.6266 H   0  0  0  0  0  0  0  0  0  0  0  0
  1  2  1  0  0  0  0
  1 27  1  0  0  0  0
  1 28  1  0  0  0  0
  1 29  1  0  0  0  0
  2  3  1  0  0  0  0
  2  4  2  0  0  0  0
  3 30  1  0  0  0  0
  3 31  1  0  0  0  0
  3 32  1  0  0  0  0
  4  5  1  0  0  0  0
  4 33  1  0  0  0  0
  5  6  1  0  0  0  0
  5 34  1  0  0  0  0
  5 35  1  0  0  0  0
  6  7  1  0  0  0  0
  6 36  1  0  0  0  0
  6 37  1  0  0  0  0
  7  8  1  0  0  0  0
  7  9  2  3  0  0  0
  8 38  1  0  0  0  0
  8 39  1  0  0  0  0
  8 40  1  0  0  0  0
  9 10  1  0  0  0  0
  9 41  1  0  0  0  0
 10 11  1  0  0  0  0
 10 42  1  0  0  0  0
 10 43  1  0  0  0  0
 11 12  2  0  0  0  0
 12 13  1  0  0  0  0
 12 14  1  0  0  0  0
 13 44  1  0  0  0  0
 14 15  2  0  0  0  0
 14 45  1  0  0  0  0
 15 16  1  0  0  0  0
 15 24  1  0  0  0  0
 16 17  1  0  0  0  0
 16 46  1  0  0  0  0
 16 47  1  0  0  0  0
 17 18  1  0  0  0  0
 17 48  1  0  0  0  0
 17 49  1  0  0  0  0
 18 19  2  0  0  0  0
 19 20  1  0  0  0  0
 19 50  1  0  0  0  0
 20 21  2  0  0  0  0
 20 51  1  0  0  0  0
 21 22  1  0  0  0  0
 21 52  1  0  0  0  0
 22 23  2  0  0  0  0
 22 53  1  0  0  0  0
 23 18  1  0  0  0  0
 23 54  1  0  0  0  0
 24 25  2  0  0  0  0
 24 55  1  0  0  0  0
 25 26  1  0  0  0  0
 25 11  1  0  0  0  0
 26 56  1  0  0  0  0
M  END
>  <IDENTIFIER>
CNP0319500.0

>  <Energy>
242.741

$$$$
