
 OpenBabel09122507403D

 76 79  0  0  0  0  0  0  0  0999 V2000
    7.4266    0.3136    1.3207 C   0  0  0  0  0  0  0  0  0  0  0  0
    6.7978    0.8132    0.0853 N   0  0  0  0  0  0  0  0  0  0  0  0
    5.5108    0.1840   -0.3226 C   0  0  1  0  0  0  0  0  0  0  0  0
    5.3663   -1.2779    0.1714 C   0  0  0  0  0  0  0  0  0  0  0  0
    4.1593   -1.9133   -0.4827 C   0  0  0  0  0  0  0  0  0  0  0  0
    2.8895   -1.1335   -0.2374 C   0  0  0  0  0  0  0  0  0  0  0  0
    1.7583   -1.8231    0.0210 C   0  0  0  0  0  0  0  0  0  0  0  0
    0.3659   -1.2709    0.0457 C   0  0  0  0  0  0  0  0  0  0  0  0
   -0.5724   -2.0763    0.6190 C   0  0  0  0  0  0  0  0  0  0  0  0
   -2.0611   -1.7999    0.6584 C   0  0  0  0  0  0  0  0  0  0  0  0
   -2.3959   -0.3654    0.1885 C   0  0  2  0  0  0  0  0  0  0  0  0
   -2.0823    0.6083    1.3788 C   0  0  0  0  0  0  0  0  0  0  0  0
   -3.8544   -0.1245   -0.3071 C   0  0  1  0  0  0  0  0  0  0  0  0
   -5.0608    0.0119    0.6793 C   0  0  2  0  0  0  0  0  0  0  0  0
   -5.2393   -1.2277    1.5823 C   0  0  0  0  0  0  0  0  0  0  0  0
   -6.3093    0.3497   -0.0707 N   0  0  0  0  0  0  0  0  0  0  0  0
   -7.3754    0.8679    0.8040 C   0  0  0  0  0  0  0  0  0  0  0  0
   -6.8398   -0.7228   -0.9346 C   0  0  0  0  0  0  0  0  0  0  0  0
   -3.7091    1.1001   -1.2578 C   0  0  0  0  0  0  0  0  0  0  0  0
   -2.2012    1.2444   -1.5821 C   0  0  0  0  0  0  0  0  0  0  0  0
   -1.5704   -0.0742   -1.1183 C   0  0  2  0  0  0  0  0  0  0  0  0
   -1.7823   -1.1323   -2.2644 C   0  0  0  0  0  0  0  0  0  0  0  0
   -0.0401    0.0081   -0.7513 C   0  0  2  0  0  0  0  0  0  0  0  0
    0.8734    0.1920   -2.0101 C   0  0  0  0  0  0  0  0  0  0  0  0
    2.2651    0.8109   -1.7253 C   0  0  0  0  0  0  0  0  0  0  0  0
    2.8952    0.3770   -0.3876 C   0  0  2  0  0  0  0  0  0  0  0  0
    4.2658    1.0690    0.0680 C   0  0  2  0  0  0  0  0  0  0  0  0
    4.4381    2.4626   -0.5963 C   0  0  0  0  0  0  0  0  0  0  0  0
    4.2321    1.3039    1.6167 C   0  0  0  0  0  0  0  0  0  0  0  0
    3.1498    2.1175    2.0013 O   0  0  0  0  0  0  0  0  0  0  0  0
    8.2848    0.9677    1.5809 H   0  0  0  0  0  0  0  0  0  0  0  0
    7.8210   -0.7150    1.1780 H   0  0  0  0  0  0  0  0  0  0  0  0
    6.7317    0.3102    2.1804 H   0  0  0  0  0  0  0  0  0  0  0  0
    7.5004    0.6801   -0.6797 H   0  0  0  0  0  0  0  0  0  0  0  0
    5.5169    0.1393   -1.4378 H   0  0  0  0  0  0  0  0  0  0  0  0
    5.2735   -1.3438    1.2746 H   0  0  0  0  0  0  0  0  0  0  0  0
    6.2584   -1.8657   -0.1366 H   0  0  0  0  0  0  0  0  0  0  0  0
    4.0720   -2.9821   -0.1870 H   0  0  0  0  0  0  0  0  0  0  0  0
    4.3377   -1.8983   -1.5805 H   0  0  0  0  0  0  0  0  0  0  0  0
    1.8458   -2.8982    0.1634 H   0  0  0  0  0  0  0  0  0  0  0  0
   -0.2657   -3.0214    1.0636 H   0  0  0  0  0  0  0  0  0  0  0  0
   -2.4226   -1.9746    1.6880 H   0  0  0  0  0  0  0  0  0  0  0  0
   -2.5419   -2.5610    0.0082 H   0  0  0  0  0  0  0  0  0  0  0  0
   -2.7160    0.3585    2.2538 H   0  0  0  0  0  0  0  0  0  0  0  0
   -2.2813    1.6712    1.1453 H   0  0  0  0  0  0  0  0  0  0  0  0
   -1.0375    0.5153    1.7371 H   0  0  0  0  0  0  0  0  0  0  0  0
   -4.0743   -1.0017   -0.9388 H   0  0  0  0  0  0  0  0  0  0  0  0
   -4.8316    0.8738    1.3443 H   0  0  0  0  0  0  0  0  0  0  0  0
   -5.3722   -2.1511    0.9808 H   0  0  0  0  0  0  0  0  0  0  0  0
   -6.1046   -1.1095    2.2621 H   0  0  0  0  0  0  0  0  0  0  0  0
   -4.3710   -1.3578    2.2466 H   0  0  0  0  0  0  0  0  0  0  0  0
   -6.9939    1.6895    1.4466 H   0  0  0  0  0  0  0  0  0  0  0  0
   -7.8059    0.0688    1.4445 H   0  0  0  0  0  0  0  0  0  0  0  0
   -8.1979    1.2911    0.1881 H   0  0  0  0  0  0  0  0  0  0  0  0
   -6.0995   -1.0371   -1.6944 H   0  0  0  0  0  0  0  0  0  0  0  0
   -7.7182   -0.3493   -1.5049 H   0  0  0  0  0  0  0  0  0  0  0  0
   -7.1667   -1.6027   -0.3414 H   0  0  0  0  0  0  0  0  0  0  0  0
   -4.0450    2.0547   -0.7947 H   0  0  0  0  0  0  0  0  0  0  0  0
   -4.3238    0.9129   -2.1646 H   0  0  0  0  0  0  0  0  0  0  0  0
   -1.8074    2.0480   -0.9254 H   0  0  0  0  0  0  0  0  0  0  0  0
   -1.9724    1.5813   -2.6156 H   0  0  0  0  0  0  0  0  0  0  0  0
   -1.2476   -0.8218   -3.1848 H   0  0  0  0  0  0  0  0  0  0  0  0
   -2.8310   -1.2444   -2.5950 H   0  0  0  0  0  0  0  0  0  0  0  0
   -1.3989   -2.1340   -1.9871 H   0  0  0  0  0  0  0  0  0  0  0  0
    0.0788    0.9093   -0.1186 H   0  0  0  0  0  0  0  0  0  0  0  0
    0.3989    0.8635   -2.7579 H   0  0  0  0  0  0  0  0  0  0  0  0
    0.9955   -0.8022   -2.4932 H   0  0  0  0  0  0  0  0  0  0  0  0
    2.1016    1.9076   -1.6549 H   0  0  0  0  0  0  0  0  0  0  0  0
    2.9383    0.6205   -2.5887 H   0  0  0  0  0  0  0  0  0  0  0  0
    2.1671    0.7585    0.3485 H   0  0  0  0  0  0  0  0  0  0  0  0
    3.5856    3.1347   -0.3669 H   0  0  0  0  0  0  0  0  0  0  0  0
    4.5172    2.3653   -1.7005 H   0  0  0  0  0  0  0  0  0  0  0  0
    5.3656    2.9625   -0.2438 H   0  0  0  0  0  0  0  0  0  0  0  0
    5.1720    1.7870    1.9617 H   0  0  0  0  0  0  0  0  0  0  0  0
    4.1369    0.3466    2.1651 H   0  0  0  0  0  0  0  0  0  0  0  0
    3.4691    3.0581    2.0060 H   0  0  0  0  0  0  0  0  0  0  0  0
  1  2  1  0  0  0  0
  1 31  1  0  0  0  0
  1 32  1  0  0  0  0
  1 33  1  0  0  0  0
  2 34  1  0  0  0  0
  3  2  1  0  0  0  0
  3  4  1  0  0  0  0
  3 35  1  6  0  0  0
  4  5  1  0  0  0  0
  4 36  1  0  0  0  0
  4 37  1  0  0  0  0
  5  6  1  0  0  0  0
  5 38  1  0  0  0  0
  5 39  1  0  0  0  0
  6  7  2  0  0  0  0
  7  8  1  0  0  0  0
  7 40  1  0  0  0  0
  8  9  2  0  0  0  0
  9 10  1  0  0  0  0
  9 41  1  0  0  0  0
 10 11  1  0  0  0  0
 10 42  1  0  0  0  0
 10 43  1  0  0  0  0
 11 12  1  1  0  0  0
 11 13  1  0  0  0  0
 12 44  1  0  0  0  0
 12 45  1  0  0  0  0
 12 46  1  0  0  0  0
 13 14  1  0  0  0  0
 13 19  1  0  0  0  0
 13 47  1  6  0  0  0
 14 15  1  0  0  0  0
 14 16  1  0  0  0  0
 14 48  1  1  0  0  0
 15 49  1  0  0  0  0
 15 50  1  0  0  0  0
 15 51  1  0  0  0  0
 16 17  1  0  0  0  0
 16 18  1  0  0  0  0
 17 52  1  0  0  0  0
 17 53  1  0  0  0  0
 17 54  1  0  0  0  0
 18 55  1  0  0  0  0
 18 56  1  0  0  0  0
 18 57  1  0  0  0  0
 19 20  1  0  0  0  0
 19 58  1  0  0  0  0
 19 59  1  0  0  0  0
 20 21  1  0  0  0  0
 20 60  1  0  0  0  0
 20 61  1  0  0  0  0
 21 22  1  6  0  0  0
 21 23  1  0  0  0  0
 21 11  1  0  0  0  0
 22 62  1  0  0  0  0
 22 63  1  0  0  0  0
 22 64  1  0  0  0  0
 23 24  1  0  0  0  0
 23  8  1  0  0  0  0
 23 65  1  1  0  0  0
 24 25  1  0  0  0  0
 24 66  1  0  0  0  0
 24 67  1  0  0  0  0
 25 68  1  0  0  0  0
 25 69  1  0  0  0  0
 26 25  1  0  0  0  0
 26 27  1  0  0  0  0
 26  6  1  0  0  0  0
 26 70  1  1  0  0  0
 27 28  1  6  0  0  0
 27 29  1  0  0  0  0
 27  3  1  0  0  0  0
 28 71  1  0  0  0  0
 28 72  1  0  0  0  0
 28 73  1  0  0  0  0
 29 30  1  0  0  0  0
 29 74  1  0  0  0  0
 29 75  1  0  0  0  0
 30 76  1  0  0  0  0
M  END
>  <IDENTIFIER>
CNP0314787.2

>  <Energy>
946.796

$$$$
