
 OpenBabel09042519243D

 48 52  0  0  0  0  0  0  0  0999 V2000
    4.9838   -0.6170    0.0058 C   0  0  0  0  0  0  0  0  0  0  0  0
    3.8956   -1.6598    0.0376 C   0  0  0  0  0  0  0  0  0  0  0  0
    4.1282   -3.0723    0.0371 C   0  0  0  0  0  0  0  0  0  0  0  0
    5.3650   -3.6146    0.0102 O   0  0  0  0  0  0  0  0  0  0  0  0
    3.0317   -3.9686    0.0637 C   0  0  0  0  0  0  0  0  0  0  0  0
    1.7097   -3.5022    0.0906 C   0  0  0  0  0  0  0  0  0  0  0  0
    1.5145   -2.1299    0.0905 C   0  0  0  0  0  0  0  0  0  0  0  0
    2.5612   -1.2298    0.0664 C   0  0  0  0  0  0  0  0  0  0  0  0
    2.1127    0.0189    0.0703 O   0  0  0  0  0  0  0  0  0  0  0  0
    0.7931   -0.0478    0.0919 C   0  0  0  0  0  0  0  0  0  0  0  0
   -0.1447    0.9994    0.0929 C   0  0  0  0  0  0  0  0  0  0  0  0
    0.2337    2.4185    0.0848 C   0  0  0  0  0  0  0  0  0  0  0  0
    0.4192    3.0957    1.2960 C   0  0  0  0  0  0  0  0  0  0  0  0
    0.7499    4.4526    1.2979 C   0  0  0  0  0  0  0  0  0  0  0  0
    0.8975    5.1468    0.0873 C   0  0  0  0  0  0  0  0  0  0  0  0
    1.2119    6.4592    0.0904 O   0  0  0  0  0  0  0  0  0  0  0  0
    0.7118    4.4677   -1.1327 C   0  0  0  0  0  0  0  0  0  0  0  0
    0.8425    5.1047   -2.3155 O   0  0  0  0  0  0  0  0  0  0  0  0
    0.3798    3.1066   -1.1272 C   0  0  0  0  0  0  0  0  0  0  0  0
   -1.4879    0.5902    0.1002 C   0  0  0  0  0  0  0  0  0  0  0  0
   -1.8418   -0.7393    0.1199 C   0  0  0  0  0  0  0  0  0  0  0  0
   -0.9298   -1.7534    0.1248 N   0  0  0  0  0  0  0  0  0  0  0  0
    0.3792   -1.3733    0.1066 C   0  0  0  0  0  0  0  0  0  0  0  0
   -3.1809   -0.8450    0.1147 N   0  0  0  0  0  0  0  0  0  0  0  0
   -3.9714   -2.0790    0.1248 C   0  0  0  0  0  0  0  0  0  0  0  0
   -4.7426   -2.2113   -1.1891 C   0  0  0  0  0  0  0  0  0  0  0  0
   -4.9281   -2.0815    1.3212 C   0  0  0  0  0  0  0  0  0  0  0  0
   -3.6973    0.3824    0.0888 N   0  0  0  0  0  0  0  0  0  0  0  0
   -2.6811    1.2830    0.0860 C   0  0  0  0  0  0  0  0  0  0  0  0
    6.0075   -1.0294   -0.0169 H   0  0  0  0  0  0  0  0  0  0  0  0
    4.9041    0.0267    0.9065 H   0  0  0  0  0  0  0  0  0  0  0  0
    4.8610    0.0152   -0.8987 H   0  0  0  0  0  0  0  0  0  0  0  0
    6.1910   -3.1175   -0.0100 H   0  0  0  0  0  0  0  0  0  0  0  0
    3.2120   -5.0364    0.0621 H   0  0  0  0  0  0  0  0  0  0  0  0
    0.8734   -4.1895    0.1081 H   0  0  0  0  0  0  0  0  0  0  0  0
    0.3009    2.5738    2.2379 H   0  0  0  0  0  0  0  0  0  0  0  0
    0.8871    4.9650    2.2418 H   0  0  0  0  0  0  0  0  0  0  0  0
    1.3404    6.9563    0.9110 H   0  0  0  0  0  0  0  0  0  0  0  0
    1.0657    6.0438   -2.3815 H   0  0  0  0  0  0  0  0  0  0  0  0
    0.2306    2.5876   -2.0667 H   0  0  0  0  0  0  0  0  0  0  0  0
   -3.2946   -2.9578    0.2124 H   0  0  0  0  0  0  0  0  0  0  0  0
   -5.4396   -1.3576   -1.3261 H   0  0  0  0  0  0  0  0  0  0  0  0
   -5.3227   -3.1587   -1.1990 H   0  0  0  0  0  0  0  0  0  0  0  0
   -4.0270   -2.2302   -2.0388 H   0  0  0  0  0  0  0  0  0  0  0  0
   -5.6385   -1.2290    1.2547 H   0  0  0  0  0  0  0  0  0  0  0  0
   -4.3545   -1.9946    2.2681 H   0  0  0  0  0  0  0  0  0  0  0  0
   -5.5106   -3.0270    1.3454 H   0  0  0  0  0  0  0  0  0  0  0  0
   -2.8092    2.3570    0.0671 H   0  0  0  0  0  0  0  0  0  0  0  0
  1  2  1  0  0  0  0
  1 30  1  0  0  0  0
  1 31  1  0  0  0  0
  1 32  1  0  0  0  0
  2  3  2  0  0  0  0
  3  4  1  0  0  0  0
  3  5  1  0  0  0  0
  4 33  1  0  0  0  0
  5  6  2  0  0  0  0
  5 34  1  0  0  0  0
  6  7  1  0  0  0  0
  6 35  1  0  0  0  0
  7  8  2  0  0  0  0
  8  9  1  0  0  0  0
  8  2  1  0  0  0  0
  9 10  1  0  0  0  0
 10 11  2  0  0  0  0
 11 12  1  0  0  0  0
 11 20  1  0  0  0  0
 12 13  2  0  0  0  0
 13 14  1  0  0  0  0
 13 36  1  0  0  0  0
 14 15  2  0  0  0  0
 14 37  1  0  0  0  0
 15 16  1  0  0  0  0
 15 17  1  0  0  0  0
 16 38  1  0  0  0  0
 17 18  1  0  0  0  0
 17 19  2  0  0  0  0
 18 39  1  0  0  0  0
 19 12  1  0  0  0  0
 19 40  1  0  0  0  0
 20 21  2  0  0  0  0
 21 22  1  0  0  0  0
 21 24  1  0  0  0  0
 22 23  2  0  0  0  0
 23 10  1  0  0  0  0
 23  7  1  0  0  0  0
 24 25  1  0  0  0  0
 24 28  1  0  0  0  0
 25 26  1  0  0  0  0
 25 27  1  0  0  0  0
 25 41  1  0  0  0  0
 26 42  1  0  0  0  0
 26 43  1  0  0  0  0
 26 44  1  0  0  0  0
 27 45  1  0  0  0  0
 27 46  1  0  0  0  0
 27 47  1  0  0  0  0
 28 29  2  0  0  0  0
 29 20  1  0  0  0  0
 29 48  1  0  0  0  0
M  END
>  <IDENTIFIER>
CNP0267574.0

>  <Energy>
728.215

$$$$
