
 OpenBabel09122517423D

285306  0  0  0  0  0  0  0  0999 V2000
   -3.0307   -3.5711   -2.2315 O   0  0  0  0  0  0  0  0  0  0  0  0
   -3.5937   -2.6880   -1.6076 C   0  0  0  0  0  0  0  0  0  0  0  0
   -3.5419   -2.6707   -0.2536 O   0  0  0  0  0  0  0  0  0  0  0  0
   -2.3970   -2.6137    0.5423 C   0  0  1  0  0  0  0  0  0  0  0  0
   -2.7858   -2.4953    1.9028 O   0  0  0  0  0  0  0  0  0  0  0  0
   -3.4686   -3.6686    2.3145 C   0  0  2  0  0  0  0  0  0  0  0  0
   -4.1608   -3.4203    3.6800 C   0  0  0  0  0  0  0  0  0  0  0  0
   -4.9768   -4.5010    3.9884 O   0  0  0  0  0  0  0  0  0  0  0  0
   -6.0132   -4.8420    3.1805 C   0  0  0  0  0  0  0  0  0  0  0  0
   -6.6354   -3.9584    2.6026 O   0  0  0  0  0  0  0  0  0  0  0  0
   -6.2240   -6.2611    2.7834 C   0  0  0  0  0  0  0  0  0  0  0  0
   -6.9620   -6.4996    1.6049 C   0  0  0  0  0  0  0  0  0  0  0  0
   -7.2120   -7.7941    1.1454 C   0  0  0  0  0  0  0  0  0  0  0  0
   -7.9281   -7.9886    0.0179 O   0  0  0  0  0  0  0  0  0  0  0  0
   -6.7271   -8.8916    1.8625 C   0  0  0  0  0  0  0  0  0  0  0  0
   -6.9696  -10.1521    1.4384 O   0  0  0  0  0  0  0  0  0  0  0  0
   -5.9982   -8.6857    3.0458 C   0  0  0  0  0  0  0  0  0  0  0  0
   -5.5597   -9.7484    3.7608 O   0  0  0  0  0  0  0  0  0  0  0  0
   -5.7266   -7.3748    3.5145 C   0  0  0  0  0  0  0  0  0  0  0  0
   -5.0812   -7.2763    4.8591 C   0  0  0  0  0  0  0  0  0  0  0  0
   -3.7098   -6.9570    5.1066 C   0  0  0  0  0  0  0  0  0  0  0  0
   -3.2415   -7.0231    6.4380 C   0  0  0  0  0  0  0  0  0  0  0  0
   -4.0779   -7.3683    7.5010 C   0  0  0  0  0  0  0  0  0  0  0  0
   -3.5946   -7.4076    8.7610 O   0  0  0  0  0  0  0  0  0  0  0  0
   -5.4196   -7.6711    7.2598 C   0  0  0  0  0  0  0  0  0  0  0  0
   -6.2449   -8.0053    8.2770 O   0  0  0  0  0  0  0  0  0  0  0  0
   -5.9169   -7.6364    5.9488 C   0  0  0  0  0  0  0  0  0  0  0  0
   -7.2144   -7.9481    5.7152 O   0  0  0  0  0  0  0  0  0  0  0  0
   -2.7121   -6.5280    4.0739 C   0  0  0  0  0  0  0  0  0  0  0  0
   -1.5252   -6.4926    4.3757 O   0  0  0  0  0  0  0  0  0  0  0  0
   -3.1058   -5.9774    2.8970 O   0  0  0  0  0  0  0  0  0  0  0  0
   -2.4733   -4.8481    2.3738 C   0  0  1  0  0  0  0  0  0  0  0  0
   -1.8959   -5.1063    0.9665 C   0  0  1  0  0  0  0  0  0  0  0  0
   -2.8770   -5.6490    0.1482 O   0  0  0  0  0  0  0  0  0  0  0  0
   -3.0491   -6.9940   -0.0137 C   0  0  0  0  0  0  0  0  0  0  0  0
   -2.3269   -7.7837    0.5828 O   0  0  0  0  0  0  0  0  0  0  0  0
   -4.1101   -7.5200   -0.9030 C   0  0  0  0  0  0  0  0  0  0  0  0
   -4.9826   -6.6485   -1.5702 C   0  0  0  0  0  0  0  0  0  0  0  0
   -5.9860   -7.1521   -2.4116 C   0  0  0  0  0  0  0  0  0  0  0  0
   -6.8256   -6.3058   -3.0448 O   0  0  0  0  0  0  0  0  0  0  0  0
   -6.1208   -8.5421   -2.5933 C   0  0  0  0  0  0  0  0  0  0  0  0
   -7.0824   -9.0469   -3.3962 O   0  0  0  0  0  0  0  0  0  0  0  0
   -5.2469   -9.4189   -1.9260 C   0  0  0  0  0  0  0  0  0  0  0  0
   -5.3458  -10.7574   -2.0760 O   0  0  0  0  0  0  0  0  0  0  0  0
   -4.2532   -8.9068   -1.0896 C   0  0  0  0  0  0  0  0  0  0  0  0
   -1.3456   -3.7740    0.3973 C   0  0  1  0  0  0  0  0  0  0  0  0
   -0.8856   -3.9312   -0.9053 O   0  0  0  0  0  0  0  0  0  0  0  0
   -0.2809   -2.9509   -1.6381 C   0  0  0  0  0  0  0  0  0  0  0  0
    0.1160   -1.9338   -1.0848 O   0  0  0  0  0  0  0  0  0  0  0  0
   -0.2681   -3.0272   -3.1332 C   0  0  0  0  0  0  0  0  0  0  0  0
   -0.1182   -1.8278   -3.8534 C   0  0  0  0  0  0  0  0  0  0  0  0
   -0.1984   -1.8033   -5.2499 C   0  0  0  0  0  0  0  0  0  0  0  0
   -0.0703   -0.6361   -5.9155 O   0  0  0  0  0  0  0  0  0  0  0  0
   -0.4292   -2.9916   -5.9583 C   0  0  0  0  0  0  0  0  0  0  0  0
   -0.5251   -2.9843   -7.3064 O   0  0  0  0  0  0  0  0  0  0  0  0
   -0.5570   -4.2047   -5.2618 C   0  0  0  0  0  0  0  0  0  0  0  0
   -0.7609   -5.3632   -5.9289 O   0  0  0  0  0  0  0  0  0  0  0  0
   -0.4630   -4.2388   -3.8608 C   0  0  0  0  0  0  0  0  0  0  0  0
   -0.5444   -5.4602   -3.2686 O   0  0  0  0  0  0  0  0  0  0  0  0
    0.3673   -6.0130   -2.4193 C   0  0  0  0  0  0  0  0  0  0  0  0
    0.0951   -7.2686   -1.8437 C   0  0  0  0  0  0  0  0  0  0  0  0
   -1.0451   -7.9297   -2.1397 O   0  0  0  0  0  0  0  0  0  0  0  0
    1.0218   -7.8514   -0.9571 C   0  0  0  0  0  0  0  0  0  0  0  0
    0.7848   -9.0530   -0.3888 O   0  0  0  0  0  0  0  0  0  0  0  0
    2.2144   -7.1845   -0.6519 C   0  0  0  0  0  0  0  0  0  0  0  0
    2.5072   -5.9415   -1.2344 C   0  0  0  0  0  0  0  0  0  0  0  0
    1.5865   -5.3737   -2.1207 C   0  0  0  0  0  0  0  0  0  0  0  0
    3.7641   -5.2159   -0.9264 C   0  0  0  0  0  0  0  0  0  0  0  0
    4.5734   -5.6963   -0.1432 O   0  0  0  0  0  0  0  0  0  0  0  0
    4.0046   -4.0110   -1.5150 O   0  0  0  0  0  0  0  0  0  0  0  0
    5.1054   -3.2192   -1.2553 C   0  0  2  0  0  0  0  0  0  0  0  0
    5.0838   -2.8354    0.1064 O   0  0  0  0  0  0  0  0  0  0  0  0
    6.2370   -2.0987    0.4912 C   0  0  1  0  0  0  0  0  0  0  0  0
    7.4997   -3.0070    0.6348 C   0  0  0  0  0  0  0  0  0  0  0  0
    8.4140   -2.4583    1.5361 O   0  0  0  0  0  0  0  0  0  0  0  0
    8.1468   -2.3851    2.8734 C   0  0  0  0  0  0  0  0  0  0  0  0
    7.2242   -3.0630    3.3138 O   0  0  0  0  0  0  0  0  0  0  0  0
    8.9083   -1.5103    3.8436 C   0  0  0  0  0  0  0  0  0  0  0  0
    8.5352   -1.6693    5.2012 C   0  0  0  0  0  0  0  0  0  0  0  0
    9.1617   -0.9841    6.2359 C   0  0  0  0  0  0  0  0  0  0  0  0
    8.7747   -1.1814    7.5149 O   0  0  0  0  0  0  0  0  0  0  0  0
   10.1902   -0.0927    5.9501 C   0  0  0  0  0  0  0  0  0  0  0  0
   10.8137    0.5738    6.9483 O   0  0  0  0  0  0  0  0  0  0  0  0
   10.5839    0.1230    4.6193 C   0  0  0  0  0  0  0  0  0  0  0  0
   11.5542    1.0348    4.3716 O   0  0  0  0  0  0  0  0  0  0  0  0
    9.9655   -0.5774    3.5331 C   0  0  0  0  0  0  0  0  0  0  0  0
   10.4963   -0.2801    2.1423 C   0  0  0  0  0  0  0  0  0  0  0  0
    9.6782    0.0578    1.0186 C   0  0  0  0  0  0  0  0  0  0  0  0
   10.2864    0.3068   -0.2291 C   0  0  0  0  0  0  0  0  0  0  0  0
   11.6639    0.2583   -0.4000 C   0  0  0  0  0  0  0  0  0  0  0  0
   12.2074    0.5252   -1.6073 O   0  0  0  0  0  0  0  0  0  0  0  0
   12.4809   -0.0727    0.6798 C   0  0  0  0  0  0  0  0  0  0  0  0
   13.8227   -0.1345    0.5265 O   0  0  0  0  0  0  0  0  0  0  0  0
   11.9106   -0.3522    1.9357 C   0  0  0  0  0  0  0  0  0  0  0  0
   12.7232   -0.7285    2.9510 O   0  0  0  0  0  0  0  0  0  0  0  0
    8.1948    0.1530    1.0261 C   0  0  0  0  0  0  0  0  0  0  0  0
    7.5443    0.2833    2.0519 O   0  0  0  0  0  0  0  0  0  0  0  0
    7.6005   -0.1638   -0.1493 O   0  0  0  0  0  0  0  0  0  0  0  0
    6.3986   -0.8024   -0.3699 C   0  0  1  0  0  0  0  0  0  0  0  0
    6.3274   -1.1297   -1.8804 C   0  0  1  0  0  0  0  0  0  0  0  0
    7.4688   -1.8037   -2.3039 O   0  0  0  0  0  0  0  0  0  0  0  0
    8.3477   -1.3263   -3.2335 C   0  0  0  0  0  0  0  0  0  0  0  0
    8.1944   -0.2097   -3.7118 O   0  0  0  0  0  0  0  0  0  0  0  0
    9.4992   -2.1493   -3.6809 C   0  0  0  0  0  0  0  0  0  0  0  0
    9.7031   -3.4431   -3.1761 C   0  0  0  0  0  0  0  0  0  0  0  0
   10.7935   -4.2154   -3.6102 C   0  0  0  0  0  0  0  0  0  0  0  0
   10.9812   -5.4588   -3.1205 O   0  0  0  0  0  0  0  0  0  0  0  0
   11.6924   -3.6921   -4.5589 C   0  0  0  0  0  0  0  0  0  0  0  0
   12.7468   -4.4186   -4.9903 O   0  0  0  0  0  0  0  0  0  0  0  0
   11.4912   -2.3970   -5.0677 C   0  0  0  0  0  0  0  0  0  0  0  0
   12.3310   -1.8627   -5.9802 O   0  0  0  0  0  0  0  0  0  0  0  0
   10.4035   -1.6379   -4.6292 C   0  0  0  0  0  0  0  0  0  0  0  0
    5.0781   -1.9857   -2.1765 C   0  0  2  0  0  0  0  0  0  0  0  0
    3.9369   -1.2101   -1.9892 O   0  0  0  0  0  0  0  0  0  0  0  0
    3.6818   -0.1827   -2.8480 C   0  0  0  0  0  0  0  0  0  0  0  0
    3.7764   -0.3772   -4.0532 O   0  0  0  0  0  0  0  0  0  0  0  0
    3.6119    1.2145   -2.3393 C   0  0  0  0  0  0  0  0  0  0  0  0
    3.8977    2.2695   -3.2254 C   0  0  0  0  0  0  0  0  0  0  0  0
    3.9300    3.5961   -2.7851 C   0  0  0  0  0  0  0  0  0  0  0  0
    4.2194    4.5908   -3.6507 O   0  0  0  0  0  0  0  0  0  0  0  0
    3.6784    3.8900   -1.4373 C   0  0  0  0  0  0  0  0  0  0  0  0
    3.7262    5.1641   -0.9896 O   0  0  0  0  0  0  0  0  0  0  0  0
    3.3689    2.8512   -0.5413 C   0  0  0  0  0  0  0  0  0  0  0  0
    3.1285    3.1233    0.7610 O   0  0  0  0  0  0  0  0  0  0  0  0
    3.3119    1.5108   -0.9933 C   0  0  0  0  0  0  0  0  0  0  0  0
    2.9404    0.5077   -0.1509 O   0  0  0  0  0  0  0  0  0  0  0  0
    1.8050    0.5039    0.6109 C   0  0  0  0  0  0  0  0  0  0  0  0
    1.6375   -0.4710    1.6146 C   0  0  0  0  0  0  0  0  0  0  0  0
    2.5989   -1.3877    1.8519 O   0  0  0  0  0  0  0  0  0  0  0  0
    0.4597   -0.4897    2.3891 C   0  0  0  0  0  0  0  0  0  0  0  0
    0.2767   -1.4087    3.3611 O   0  0  0  0  0  0  0  0  0  0  0  0
   -0.5408    0.4645    2.1699 C   0  0  0  0  0  0  0  0  0  0  0  0
   -0.3855    1.4478    1.1820 C   0  0  0  0  0  0  0  0  0  0  0  0
    0.7767    1.4475    0.4029 C   0  0  0  0  0  0  0  0  0  0  0  0
   -1.4002    2.5134    0.9806 C   0  0  0  0  0  0  0  0  0  0  0  0
   -2.4292    2.5138    1.6416 O   0  0  0  0  0  0  0  0  0  0  0  0
   -1.0985    3.5580    0.1574 O   0  0  0  0  0  0  0  0  0  0  0  0
   -1.7412    4.7838    0.0860 C   0  0  2  0  0  0  0  0  0  0  0  0
   -2.0529    5.2303    1.4020 O   0  0  0  0  0  0  0  0  0  0  0  0
   -2.5428    6.5618    1.4043 C   0  0  2  0  0  0  0  0  0  0  0  0
   -2.9367    6.9249    2.8572 C   0  0  0  0  0  0  0  0  0  0  0  0
   -3.5230    8.1836    2.8893 O   0  0  0  0  0  0  0  0  0  0  0  0
   -2.8880    9.2506    3.3978 C   0  0  0  0  0  0  0  0  0  0  0  0
   -2.3512    9.1527    4.4943 O   0  0  0  0  0  0  0  0  0  0  0  0
   -2.3785   10.2289    2.4127 C   0  0  0  0  0  0  0  0  0  0  0  0
   -0.9941   10.4777    2.4920 C   0  0  0  0  0  0  0  0  0  0  0  0
   -0.3534   11.3535    1.6235 C   0  0  0  0  0  0  0  0  0  0  0  0
    0.9745   11.5723    1.7391 O   0  0  0  0  0  0  0  0  0  0  0  0
   -1.0898   12.0090    0.6363 C   0  0  0  0  0  0  0  0  0  0  0  0
   -0.4823   12.8716   -0.2089 O   0  0  0  0  0  0  0  0  0  0  0  0
   -2.4782   11.7987    0.5370 C   0  0  0  0  0  0  0  0  0  0  0  0
   -3.1846   12.4712   -0.4021 O   0  0  0  0  0  0  0  0  0  0  0  0
   -3.1615   10.9099    1.4207 C   0  0  0  0  0  0  0  0  0  0  0  0
   -4.6854   10.9732    1.3864 C   0  0  0  0  0  0  0  0  0  0  0  0
   -5.6438    9.9310    1.1005 C   0  0  0  0  0  0  0  0  0  0  0  0
   -7.0218   10.2605    1.1182 C   0  0  0  0  0  0  0  0  0  0  0  0
   -7.4827   11.5417    1.3861 C   0  0  0  0  0  0  0  0  0  0  0  0
   -8.8072   11.8052    1.3671 O   0  0  0  0  0  0  0  0  0  0  0  0
   -6.5748   12.5542    1.6700 C   0  0  0  0  0  0  0  0  0  0  0  0
   -7.0085   13.8067    1.9366 O   0  0  0  0  0  0  0  0  0  0  0  0
   -5.1985   12.2801    1.6784 C   0  0  0  0  0  0  0  0  0  0  0  0
   -4.3408   13.2844    1.9858 O   0  0  0  0  0  0  0  0  0  0  0  0
   -5.3637    8.5074    0.7389 C   0  0  0  0  0  0  0  0  0  0  0  0
   -6.2976    7.7162    0.6741 O   0  0  0  0  0  0  0  0  0  0  0  0
   -4.1238    8.0613    0.4502 O   0  0  0  0  0  0  0  0  0  0  0  0
   -3.7843    6.7143    0.5085 C   0  0  1  0  0  0  0  0  0  0  0  0
   -3.5762    6.1545   -0.9012 C   0  0  1  0  0  0  0  0  0  0  0  0
   -2.7455    6.9908   -1.6395 O   0  0  0  0  0  0  0  0  0  0  0  0
   -3.1767    7.7371   -2.7009 C   0  0  0  0  0  0  0  0  0  0  0  0
   -4.3471    7.6860   -3.0586 O   0  0  0  0  0  0  0  0  0  0  0  0
   -2.2527    8.6638   -3.4013 C   0  0  0  0  0  0  0  0  0  0  0  0
   -0.8976    8.7237   -3.0573 C   0  0  0  0  0  0  0  0  0  0  0  0
   -0.0339    9.6113   -3.7179 C   0  0  0  0  0  0  0  0  0  0  0  0
    1.2740    9.6565   -3.3886 O   0  0  0  0  0  0  0  0  0  0  0  0
   -0.5326   10.4591   -4.7265 C   0  0  0  0  0  0  0  0  0  0  0  0
    0.2807   11.3246   -5.3719 O   0  0  0  0  0  0  0  0  0  0  0  0
   -1.8931   10.4051   -5.0697 C   0  0  0  0  0  0  0  0  0  0  0  0
   -2.4083   11.2056   -6.0291 O   0  0  0  0  0  0  0  0  0  0  0  0
   -2.7432    9.5134   -4.4113 C   0  0  0  0  0  0  0  0  0  0  0  0
   -3.0093    4.7285   -0.7915 C   0  0  2  0  0  0  0  0  0  0  0  0
   -3.9623    3.9420   -0.1677 O   0  0  0  0  0  0  0  0  0  0  0  0
   -4.7257    2.9751   -0.7341 C   0  0  0  0  0  0  0  0  0  0  0  0
   -4.5773    2.6871   -1.9121 O   0  0  0  0  0  0  0  0  0  0  0  0
   -5.8126    2.3601    0.0831 C   0  0  0  0  0  0  0  0  0  0  0  0
   -5.9236    2.7310    1.4360 C   0  0  0  0  0  0  0  0  0  0  0  0
   -6.9528    2.2336    2.2424 C   0  0  0  0  0  0  0  0  0  0  0  0
   -7.0457    2.6161    3.5340 O   0  0  0  0  0  0  0  0  0  0  0  0
   -7.8981    1.3478    1.7023 C   0  0  0  0  0  0  0  0  0  0  0  0
   -8.9068    0.8691    2.4635 O   0  0  0  0  0  0  0  0  0  0  0  0
   -7.8044    0.9652    0.3508 C   0  0  0  0  0  0  0  0  0  0  0  0
   -8.7143    0.1279   -0.1937 O   0  0  0  0  0  0  0  0  0  0  0  0
   -6.7671    1.4626   -0.4566 C   0  0  0  0  0  0  0  0  0  0  0  0
   -6.7442    1.1257   -1.7677 O   0  0  0  0  0  0  0  0  0  0  0  0
   -5.9265    0.2286   -2.3772 C   0  0  0  0  0  0  0  0  0  0  0  0
   -5.8287    0.2741   -3.7815 C   0  0  0  0  0  0  0  0  0  0  0  0
   -6.5180    1.1954   -4.4911 O   0  0  0  0  0  0  0  0  0  0  0  0
   -5.0000   -0.6339   -4.4585 C   0  0  0  0  0  0  0  0  0  0  0  0
   -4.8699   -0.5957   -5.8018 O   0  0  0  0  0  0  0  0  0  0  0  0
   -4.2890   -1.5954   -3.7411 C   0  0  0  0  0  0  0  0  0  0  0  0
   -4.3736   -1.6600   -2.3401 C   0  0  0  0  0  0  0  0  0  0  0  0
   -5.1866   -0.7339   -1.6580 C   0  0  0  0  0  0  0  0  0  0  0  0
   -1.8851   -1.6644    0.2848 H   0  0  0  0  0  0  0  0  0  0  0  0
   -4.2827   -3.9037    1.5947 H   0  0  0  0  0  0  0  0  0  0  0  0
   -4.7781   -2.4965    3.6261 H   0  0  0  0  0  0  0  0  0  0  0  0
   -3.3993   -3.2796    4.4762 H   0  0  0  0  0  0  0  0  0  0  0  0
   -7.3514   -5.6718    1.0245 H   0  0  0  0  0  0  0  0  0  0  0  0
   -8.2881   -7.2549   -0.5006 H   0  0  0  0  0  0  0  0  0  0  0  0
   -7.4747  -10.3510    0.6375 H   0  0  0  0  0  0  0  0  0  0  0  0
   -5.7265  -10.6659    3.5036 H   0  0  0  0  0  0  0  0  0  0  0  0
   -2.2101   -6.7867    6.6694 H   0  0  0  0  0  0  0  0  0  0  0  0
   -2.6715   -7.2033    8.9683 H   0  0  0  0  0  0  0  0  0  0  0  0
   -5.9569   -8.0437    9.1997 H   0  0  0  0  0  0  0  0  0  0  0  0
   -7.8364   -8.1974    6.4130 H   0  0  0  0  0  0  0  0  0  0  0  0
   -1.6380   -4.5130    3.0332 H   0  0  0  0  0  0  0  0  0  0  0  0
   -1.0404   -5.8160    1.0461 H   0  0  0  0  0  0  0  0  0  0  0  0
   -4.8900   -5.5782   -1.4362 H   0  0  0  0  0  0  0  0  0  0  0  0
   -6.7680   -5.3461   -2.9372 H   0  0  0  0  0  0  0  0  0  0  0  0
   -7.7137   -8.4904   -3.8736 H   0  0  0  0  0  0  0  0  0  0  0  0
   -6.0097  -11.1755   -2.6415 H   0  0  0  0  0  0  0  0  0  0  0  0
   -3.5902   -9.6006   -0.5857 H   0  0  0  0  0  0  0  0  0  0  0  0
   -0.4800   -3.4931    1.0411 H   0  0  0  0  0  0  0  0  0  0  0  0
    0.0315   -0.8913   -3.3290 H   0  0  0  0  0  0  0  0  0  0  0  0
    0.0821    0.2045   -5.4603 H   0  0  0  0  0  0  0  0  0  0  0  0
   -0.4515   -2.1778   -7.8353 H   0  0  0  0  0  0  0  0  0  0  0  0
   -0.8367   -5.4116   -6.8924 H   0  0  0  0  0  0  0  0  0  0  0  0
   -1.7099   -7.5853   -2.7524 H   0  0  0  0  0  0  0  0  0  0  0  0
   -0.0170   -9.5662   -0.5617 H   0  0  0  0  0  0  0  0  0  0  0  0
    2.9135   -7.6451    0.0353 H   0  0  0  0  0  0  0  0  0  0  0  0
    1.8263   -4.4252   -2.5751 H   0  0  0  0  0  0  0  0  0  0  0  0
    6.0126   -3.8267   -1.4774 H   0  0  0  0  0  0  0  0  0  0  0  0
    6.0003   -1.7533    1.5176 H   0  0  0  0  0  0  0  0  0  0  0  0
    7.9820   -3.1827   -0.3429 H   0  0  0  0  0  0  0  0  0  0  0  0
    7.1930   -4.0055    1.0192 H   0  0  0  0  0  0  0  0  0  0  0  0
    7.7457   -2.3544    5.4844 H   0  0  0  0  0  0  0  0  0  0  0  0
    8.0581   -1.7868    7.7542 H   0  0  0  0  0  0  0  0  0  0  0  0
   10.5994    0.4475    7.8835 H   0  0  0  0  0  0  0  0  0  0  0  0
   12.0196    1.5249    5.0642 H   0  0  0  0  0  0  0  0  0  0  0  0
    9.6848    0.5668   -1.0925 H   0  0  0  0  0  0  0  0  0  0  0  0
   11.6694    0.7611   -2.3770 H   0  0  0  0  0  0  0  0  0  0  0  0
   14.2673    0.0587   -0.3110 H   0  0  0  0  0  0  0  0  0  0  0  0
   13.6844   -0.8009    2.8682 H   0  0  0  0  0  0  0  0  0  0  0  0
    5.5524   -0.1288   -0.1161 H   0  0  0  0  0  0  0  0  0  0  0  0
    6.2466   -0.1658   -2.4275 H   0  0  0  0  0  0  0  0  0  0  0  0
    9.0175   -3.8582   -2.4489 H   0  0  0  0  0  0  0  0  0  0  0  0
   10.3845   -5.8539   -2.4697 H   0  0  0  0  0  0  0  0  0  0  0  0
   12.9328   -5.3140   -4.6753 H   0  0  0  0  0  0  0  0  0  0  0  0
   13.1009   -2.3355   -6.3260 H   0  0  0  0  0  0  0  0  0  0  0  0
   10.2682   -0.6429   -5.0362 H   0  0  0  0  0  0  0  0  0  0  0  0
    5.1058   -2.3431   -3.2319 H   0  0  0  0  0  0  0  0  0  0  0  0
    4.1241    2.0641   -4.2648 H   0  0  0  0  0  0  0  0  0  0  0  0
    4.4027    4.4249   -4.5866 H   0  0  0  0  0  0  0  0  0  0  0  0
    3.9370    5.9153   -1.5618 H   0  0  0  0  0  0  0  0  0  0  0  0
    3.1593    4.0174    1.1287 H   0  0  0  0  0  0  0  0  0  0  0  0
    3.4356   -1.3976    1.3708 H   0  0  0  0  0  0  0  0  0  0  0  0
    0.9347   -2.0850    3.5743 H   0  0  0  0  0  0  0  0  0  0  0  0
   -1.4300    0.4462    2.7881 H   0  0  0  0  0  0  0  0  0  0  0  0
    0.8784    2.1961   -0.3689 H   0  0  0  0  0  0  0  0  0  0  0  0
   -1.0109    5.4770   -0.3913 H   0  0  0  0  0  0  0  0  0  0  0  0
   -1.7404    7.2551    1.0589 H   0  0  0  0  0  0  0  0  0  0  0  0
   -2.0139    6.8748    3.4795 H   0  0  0  0  0  0  0  0  0  0  0  0
   -3.6609    6.1874    3.2642 H   0  0  0  0  0  0  0  0  0  0  0  0
   -0.3907    9.9758    3.2408 H   0  0  0  0  0  0  0  0  0  0  0  0
    1.5118   11.1491    2.4247 H   0  0  0  0  0  0  0  0  0  0  0  0
    0.4629   13.0747   -0.1645 H   0  0  0  0  0  0  0  0  0  0  0  0
   -2.7838   13.0987   -1.0198 H   0  0  0  0  0  0  0  0  0  0  0  0
   -7.7750    9.5142    0.8963 H   0  0  0  0  0  0  0  0  0  0  0  0
   -9.4678   11.1288    1.1589 H   0  0  0  0  0  0  0  0  0  0  0  0
   -7.9439   14.0542    1.9320 H   0  0  0  0  0  0  0  0  0  0  0  0
   -4.6211   14.1864    2.1945 H   0  0  0  0  0  0  0  0  0  0  0  0
   -4.5875    6.0962    0.9740 H   0  0  0  0  0  0  0  0  0  0  0  0
   -4.5778    6.0890   -1.3839 H   0  0  0  0  0  0  0  0  0  0  0  0
   -0.5042    8.0781   -2.2810 H   0  0  0  0  0  0  0  0  0  0  0  0
    1.6539    9.0849   -2.7062 H   0  0  0  0  0  0  0  0  0  0  0  0
    1.2251   11.4033   -5.1759 H   0  0  0  0  0  0  0  0  0  0  0  0
   -1.8777   11.8502   -6.5164 H   0  0  0  0  0  0  0  0  0  0  0  0
   -3.7886    9.4910   -4.6918 H   0  0  0  0  0  0  0  0  0  0  0  0
   -2.7758    4.3552   -1.8139 H   0  0  0  0  0  0  0  0  0  0  0  0
   -5.2156    3.4242    1.8740 H   0  0  0  0  0  0  0  0  0  0  0  0
   -6.4219    3.2382    3.9355 H   0  0  0  0  0  0  0  0  0  0  0  0
   -9.0264    1.1137    3.3923 H   0  0  0  0  0  0  0  0  0  0  0  0
   -9.4551   -0.2405    0.3078 H   0  0  0  0  0  0  0  0  0  0  0  0
   -7.0976    1.8531   -4.0819 H   0  0  0  0  0  0  0  0  0  0  0  0
   -5.3186    0.0604   -6.3534 H   0  0  0  0  0  0  0  0  0  0  0  0
   -3.6557   -2.2859   -4.2858 H   0  0  0  0  0  0  0  0  0  0  0  0
   -5.2591   -0.7718   -0.5782 H   0  0  0  0  0  0  0  0  0  0  0  0
  1  2  2  0  0  0  0
  2  3  1  0  0  0  0
  4  3  1  0  0  0  0
  4  5  1  0  0  0  0
  4202  1  6  0  0  0
  5  6  1  0  0  0  0
  6  7  1  0  0  0  0
  6203  1  6  0  0  0
  7  8  1  0  0  0  0
  7204  1  0  0  0  0
  7205  1  0  0  0  0
  8  9  1  0  0  0  0
  9 10  2  0  0  0  0
  9 11  1  0  0  0  0
 11 12  2  0  0  0  0
 12 13  1  0  0  0  0
 12206  1  0  0  0  0
 13 14  1  0  0  0  0
 13 15  2  0  0  0  0
 14207  1  0  0  0  0
 15 16  1  0  0  0  0
 15 17  1  0  0  0  0
 16208  1  0  0  0  0
 17 18  1  0  0  0  0
 17 19  2  0  0  0  0
 18209  1  0  0  0  0
 19 20  1  0  0  0  0
 19 11  1  0  0  0  0
 20 21  2  0  0  0  0
 21 22  1  0  0  0  0
 21 29  1  0  0  0  0
 22 23  2  0  0  0  0
 22210  1  0  0  0  0
 23 24  1  0  0  0  0
 23 25  1  0  0  0  0
 24211  1  0  0  0  0
 25 26  1  0  0  0  0
 25 27  2  0  0  0  0
 26212  1  0  0  0  0
 27 28  1  0  0  0  0
 27 20  1  0  0  0  0
 28213  1  0  0  0  0
 29 30  2  0  0  0  0
 29 31  1  0  0  0  0
 32 31  1  0  0  0  0
 32 33  1  0  0  0  0
 32  6  1  0  0  0  0
 32214  1  1  0  0  0
 33 34  1  0  0  0  0
 33 46  1  0  0  0  0
 33215  1  1  0  0  0
 34 35  1  0  0  0  0
 35 36  2  0  0  0  0
 35 37  1  0  0  0  0
 37 38  2  0  0  0  0
 38 39  1  0  0  0  0
 38216  1  0  0  0  0
 39 40  1  0  0  0  0
 39 41  2  0  0  0  0
 40217  1  0  0  0  0
 41 42  1  0  0  0  0
 41 43  1  0  0  0  0
 42218  1  0  0  0  0
 43 44  1  0  0  0  0
 43 45  2  0  0  0  0
 44219  1  0  0  0  0
 45 37  1  0  0  0  0
 45220  1  0  0  0  0
 46 47  1  0  0  0  0
 46  4  1  0  0  0  0
 46221  1  1  0  0  0
 47 48  1  0  0  0  0
 48 49  2  0  0  0  0
 48 50  1  0  0  0  0
 50 51  2  0  0  0  0
 51 52  1  0  0  0  0
 51222  1  0  0  0  0
 52 53  1  0  0  0  0
 52 54  2  0  0  0  0
 53223  1  0  0  0  0
 54 55  1  0  0  0  0
 54 56  1  0  0  0  0
 55224  1  0  0  0  0
 56 57  1  0  0  0  0
 56 58  2  0  0  0  0
 57225  1  0  0  0  0
 58 59  1  0  0  0  0
 58 50  1  0  0  0  0
 59 60  1  0  0  0  0
 60 61  1  0  0  0  0
 61 62  1  0  0  0  0
 61 63  2  0  0  0  0
 62226  1  0  0  0  0
 63 64  1  0  0  0  0
 63 65  1  0  0  0  0
 64227  1  0  0  0  0
 65 66  2  0  0  0  0
 65228  1  0  0  0  0
 66 67  1  0  0  0  0
 66 68  1  0  0  0  0
 67 60  2  0  0  0  0
 67229  1  0  0  0  0
 68 69  2  0  0  0  0
 68 70  1  0  0  0  0
 71 70  1  0  0  0  0
 71 72  1  0  0  0  0
 71230  1  6  0  0  0
 72 73  1  0  0  0  0
 73 74  1  0  0  0  0
 73231  1  1  0  0  0
 74 75  1  0  0  0  0
 74232  1  0  0  0  0
 74233  1  0  0  0  0
 75 76  1  0  0  0  0
 76 77  2  0  0  0  0
 76 78  1  0  0  0  0
 78 79  2  0  0  0  0
 79 80  1  0  0  0  0
 79234  1  0  0  0  0
 80 81  1  0  0  0  0
 80 82  2  0  0  0  0
 81235  1  0  0  0  0
 82 83  1  0  0  0  0
 82 84  1  0  0  0  0
 83236  1  0  0  0  0
 84 85  1  0  0  0  0
 84 86  2  0  0  0  0
 85237  1  0  0  0  0
 86 87  1  0  0  0  0
 86 78  1  0  0  0  0
 87 88  2  0  0  0  0
 88 89  1  0  0  0  0
 88 96  1  0  0  0  0
 89 90  2  0  0  0  0
 89238  1  0  0  0  0
 90 91  1  0  0  0  0
 90 92  1  0  0  0  0
 91239  1  0  0  0  0
 92 93  1  0  0  0  0
 92 94  2  0  0  0  0
 93240  1  0  0  0  0
 94 95  1  0  0  0  0
 94 87  1  0  0  0  0
 95241  1  0  0  0  0
 96 97  2  0  0  0  0
 96 98  1  0  0  0  0
 99 98  1  0  0  0  0
 99100  1  0  0  0  0
 99 73  1  0  0  0  0
 99242  1  1  0  0  0
100101  1  0  0  0  0
100113  1  0  0  0  0
100243  1  6  0  0  0
101102  1  0  0  0  0
102103  2  0  0  0  0
102104  1  0  0  0  0
104105  2  0  0  0  0
105106  1  0  0  0  0
105244  1  0  0  0  0
106107  1  0  0  0  0
106108  2  0  0  0  0
107245  1  0  0  0  0
108109  1  0  0  0  0
108110  1  0  0  0  0
109246  1  0  0  0  0
110111  1  0  0  0  0
110112  2  0  0  0  0
111247  1  0  0  0  0
112104  1  0  0  0  0
112248  1  0  0  0  0
113114  1  0  0  0  0
113 71  1  0  0  0  0
113249  1  6  0  0  0
114115  1  0  0  0  0
115116  2  0  0  0  0
115117  1  0  0  0  0
117118  2  0  0  0  0
118119  1  0  0  0  0
118250  1  0  0  0  0
119120  1  0  0  0  0
119121  2  0  0  0  0
120251  1  0  0  0  0
121122  1  0  0  0  0
121123  1  0  0  0  0
122252  1  0  0  0  0
123124  1  0  0  0  0
123125  2  0  0  0  0
124253  1  0  0  0  0
125126  1  0  0  0  0
125117  1  0  0  0  0
126127  1  0  0  0  0
127128  1  0  0  0  0
128129  1  0  0  0  0
128130  2  0  0  0  0
129254  1  0  0  0  0
130131  1  0  0  0  0
130132  1  0  0  0  0
131255  1  0  0  0  0
132133  2  0  0  0  0
132256  1  0  0  0  0
133134  1  0  0  0  0
133135  1  0  0  0  0
134127  2  0  0  0  0
134257  1  0  0  0  0
135136  2  0  0  0  0
135137  1  0  0  0  0
138137  1  0  0  0  0
138139  1  0  0  0  0
138258  1  6  0  0  0
139140  1  0  0  0  0
140141  1  0  0  0  0
140259  1  6  0  0  0
141142  1  0  0  0  0
141260  1  0  0  0  0
141261  1  0  0  0  0
142143  1  0  0  0  0
143144  2  0  0  0  0
143145  1  0  0  0  0
145146  2  0  0  0  0
146147  1  0  0  0  0
146262  1  0  0  0  0
147148  1  0  0  0  0
147149  2  0  0  0  0
148263  1  0  0  0  0
149150  1  0  0  0  0
149151  1  0  0  0  0
150264  1  0  0  0  0
151152  1  0  0  0  0
151153  2  0  0  0  0
152265  1  0  0  0  0
153154  1  0  0  0  0
153145  1  0  0  0  0
154155  2  0  0  0  0
155156  1  0  0  0  0
155163  1  0  0  0  0
156157  2  0  0  0  0
156266  1  0  0  0  0
157158  1  0  0  0  0
157159  1  0  0  0  0
158267  1  0  0  0  0
159160  1  0  0  0  0
159161  2  0  0  0  0
160268  1  0  0  0  0
161162  1  0  0  0  0
161154  1  0  0  0  0
162269  1  0  0  0  0
163164  2  0  0  0  0
163165  1  0  0  0  0
166165  1  0  0  0  0
166167  1  0  0  0  0
166140  1  0  0  0  0
166270  1  1  0  0  0
167168  1  0  0  0  0
167180  1  0  0  0  0
167271  1  6  0  0  0
168169  1  0  0  0  0
169170  2  0  0  0  0
169171  1  0  0  0  0
171172  2  0  0  0  0
172173  1  0  0  0  0
172272  1  0  0  0  0
173174  1  0  0  0  0
173175  2  0  0  0  0
174273  1  0  0  0  0
175176  1  0  0  0  0
175177  1  0  0  0  0
176274  1  0  0  0  0
177178  1  0  0  0  0
177179  2  0  0  0  0
178275  1  0  0  0  0
179171  1  0  0  0  0
179276  1  0  0  0  0
180181  1  0  0  0  0
180138  1  0  0  0  0
180277  1  6  0  0  0
181182  1  0  0  0  0
182183  2  0  0  0  0
182184  1  0  0  0  0
184185  2  0  0  0  0
185186  1  0  0  0  0
185278  1  0  0  0  0
186187  1  0  0  0  0
186188  2  0  0  0  0
187279  1  0  0  0  0
188189  1  0  0  0  0
188190  1  0  0  0  0
189280  1  0  0  0  0
190191  1  0  0  0  0
190192  2  0  0  0  0
191281  1  0  0  0  0
192193  1  0  0  0  0
192184  1  0  0  0  0
193194  1  0  0  0  0
194195  1  0  0  0  0
195196  1  0  0  0  0
195197  2  0  0  0  0
196282  1  0  0  0  0
197198  1  0  0  0  0
197199  1  0  0  0  0
198283  1  0  0  0  0
199200  2  0  0  0  0
199284  1  0  0  0  0
200201  1  0  0  0  0
200  2  1  0  0  0  0
201194  2  0  0  0  0
201285  1  0  0  0  0
M  END
>  <IDENTIFIER>
CNP0089192.1

>  <Energy>
3141.31

$$$$
