
 OpenBabel09102515363D

 79 78  0  0  0  0  0  0  0  0999 V2000
  -10.0067   -1.7822   -1.4058 C   0  0  0  0  0  0  0  0  0  0  0  0
   -8.6358   -1.2983   -0.9404 C   0  0  0  0  0  0  0  0  0  0  0  0
   -8.0933   -0.2082   -1.8771 C   0  0  0  0  0  0  0  0  0  0  0  0
   -6.6521    0.2517   -1.5809 C   0  0  0  0  0  0  0  0  0  0  0  0
   -6.4348    1.2323   -0.4065 C   0  0  0  0  0  0  0  0  0  0  0  0
   -6.6801    0.7289    1.0243 C   0  0  0  0  0  0  0  0  0  0  0  0
   -5.9529   -0.5743    1.3935 C   0  0  0  0  0  0  0  0  0  0  0  0
   -4.4139   -0.6250    1.2702 C   0  0  0  0  0  0  0  0  0  0  0  0
   -3.6176    0.2704    2.2417 C   0  0  0  0  0  0  0  0  0  0  0  0
   -3.4029    1.7393    1.8166 C   0  0  0  0  0  0  0  0  0  0  0  0
   -2.6033    1.9318    0.5030 C   0  0  0  0  0  0  0  0  0  0  0  0
   -1.2358    1.2259    0.4491 C   0  0  0  0  0  0  0  0  0  0  0  0
   -0.2695    1.6788    1.5573 C   0  0  0  0  0  0  0  0  0  0  0  0
    1.1040    0.9899    1.4719 C   0  0  0  0  0  0  0  0  0  0  0  0
    1.0172   -0.5348    1.7030 C   0  0  0  0  0  0  0  0  0  0  0  0
    2.3885   -1.2305    1.7769 C   0  0  0  0  0  0  0  0  0  0  0  0
    3.1869   -1.3606    0.4959 C   0  0  0  0  0  0  0  0  0  0  0  0
    2.8062   -0.9322   -0.7212 C   0  0  0  0  0  0  0  0  0  0  0  0
    3.6823   -1.1329   -1.9298 C   0  0  0  0  0  0  0  0  0  0  0  0
    4.1265    0.1863   -2.5821 C   0  0  0  0  0  0  0  0  0  0  0  0
    5.0850    0.9800   -1.7112 C   0  0  0  0  0  0  0  0  0  0  0  0
    4.4300    1.7752   -0.0807 Br  0  0  0  0  0  0  0  0  0  0  0  0
    6.3730    1.1232   -2.0933 C   0  0  0  0  0  0  0  0  0  0  0  0
    7.4274    1.8647   -1.3044 C   0  0  0  0  0  0  0  0  0  0  0  0
    8.5828    0.9303   -0.9193 C   0  0  0  0  0  0  0  0  0  0  0  0
    8.1268   -0.2142    0.0015 C   0  0  0  0  0  0  0  0  0  0  0  0
    9.2819   -1.1013    0.3655 C   0  0  0  0  0  0  0  0  0  0  0  0
   10.2329   -0.6400    0.9828 O   0  0  0  0  0  0  0  0  0  0  0  0
    9.2564   -2.4104    0.0052 O   0  0  0  0  0  0  0  0  0  0  0  0
   10.2693   -3.3027    0.2833 C   0  0  0  0  0  0  0  0  0  0  0  0
  -10.3716   -2.5786   -0.7234 H   0  0  0  0  0  0  0  0  0  0  0  0
   -9.9412   -2.2003   -2.4331 H   0  0  0  0  0  0  0  0  0  0  0  0
  -10.7348   -0.9435   -1.3982 H   0  0  0  0  0  0  0  0  0  0  0  0
   -7.9401   -2.1653   -0.9428 H   0  0  0  0  0  0  0  0  0  0  0  0
   -8.7466   -0.9321    0.0919 H   0  0  0  0  0  0  0  0  0  0  0  0
   -8.7735    0.6704   -1.9108 H   0  0  0  0  0  0  0  0  0  0  0  0
   -8.0699   -0.6592   -2.8943 H   0  0  0  0  0  0  0  0  0  0  0  0
   -6.3285    0.8193   -2.4815 H   0  0  0  0  0  0  0  0  0  0  0  0
   -5.9776   -0.6272   -1.5014 H   0  0  0  0  0  0  0  0  0  0  0  0
   -7.0548    2.1404   -0.5704 H   0  0  0  0  0  0  0  0  0  0  0  0
   -5.3813    1.5549   -0.4621 H   0  0  0  0  0  0  0  0  0  0  0  0
   -7.7643    0.5843    1.1797 H   0  0  0  0  0  0  0  0  0  0  0  0
   -6.4023    1.5267    1.7396 H   0  0  0  0  0  0  0  0  0  0  0  0
   -6.3545   -1.3850    0.7525 H   0  0  0  0  0  0  0  0  0  0  0  0
   -6.2275   -0.8300    2.4404 H   0  0  0  0  0  0  0  0  0  0  0  0
   -4.0700   -0.4985    0.2239 H   0  0  0  0  0  0  0  0  0  0  0  0
   -4.1605   -1.6704    1.5551 H   0  0  0  0  0  0  0  0  0  0  0  0
   -2.6083   -0.1748    2.3609 H   0  0  0  0  0  0  0  0  0  0  0  0
   -4.0898    0.2234    3.2467 H   0  0  0  0  0  0  0  0  0  0  0  0
   -2.8491    2.2435    2.6362 H   0  0  0  0  0  0  0  0  0  0  0  0
   -4.3655    2.2723    1.7262 H   0  0  0  0  0  0  0  0  0  0  0  0
   -2.4560    3.0222    0.3445 H   0  0  0  0  0  0  0  0  0  0  0  0
   -3.1906    1.5543   -0.3551 H   0  0  0  0  0  0  0  0  0  0  0  0
   -0.7731    1.4445   -0.5382 H   0  0  0  0  0  0  0  0  0  0  0  0
   -1.4065    0.1336    0.4971 H   0  0  0  0  0  0  0  0  0  0  0  0
   -0.7010    1.4714    2.5585 H   0  0  0  0  0  0  0  0  0  0  0  0
   -0.1170    2.7763    1.4645 H   0  0  0  0  0  0  0  0  0  0  0  0
    1.7462    1.4265    2.2676 H   0  0  0  0  0  0  0  0  0  0  0  0
    1.5667    1.2342    0.4979 H   0  0  0  0  0  0  0  0  0  0  0  0
    0.4008   -1.0422    0.9338 H   0  0  0  0  0  0  0  0  0  0  0  0
    0.5244   -0.6861    2.6886 H   0  0  0  0  0  0  0  0  0  0  0  0
    2.2162   -2.2677    2.1361 H   0  0  0  0  0  0  0  0  0  0  0  0
    3.0104   -0.7096    2.5363 H   0  0  0  0  0  0  0  0  0  0  0  0
    4.1481   -1.8578    0.5927 H   0  0  0  0  0  0  0  0  0  0  0  0
    1.8553   -0.4403   -0.8773 H   0  0  0  0  0  0  0  0  0  0  0  0
    3.0928   -1.7180   -2.6677 H   0  0  0  0  0  0  0  0  0  0  0  0
    4.5924   -1.7239   -1.6824 H   0  0  0  0  0  0  0  0  0  0  0  0
    3.2501    0.8132   -2.8528 H   0  0  0  0  0  0  0  0  0  0  0  0
    4.6325   -0.0963   -3.5318 H   0  0  0  0  0  0  0  0  0  0  0  0
    6.7051    0.6652   -3.0214 H   0  0  0  0  0  0  0  0  0  0  0  0
    7.0289    2.3282   -0.3810 H   0  0  0  0  0  0  0  0  0  0  0  0
    7.8235    2.6833   -1.9419 H   0  0  0  0  0  0  0  0  0  0  0  0
    9.3567    1.5333   -0.3959 H   0  0  0  0  0  0  0  0  0  0  0  0
    9.0369    0.5065   -1.8426 H   0  0  0  0  0  0  0  0  0  0  0  0
    7.3562   -0.8258   -0.5163 H   0  0  0  0  0  0  0  0  0  0  0  0
    7.6799    0.2001    0.9311 H   0  0  0  0  0  0  0  0  0  0  0  0
    9.9998   -4.2979   -0.1253 H   0  0  0  0  0  0  0  0  0  0  0  0
   10.4098   -3.3916    1.3819 H   0  0  0  0  0  0  0  0  0  0  0  0
   11.2163   -2.9657   -0.1905 H   0  0  0  0  0  0  0  0  0  0  0  0
  1  2  1  0  0  0  0
  1 31  1  0  0  0  0
  1 32  1  0  0  0  0
  1 33  1  0  0  0  0
  2  3  1  0  0  0  0
  2 34  1  0  0  0  0
  2 35  1  0  0  0  0
  3  4  1  0  0  0  0
  3 36  1  0  0  0  0
  3 37  1  0  0  0  0
  4  5  1  0  0  0  0
  4 38  1  0  0  0  0
  4 39  1  0  0  0  0
  5  6  1  0  0  0  0
  5 40  1  0  0  0  0
  5 41  1  0  0  0  0
  6  7  1  0  0  0  0
  6 42  1  0  0  0  0
  6 43  1  0  0  0  0
  7  8  1  0  0  0  0
  7 44  1  0  0  0  0
  7 45  1  0  0  0  0
  8  9  1  0  0  0  0
  8 46  1  0  0  0  0
  8 47  1  0  0  0  0
  9 10  1  0  0  0  0
  9 48  1  0  0  0  0
  9 49  1  0  0  0  0
 10 11  1  0  0  0  0
 10 50  1  0  0  0  0
 10 51  1  0  0  0  0
 11 12  1  0  0  0  0
 11 52  1  0  0  0  0
 11 53  1  0  0  0  0
 12 13  1  0  0  0  0
 12 54  1  0  0  0  0
 12 55  1  0  0  0  0
 13 14  1  0  0  0  0
 13 56  1  0  0  0  0
 13 57  1  0  0  0  0
 14 15  1  0  0  0  0
 14 58  1  0  0  0  0
 14 59  1  0  0  0  0
 15 16  1  0  0  0  0
 15 60  1  0  0  0  0
 15 61  1  0  0  0  0
 16 17  1  0  0  0  0
 16 62  1  0  0  0  0
 16 63  1  0  0  0  0
 17 18  2  3  0  0  0
 17 64  1  0  0  0  0
 18 19  1  0  0  0  0
 18 65  1  0  0  0  0
 19 20  1  0  0  0  0
 19 66  1  0  0  0  0
 19 67  1  0  0  0  0
 20 21  1  0  0  0  0
 20 68  1  0  0  0  0
 20 69  1  0  0  0  0
 21 22  1  0  0  0  0
 21 23  2  3  0  0  0
 23 24  1  0  0  0  0
 23 70  1  0  0  0  0
 24 25  1  0  0  0  0
 24 71  1  0  0  0  0
 24 72  1  0  0  0  0
 25 26  1  0  0  0  0
 25 73  1  0  0  0  0
 25 74  1  0  0  0  0
 26 27  1  0  0  0  0
 26 75  1  0  0  0  0
 26 76  1  0  0  0  0
 27 28  2  0  0  0  0
 27 29  1  0  0  0  0
 29 30  1  0  0  0  0
 30 77  1  0  0  0  0
 30 78  1  0  0  0  0
 30 79  1  0  0  0  0
M  END
>  <IDENTIFIER>
CNP0280147.0

>  <Energy>
258.9

$$$$
