
 OpenBabel09062500023D

 38 39  0  0  0  0  0  0  0  0999 V2000
    4.2315   -0.3124   -0.4920 C   0  0  0  0  0  0  0  0  0  0  0  0
    3.1759    0.6218    0.1250 C   0  0  1  0  0  0  0  0  0  0  0  0
    3.2098    1.9394   -0.6318 C   0  0  0  0  0  0  0  0  0  0  0  0
    3.4902    2.9682   -0.0365 O   0  0  0  0  0  0  0  0  0  0  0  0
    2.9675    1.9985   -1.9614 O   0  0  0  0  0  0  0  0  0  0  0  0
    1.7891   -0.0481    0.1904 C   0  0  0  0  0  0  0  0  0  0  0  0
    0.6981    0.4619   -0.4326 C   0  0  0  0  0  0  0  0  0  0  0  0
   -0.6913   -0.1752   -0.3960 C   0  0  1  0  0  0  0  0  0  0  0  0
   -0.9433   -0.6341   -1.8623 C   0  0  0  0  0  0  0  0  0  0  0  0
   -0.7733   -1.4235    0.4812 C   0  0  0  0  0  0  0  0  0  0  0  0
    0.3032   -1.9336    1.0978 C   0  0  0  0  0  0  0  0  0  0  0  0
    1.6208   -1.2946    0.9865 C   0  0  0  0  0  0  0  0  0  0  0  0
    2.5578   -1.7744    1.6049 O   0  0  0  0  0  0  0  0  0  0  0  0
   -2.1304   -2.0699    0.7263 C   0  0  0  0  0  0  0  0  0  0  0  0
   -3.3088   -1.1471    0.3370 C   0  0  0  0  0  0  0  0  0  0  0  0
   -2.9907    0.2604    0.8475 C   0  0  0  0  0  0  0  0  0  0  0  0
   -1.7417    0.8858    0.1418 C   0  0  2  0  0  0  0  0  0  0  0  0
   -2.1814    1.8907   -0.9406 C   0  0  0  0  0  0  0  0  0  0  0  0
    5.2248    0.1866   -0.4913 H   0  0  0  0  0  0  0  0  0  0  0  0
    3.9659   -0.5771   -1.5372 H   0  0  0  0  0  0  0  0  0  0  0  0
    4.3430   -1.2521    0.0814 H   0  0  0  0  0  0  0  0  0  0  0  0
    3.4747    0.8335    1.1760 H   0  0  0  0  0  0  0  0  0  0  0  0
    2.7512    1.2114   -2.4801 H   0  0  0  0  0  0  0  0  0  0  0  0
    0.7788    1.3660   -1.0200 H   0  0  0  0  0  0  0  0  0  0  0  0
   -0.1647   -1.3701   -2.1619 H   0  0  0  0  0  0  0  0  0  0  0  0
   -0.8670    0.2161   -2.5731 H   0  0  0  0  0  0  0  0  0  0  0  0
   -1.9102   -1.1255   -2.0399 H   0  0  0  0  0  0  0  0  0  0  0  0
    0.2023   -2.8142    1.7277 H   0  0  0  0  0  0  0  0  0  0  0  0
   -2.2135   -2.1947    1.8299 H   0  0  0  0  0  0  0  0  0  0  0  0
   -2.2110   -3.0797    0.2709 H   0  0  0  0  0  0  0  0  0  0  0  0
   -4.2316   -1.5396    0.8163 H   0  0  0  0  0  0  0  0  0  0  0  0
   -3.5191   -1.1067   -0.7442 H   0  0  0  0  0  0  0  0  0  0  0  0
   -2.7639    0.1454    1.9323 H   0  0  0  0  0  0  0  0  0  0  0  0
   -3.8676    0.9413    0.7937 H   0  0  0  0  0  0  0  0  0  0  0  0
   -1.2573    1.4965    0.9380 H   0  0  0  0  0  0  0  0  0  0  0  0
   -2.7603    1.3840   -1.7413 H   0  0  0  0  0  0  0  0  0  0  0  0
   -1.3044    2.4028   -1.3868 H   0  0  0  0  0  0  0  0  0  0  0  0
   -2.8331    2.6714   -0.4933 H   0  0  0  0  0  0  0  0  0  0  0  0
  1 19  1  0  0  0  0
  1 20  1  0  0  0  0
  1 21  1  0  0  0  0
  2  1  1  0  0  0  0
  2  3  1  0  0  0  0
  2  6  1  0  0  0  0
  2 22  1  1  0  0  0
  3  4  2  0  0  0  0
  3  5  1  0  0  0  0
  5 23  1  0  0  0  0
  6  7  2  0  0  0  0
  7  8  1  0  0  0  0
  7 24  1  0  0  0  0
  8  9  1  6  0  0  0
  8 10  1  0  0  0  0
  9 25  1  0  0  0  0
  9 26  1  0  0  0  0
  9 27  1  0  0  0  0
 10 11  2  0  0  0  0
 10 14  1  0  0  0  0
 11 12  1  0  0  0  0
 11 28  1  0  0  0  0
 12 13  2  0  0  0  0
 12  6  1  0  0  0  0
 14 15  1  0  0  0  0
 14 29  1  0  0  0  0
 14 30  1  0  0  0  0
 15 16  1  0  0  0  0
 15 31  1  0  0  0  0
 15 32  1  0  0  0  0
 16 17  1  0  0  0  0
 16 33  1  0  0  0  0
 16 34  1  0  0  0  0
 17 18  1  0  0  0  0
 17  8  1  0  0  0  0
 17 35  1  1  0  0  0
 18 36  1  0  0  0  0
 18 37  1  0  0  0  0
 18 38  1  0  0  0  0
M  END
>  <IDENTIFIER>
CNP0160886.1

>  <Energy>
295.584

$$$$
