
 OpenBabel09052520022D

 92 97  0  0  0  0  0  0  0  0999 V2000
   -8.2571    0.3058    0.0000 C   0  0  0  0  0  0  0  0  0  0  0  0
   -7.9893   -1.1701    0.0000 C   0  0  0  0  0  0  0  0  0  0  0  0
   -8.4992   -1.7739   -0.9423 O   0  0  0  0  0  0  0  0  0  0  0  0
   -7.0772   -1.9885    0.6911 O   0  0  0  0  0  0  0  0  0  0  0  0
   -6.0979   -2.9648    0.1491 C   0  0  2  0  0  0  0  0  0  0  0  0
   -4.8754   -2.7430    1.1015 C   0  0  2  0  0  0  0  0  0  0  0  0
   -4.3368   -1.2928    1.0571 C   0  0  1  0  0  0  0  0  0  0  0  0
   -3.8120   -0.9492    2.3053 O   0  0  0  0  0  0  0  0  0  0  0  0
   -4.0819    0.1246    3.1029 C   0  0  0  0  0  0  0  0  0  0  0  0
   -3.1210    0.6979    3.5931 O   0  0  0  0  0  0  0  0  0  0  0  0
   -5.4452    0.6391    3.4362 C   0  0  0  0  0  0  0  0  0  0  0  0
   -5.5792    1.9254    4.0022 C   0  0  0  0  0  0  0  0  0  0  0  0
   -6.8373    2.4315    4.3416 C   0  0  0  0  0  0  0  0  0  0  0  0
   -7.9800    1.6587    4.1378 C   0  0  0  0  0  0  0  0  0  0  0  0
   -7.8626    0.3794    3.5964 C   0  0  0  0  0  0  0  0  0  0  0  0
   -6.6058   -0.1256    3.2473 C   0  0  0  0  0  0  0  0  0  0  0  0
   -3.2818   -0.9649   -0.0909 C   0  0  1  0  0  0  0  0  0  0  0  0
   -3.7158   -1.4384   -1.5630 C   0  0  0  0  0  0  0  0  0  0  0  0
   -3.9097   -2.7918   -1.8034 O   0  0  0  0  0  0  0  0  0  0  0  0
   -4.2921   -3.2502   -3.0372 C   0  0  0  0  0  0  0  0  0  0  0  0
   -4.6164   -2.4527   -3.9083 O   0  0  0  0  0  0  0  0  0  0  0  0
   -4.3001   -4.7011   -3.3586 C   0  0  0  0  0  0  0  0  0  0  0  0
   -4.7206   -5.1510   -4.6256 C   0  0  0  0  0  0  0  0  0  0  0  0
   -4.7240   -6.5147   -4.9253 C   0  0  0  0  0  0  0  0  0  0  0  0
   -4.3061   -7.4273   -3.9580 C   0  0  0  0  0  0  0  0  0  0  0  0
   -3.8985   -6.9855   -2.7401 N   0  0  0  0  0  0  0  0  0  0  0  0
   -3.8862   -5.6622   -2.4259 C   0  0  0  0  0  0  0  0  0  0  0  0
   -1.8566   -1.4334    0.4369 C   0  0  1  0  0  0  0  0  0  0  0  0
   -0.6889   -0.1261    0.5120 C   0  0  2  0  0  0  0  0  0  0  0  0
   -0.4992    0.2585   -0.9376 C   0  0  2  0  0  0  0  0  0  0  0  0
   -1.9134    1.0742   -1.1115 C   0  0  0  0  0  0  0  0  0  0  0  0
   -3.2264    0.5916   -0.2566 C   0  0  1  0  0  0  0  0  0  0  0  0
   -4.5158    0.9952   -0.7562 O   0  0  0  0  0  0  0  0  0  0  0  0
   -5.4725    1.6386    0.0000 C   0  0  0  0  0  0  0  0  0  0  0  0
   -6.9497    1.3781    0.0000 C   0  0  0  0  0  0  0  0  0  0  0  0
   -5.0069    2.4275    0.8274 O   0  0  0  0  0  0  0  0  0  0  0  0
    0.8660    0.0000    0.0000 C   0  0  0  0  0  0  0  0  0  0  0  0
    1.8302    1.1491    0.0000 C   0  0  0  0  0  0  0  0  0  0  0  0
    1.8302   -1.1491    0.0000 C   0  0  0  0  0  0  0  0  0  0  0  0
   -1.5085   -2.9832    0.0000 C   0  0  2  0  0  0  0  0  0  0  0  0
   -0.1122   -2.4352    0.0000 C   0  0  0  0  0  0  0  0  0  0  0  0
   -1.6261   -3.1530   -1.3905 O   0  0  0  0  0  0  0  0  0  0  0  0
   -2.5241   -4.1041    0.6028 C   0  0  0  0  0  0  0  0  0  0  0  0
   -2.0610   -5.2342    0.5850 O   0  0  0  0  0  0  0  0  0  0  0  0
   -4.0019   -4.0118    1.2994 C   0  0  2  0  0  0  0  0  0  0  0  0
   -3.6681   -4.0824    2.6687 O   0  0  0  0  0  0  0  0  0  0  0  0
   -5.2356   -5.1085    1.0613 C   0  0  0  0  0  0  0  0  0  0  0  0
   -6.3542   -4.6513    0.0000 C   0  0  2  0  0  0  0  0  0  0  0  0
   -7.8406   -4.4500    0.0000 C   0  0  0  0  0  0  0  0  0  0  0  0
   -9.2597    0.1741   -0.7303 H   0  0  0  0  0  0  0  0  0  0  0  0
   -8.8642    0.0142    1.0311 H   0  0  0  0  0  0  0  0  0  0  0  0
   -8.4481    1.3586    0.0000 H   0  0  0  0  0  0  0  0  0  0  0  0
   -5.9462   -2.6513   -0.8885 H   0  0  0  0  0  0  0  0  0  0  0  0
   -5.4336   -2.7690    2.0662 H   0  0  0  0  0  0  0  0  0  0  0  0
   -5.2125   -0.6578    0.8910 H   0  0  0  0  0  0  0  0  0  0  0  0
   -4.7101    2.5475    4.1760 H   0  0  0  0  0  0  0  0  0  0  0  0
   -6.9251    3.4226    4.7676 H   0  0  0  0  0  0  0  0  0  0  0  0
   -8.9534    2.0474    4.4048 H   0  0  0  0  0  0  0  0  0  0  0  0
   -8.7477   -0.2276    3.4525 H   0  0  0  0  0  0  0  0  0  0  0  0
   -6.5526   -1.1188    2.8607 H   0  0  0  0  0  0  0  0  0  0  0  0
   -4.6754   -0.9570   -1.8438 H   0  0  0  0  0  0  0  0  0  0  0  0
   -2.9518   -1.0890   -2.2879 H   0  0  0  0  0  0  0  0  0  0  0  0
   -5.0481   -4.4510   -5.3841 H   0  0  0  0  0  0  0  0  0  0  0  0
   -5.0486   -6.8601   -5.8986 H   0  0  0  0  0  0  0  0  0  0  0  0
   -4.3029   -8.4867   -4.1757 H   0  0  0  0  0  0  0  0  0  0  0  0
   -3.5591   -5.3662   -1.4489 H   0  0  0  0  0  0  0  0  0  0  0  0
   -1.8701   -1.5544    1.5384 H   0  0  0  0  0  0  0  0  0  0  0  0
   -0.9114    0.7239    1.1955 H   0  0  0  0  0  0  0  0  0  0  0  0
   -0.5299   -0.6098   -1.6267 H   0  0  0  0  0  0  0  0  0  0  0  0
   -1.7555    2.1539   -0.9038 H   0  0  0  0  0  0  0  0  0  0  0  0
   -2.1560    1.0111   -2.1924 H   0  0  0  0  0  0  0  0  0  0  0  0
   -3.0699    1.0016    0.7620 H   0  0  0  0  0  0  0  0  0  0  0  0
   -7.0655    2.1667    0.8802 H   0  0  0  0  0  0  0  0  0  0  0  0
   -6.9180    1.9244   -1.0276 H   0  0  0  0  0  0  0  0  0  0  0  0
   -8.0034    1.1923    0.0000 H   0  0  0  0  0  0  0  0  0  0  0  0
    1.9854    1.1761    1.1025 H   0  0  0  0  0  0  0  0  0  0  0  0
    1.0996    1.9557   -0.2184 H   0  0  0  0  0  0  0  0  0  0  0  0
    2.5180    1.9688    0.0000 H   0  0  0  0  0  0  0  0  0  0  0  0
    2.3762   -0.9525    0.9691 H   0  0  0  0  0  0  0  0  0  0  0  0
    2.4064   -0.9140   -0.9427 H   0  0  0  0  0  0  0  0  0  0  0  0
    2.5180   -1.9688    0.0000 H   0  0  0  0  0  0  0  0  0  0  0  0
    0.0729   -2.6209    1.0991 H   0  0  0  0  0  0  0  0  0  0  0  0
    0.3979   -3.3335   -0.4283 H   0  0  0  0  0  0  0  0  0  0  0  0
    0.8838   -2.0443    0.0000 H   0  0  0  0  0  0  0  0  0  0  0  0
   -1.2887   -4.0582   -1.6301 H   0  0  0  0  0  0  0  0  0  0  0  0
   -3.4414   -5.0275    2.8741 H   0  0  0  0  0  0  0  0  0  0  0  0
   -5.8130   -5.0871    2.0136 H   0  0  0  0  0  0  0  0  0  0  0  0
   -4.9069   -6.1640    0.9648 H   0  0  0  0  0  0  0  0  0  0  0  0
   -5.9949   -4.9536   -1.0021 H   0  0  0  0  0  0  0  0  0  0  0  0
   -7.9504   -4.2928    1.0988 H   0  0  0  0  0  0  0  0  0  0  0  0
   -8.0755   -5.5185   -0.1911 H   0  0  0  0  0  0  0  0  0  0  0  0
   -8.9009   -4.3064    0.0000 H   0  0  0  0  0  0  0  0  0  0  0  0
  1  2  1  0  0  0  0
  1 50  1  0  0  0  0
  1 51  1  0  0  0  0
  1 52  1  0  0  0  0
  2  3  2  0  0  0  0
  2  4  1  0  0  0  0
  5  4  1  0  0  0  0
  5  6  1  0  0  0  0
  5 53  1  1  0  0  0
  6  7  1  0  0  0  0
  6 45  1  0  0  0  0
  6 54  1  1  0  0  0
  7  8  1  0  0  0  0
  7 17  1  0  0  0  0
  7 55  1  6  0  0  0
  8  9  1  0  0  0  0
  9 10  2  0  0  0  0
  9 11  1  0  0  0  0
 11 12  2  0  0  0  0
 12 13  1  0  0  0  0
 12 56  1  0  0  0  0
 13 14  2  0  0  0  0
 13 57  1  0  0  0  0
 14 15  1  0  0  0  0
 14 58  1  0  0  0  0
 15 16  2  0  0  0  0
 15 59  1  0  0  0  0
 16 11  1  0  0  0  0
 16 60  1  0  0  0  0
 17 18  1  1  0  0  0
 17 28  1  0  0  0  0
 18 19  1  0  0  0  0
 18 61  1  0  0  0  0
 18 62  1  0  0  0  0
 19 20  1  0  0  0  0
 20 21  2  0  0  0  0
 20 22  1  0  0  0  0
 22 23  2  0  0  0  0
 23 24  1  0  0  0  0
 23 63  1  0  0  0  0
 24 25  2  0  0  0  0
 24 64  1  0  0  0  0
 25 26  1  0  0  0  0
 25 65  1  0  0  0  0
 26 27  2  0  0  0  0
 27 22  1  0  0  0  0
 27 66  1  0  0  0  0
 28 29  1  0  0  0  0
 28 40  1  0  0  0  0
 28 67  1  6  0  0  0
 29 30  1  0  0  0  0
 29 37  1  0  0  0  0
 29 68  1  1  0  0  0
 30 31  1  0  0  0  0
 30 37  1  0  0  0  0
 30 69  1  1  0  0  0
 31 32  1  0  0  0  0
 31 70  1  0  0  0  0
 31 71  1  0  0  0  0
 32 33  1  0  0  0  0
 32 17  1  0  0  0  0
 32 72  1  1  0  0  0
 33 34  1  0  0  0  0
 34 35  1  0  0  0  0
 34 36  2  0  0  0  0
 35 73  1  0  0  0  0
 35 74  1  0  0  0  0
 35 75  1  0  0  0  0
 37 38  1  0  0  0  0
 37 39  1  0  0  0  0
 38 76  1  0  0  0  0
 38 77  1  0  0  0  0
 38 78  1  0  0  0  0
 39 79  1  0  0  0  0
 39 80  1  0  0  0  0
 39 81  1  0  0  0  0
 40 41  1  0  0  0  0
 40 42  1  6  0  0  0
 40 43  1  0  0  0  0
 41 82  1  0  0  0  0
 41 83  1  0  0  0  0
 41 84  1  0  0  0  0
 42 85  1  0  0  0  0
 43 44  2  0  0  0  0
 43 45  1  0  0  0  0
 45 46  1  6  0  0  0
 45 47  1  0  0  0  0
 46 86  1  0  0  0  0
 47 48  1  0  0  0  0
 47 87  1  0  0  0  0
 47 88  1  0  0  0  0
 48 49  1  0  0  0  0
 48  5  1  0  0  0  0
 48 89  1  1  0  0  0
 49 90  1  0  0  0  0
 49 91  1  0  0  0  0
 49 92  1  0  0  0  0
M  END
>  <IDENTIFIER>
CNP0205881.1

>  <Energy>
4.70235e+08

$$$$
