
 OpenBabel09092519542D

173172  0  0  0  0  0  0  0  0999 V2000
   23.9317   15.5490    0.0000 C   0  0  0  0  0  0  0  0  0  0  0  0
   24.6817   14.2500    0.0000 C   0  0  0  0  0  0  0  0  0  0  0  0
   25.4317   12.9510    0.0000 C   0  0  0  0  0  0  0  0  0  0  0  0
   23.3253   13.4669   -0.8110 C   0  0  0  0  0  0  0  0  0  0  0  0
   22.0836   12.7500    0.0000 C   0  0  0  0  0  0  0  0  0  0  0  0
   20.7846   12.0000    0.0000 C   0  0  0  0  0  2  0  0  0  0  0  0
   19.4856   11.2500    0.0000 C   0  0  0  0  0  0  0  0  0  0  0  0
   18.1865   10.5000    0.0000 C   0  0  0  0  0  0  0  0  0  0  0  0
   16.8875    9.7500    0.0000 C   0  0  0  0  0  2  0  0  0  0  0  0
   15.5885    9.0000    0.0000 C   0  0  0  0  0  0  0  0  0  0  0  0
   13.9464    8.6496   -0.0793 C   0  0  0  0  0  0  0  0  0  0  0  0
   13.3380    7.0697    0.0903 C   0  0  0  0  0  0  0  0  0  0  0  0
   11.6913    6.7500    0.0000 C   0  0  0  0  0  0  0  0  0  0  0  0
   10.3923    6.0000    0.0000 C   0  0  0  0  0  0  0  0  0  0  0  0
    9.0933    5.2500    0.0000 C   0  0  0  0  0  0  0  0  0  0  0  0
    7.7942    4.5000    0.0000 C   0  0  0  0  0  0  0  0  0  0  0  0
    6.4952    3.7500    0.0000 C   0  0  0  0  0  0  0  0  0  0  0  0
    5.1962    3.0000    0.0000 C   0  0  0  0  0  0  0  0  0  0  0  0
    3.5410    3.0964   -0.1536 C   0  0  0  0  0  0  0  0  0  0  0  0
    2.6488    1.6729   -0.0753 C   0  0  0  0  0  0  0  0  0  0  0  0
    0.9797    1.5721   -0.1782 C   0  0  0  0  0  0  0  0  0  0  0  0
    0.1827    0.1372   -0.1431 C   0  0  0  0  0  0  0  0  0  0  0  0
    0.8910   -0.8562   -0.0612 O   0  0  0  0  0  0  0  0  0  0  0  0
   -1.2519   -0.0675   -0.1986 O   0  0  0  0  0  0  0  0  0  0  0  0
   -1.9482   -1.3630   -0.2478 C   0  0  0  0  0  0  0  0  0  0  0  0
   -3.6211   -1.5443   -0.2317 C   0  0  2  0  0  0  0  0  0  0  0  0
   -4.1760   -3.0933   -0.3075 C   0  0  0  0  0  0  0  0  0  0  0  0
   -5.5737   -3.3911   -0.6284 O   0  0  0  0  0  0  0  0  0  0  0  0
   -6.4189   -4.3993   -0.0774 C   0  0  0  0  0  0  0  0  0  0  0  0
   -6.1026   -4.8600    1.0116 O   0  0  0  0  0  0  0  0  0  0  0  0
   -7.6810   -5.1387   -0.8097 C   0  0  0  0  0  0  0  0  0  0  0  0
   -9.0933   -5.2500    0.0000 C   0  0  0  0  0  0  0  0  0  0  0  0
  -10.3923   -6.0000    0.0000 C   0  0  0  0  0  0  0  0  0  0  0  0
  -11.6913   -6.7500    0.0000 C   0  0  0  0  0  0  0  0  0  0  0  0
  -13.3397   -7.0687   -0.0562 C   0  0  0  0  0  0  0  0  0  0  0  0
  -13.9455   -8.6530    0.0736 C   0  0  0  0  0  0  0  0  0  0  0  0
  -15.5885   -9.0000    0.0000 C   0  0  0  0  0  0  0  0  0  0  0  0
  -16.8875   -9.7500    0.0000 C   0  0  0  0  0  2  0  0  0  0  0  0
  -18.1865  -10.5000    0.0000 C   0  0  0  0  0  0  0  0  0  0  0  0
  -19.4856  -11.2500    0.0000 C   0  0  0  0  0  0  0  0  0  0  0  0
  -20.7846  -12.0000    0.0000 C   0  0  0  0  0  0  0  0  0  0  0  0
  -22.0836  -12.7500    0.0000 C   0  0  0  0  0  0  0  0  0  0  0  0
  -21.5346  -10.7010    0.0000 C   0  0  0  0  0  0  0  0  0  0  0  0
   -4.2258   -0.9152   -1.3056 O   0  0  0  0  0  0  0  0  0  0  0  0
   -5.3261   -0.1006   -1.2671 C   0  0  0  0  0  0  0  0  0  0  0  0
   -6.0755   -0.1169   -2.2335 O   0  0  0  0  0  0  0  0  0  0  0  0
   -5.6194    0.8688   -0.1274 C   0  0  0  0  0  0  0  0  0  0  0  0
   -6.8794    1.7724   -0.3703 C   0  0  0  0  0  0  0  0  0  0  0  0
   -6.9061    2.9675    0.6108 C   0  0  0  0  0  0  0  0  0  0  0  0
   -7.6720    4.2415    0.1540 C   0  0  0  0  0  0  0  0  0  0  0  0
   -9.1851    4.6069    0.4790 C   0  0  0  0  0  0  0  0  0  0  0  0
   -9.3481    6.0933    0.0000 C   0  0  0  0  0  0  0  0  0  0  0  0
  -10.0981    7.3923    0.0000 C   0  0  0  0  0  0  0  0  0  0  0  0
  -10.8481    8.6913    0.0000 C   0  0  0  0  0  0  0  0  0  0  0  0
  -11.2359   10.2995    0.2994 C   0  0  0  0  0  0  0  0  0  0  0  0
  -12.7457   10.9517   -0.1522 C   0  0  0  0  0  0  0  0  0  0  0  0
  -13.0981   12.5885    0.0000 C   0  0  0  0  0  0  0  0  0  0  0  0
  -13.8481   13.8875    0.0000 C   0  0  0  0  0  0  0  0  0  0  0  0
  -14.5981   15.1865    0.0000 C   0  0  0  0  0  0  0  0  0  0  0  0
  -15.3481   16.4856    0.0000 C   0  0  0  0  0  0  0  0  0  0  0  0
  -16.0981   17.7846    0.0000 C   0  0  0  0  0  0  0  0  0  0  0  0
  -16.8481   19.0836    0.0000 C   0  0  0  0  0  0  0  0  0  0  0  0
  -17.5981   20.3827    0.0000 C   0  0  0  0  0  0  0  0  0  0  0  0
  -18.3481   21.6817    0.0000 C   0  0  0  0  0  0  0  0  0  0  0  0
  -18.8971   19.6327    0.0000 C   0  0  0  0  0  0  0  0  0  0  0  0
   24.7606   16.1866    0.3923 H   0  0  0  0  0  0  0  0  0  0  0  0
   23.1173   15.3759    0.7559 H   0  0  0  0  0  0  0  0  0  0  0  0
   23.3967   16.4756    0.0000 H   0  0  0  0  0  0  0  0  0  0  0  0
   24.6888   14.2541    1.1361 H   0  0  0  0  0  0  0  0  0  0  0  0
   24.8746   12.3322    0.7559 H   0  0  0  0  0  0  0  0  0  0  0  0
   26.3983   13.3501    0.3924 H   0  0  0  0  0  0  0  0  0  0  0  0
   25.9667   12.0244    0.0000 H   0  0  0  0  0  0  0  0  0  0  0  0
   22.8331   14.1588   -1.5386 H   0  0  0  0  0  0  0  0  0  0  0  0
   23.6785   12.6946   -1.5385 H   0  0  0  0  0  0  0  0  0  0  0  0
   22.6507   12.0672    0.6616 H   0  0  0  0  0  0  0  0  0  0  0  0
   21.7760   13.5824    0.6619 H   0  0  0  0  0  0  0  0  0  0  0  0
   19.8548   10.6942   -0.8958 H   0  0  0  0  0  0  0  0  0  0  0  0
   19.8547   10.6945    0.8961 H   0  0  0  0  0  0  0  0  0  0  0  0
   17.8175   11.0555   -0.8961 H   0  0  0  0  0  0  0  0  0  0  0  0
   17.8174   11.0557    0.8959 H   0  0  0  0  0  0  0  0  0  0  0  0
   15.7639    8.5011    0.9759 H   0  0  0  0  0  0  0  0  0  0  0  0
   15.8985    8.2670   -0.7738 H   0  0  0  0  0  0  0  0  0  0  0  0
   13.5899    9.0233   -1.0621 H   0  0  0  0  0  0  0  0  0  0  0  0
   13.4531    9.2640    0.7029 H   0  0  0  0  0  0  0  0  0  0  0  0
   13.8292    6.4499   -0.6890 H   0  0  0  0  0  0  0  0  0  0  0  0
   13.6858    6.6955    1.0761 H   0  0  0  0  0  0  0  0  0  0  0  0
   11.4118    7.5319    0.7497 H   0  0  0  0  0  0  0  0  0  0  0  0
   11.5494    7.2830   -0.9750 H   0  0  0  0  0  0  0  0  0  0  0  0
   10.9478    5.3307   -0.7357 H   0  0  0  0  0  0  0  0  0  0  0  0
   10.5845    5.6759    1.0587 H   0  0  0  0  0  0  0  0  0  0  0  0
    8.9677    5.5069   -1.0959 H   0  0  0  0  0  0  0  0  0  0  0  0
    9.5784    4.2161    0.0435 H   0  0  0  0  0  0  0  0  0  0  0  0
    7.3049    5.5310   -0.0461 H   0  0  0  0  0  0  0  0  0  0  0  0
    7.9202    4.2450    1.0967 H   0  0  0  0  0  0  0  0  0  0  0  0
    5.9417    4.4083    0.7444 H   0  0  0  0  0  0  0  0  0  0  0  0
    6.3006    4.0633   -1.0597 H   0  0  0  0  0  0  0  0  0  0  0  0
    5.2625    2.4394    0.9653 H   0  0  0  0  0  0  0  0  0  0  0  0
    5.4007    2.2028   -0.7556 H   0  0  0  0  0  0  0  0  0  0  0  0
    3.1700    3.7727    0.6442 H   0  0  0  0  0  0  0  0  0  0  0  0
    3.3199    3.5712   -1.1320 H   0  0  0  0  0  0  0  0  0  0  0  0
    3.0447    1.0242   -0.8849 H   0  0  0  0  0  0  0  0  0  0  0  0
    2.9215    1.1913    0.8873 H   0  0  0  0  0  0  0  0  0  0  0  0
    0.5768    2.1805    0.6575 H   0  0  0  0  0  0  0  0  0  0  0  0
    0.6884    2.0652   -1.1274 H   0  0  0  0  0  0  0  0  0  0  0  0
   -1.5844   -1.9588    0.6159 H   0  0  0  0  0  0  0  0  0  0  0  0
   -1.5927   -1.8862   -1.1602 H   0  0  0  0  0  0  0  0  0  0  0  0
   -4.0035   -1.1256    0.7195 H   0  0  0  0  0  0  0  0  0  0  0  0
   -3.8510   -3.6584    0.5950 H   0  0  0  0  0  0  0  0  0  0  0  0
   -3.6001   -3.5403   -1.1506 H   0  0  0  0  0  0  0  0  0  0  0  0
   -7.3522   -6.1880   -0.9644 H   0  0  0  0  0  0  0  0  0  0  0  0
   -7.8563   -4.6958   -1.8134 H   0  0  0  0  0  0  0  0  0  0  0  0
   -9.3425   -4.1582    0.0789 H   0  0  0  0  0  0  0  0  0  0  0  0
   -8.6969   -5.5465    0.9998 H   0  0  0  0  0  0  0  0  0  0  0  0
  -10.6523   -5.5293   -0.9801 H   0  0  0  0  0  0  0  0  0  0  0  0
  -10.8042   -5.3820    0.8440 H   0  0  0  0  0  0  0  0  0  0  0  0
  -11.4307   -7.4720   -0.8112 H   0  0  0  0  0  0  0  0  0  0  0  0
  -11.5171   -7.3325    0.9383 H   0  0  0  0  0  0  0  0  0  0  0  0
  -13.8120   -6.4773    0.7558 H   0  0  0  0  0  0  0  0  0  0  0  0
  -13.7113   -6.6602   -1.0196 H   0  0  0  0  0  0  0  0  0  0  0  0
  -13.5800   -9.0512    1.0436 H   0  0  0  0  0  0  0  0  0  0  0  0
  -13.4597   -9.2476   -0.7282 H   0  0  0  0  0  0  0  0  0  0  0  0
  -15.7708   -8.4861   -0.9668 H   0  0  0  0  0  0  0  0  0  0  0  0
  -15.8924   -8.2787    0.7871 H   0  0  0  0  0  0  0  0  0  0  0  0
  -17.7244  -11.0867    0.8452 H   0  0  0  0  0  0  0  0  0  0  0  0
  -17.7420  -11.0686   -0.8722 H   0  0  0  0  0  0  0  0  0  0  0  0
  -19.6102  -10.6186   -0.9702 H   0  0  0  0  0  0  0  0  0  0  0  0
  -19.6253  -10.8358    1.0615 H   0  0  0  0  0  0  0  0  0  0  0  0
  -20.4436  -12.4521   -0.9753 H   0  0  0  0  0  0  0  0  0  0  0  0
  -22.4000  -12.7406   -1.0838 H   0  0  0  0  0  0  0  0  0  0  0  0
  -21.6404  -13.7417    0.2493 H   0  0  0  0  0  0  0  0  0  0  0  0
  -23.0102  -13.2850    0.0000 H   0  0  0  0  0  0  0  0  0  0  0  0
  -22.0492  -10.6585   -1.0010 H   0  0  0  0  0  0  0  0  0  0  0  0
  -21.9860  -10.6774    1.0327 H   0  0  0  0  0  0  0  0  0  0  0  0
  -22.0696   -9.7744    0.0000 H   0  0  0  0  0  0  0  0  0  0  0  0
   -5.7194    0.3492    0.8475 H   0  0  0  0  0  0  0  0  0  0  0  0
   -4.7195    1.5201   -0.0874 H   0  0  0  0  0  0  0  0  0  0  0  0
   -6.7734    2.1921   -1.3938 H   0  0  0  0  0  0  0  0  0  0  0  0
   -7.8256    1.1912   -0.3237 H   0  0  0  0  0  0  0  0  0  0  0  0
   -7.1107    2.6879    1.6647 H   0  0  0  0  0  0  0  0  0  0  0  0
   -5.8458    3.3158    0.5911 H   0  0  0  0  0  0  0  0  0  0  0  0
   -7.4765    4.3832   -0.9332 H   0  0  0  0  0  0  0  0  0  0  0  0
   -7.0832    5.0273    0.6772 H   0  0  0  0  0  0  0  0  0  0  0  0
   -9.3304    4.5575    1.5789 H   0  0  0  0  0  0  0  0  0  0  0  0
   -9.9040    3.9281   -0.0255 H   0  0  0  0  0  0  0  0  0  0  0  0
   -9.0828    6.0091   -1.0839 H   0  0  0  0  0  0  0  0  0  0  0  0
   -8.4378    6.5514    0.4564 H   0  0  0  0  0  0  0  0  0  0  0  0
  -10.9292    6.8171   -0.4996 H   0  0  0  0  0  0  0  0  0  0  0  0
  -10.1983    7.3465    1.1176 H   0  0  0  0  0  0  0  0  0  0  0  0
  -10.9232    8.8081   -1.1082 H   0  0  0  0  0  0  0  0  0  0  0  0
  -11.8576    8.3598    0.3753 H   0  0  0  0  0  0  0  0  0  0  0  0
  -11.1464   10.4631    1.3941 H   0  0  0  0  0  0  0  0  0  0  0  0
  -10.4467   10.9118   -0.1864 H   0  0  0  0  0  0  0  0  0  0  0  0
  -13.5072   10.3979    0.4359 H   0  0  0  0  0  0  0  0  0  0  0  0
  -12.9103   10.6964   -1.2204 H   0  0  0  0  0  0  0  0  0  0  0  0
  -12.2590   12.9161   -0.6618 H   0  0  0  0  0  0  0  0  0  0  0  0
  -12.6431   12.6751    1.0221 H   0  0  0  0  0  0  0  0  0  0  0  0
  -14.5342   13.3198    0.7119 H   0  0  0  0  0  0  0  0  0  0  0  0
  -14.1401   13.7158   -1.0696 H   0  0  0  0  0  0  0  0  0  0  0  0
  -14.3143   15.3269    1.0865 H   0  0  0  0  0  0  0  0  0  0  0  0
  -15.6322   14.6982   -0.0094 H   0  0  0  0  0  0  0  0  0  0  0  0
  -15.7089   16.3226   -1.0649 H   0  0  0  0  0  0  0  0  0  0  0  0
  -14.2844   16.9094   -0.1075 H   0  0  0  0  0  0  0  0  0  0  0  0
  -15.5176   18.0150    0.9563 H   0  0  0  0  0  0  0  0  0  0  0  0
  -15.4179   18.2932   -0.7870 H   0  0  0  0  0  0  0  0  0  0  0  0
  -17.2130   18.8023    1.0596 H   0  0  0  0  0  0  0  0  0  0  0  0
  -17.2864   18.5870   -0.9696 H   0  0  0  0  0  0  0  0  0  0  0  0
  -17.0751   20.5860   -0.9781 H   0  0  0  0  0  0  0  0  0  0  0  0
  -17.4600   22.3251    0.1991 H   0  0  0  0  0  0  0  0  0  0  0  0
  -18.6571   21.8091   -1.0778 H   0  0  0  0  0  0  0  0  0  0  0  0
  -18.8831   22.6083    0.0000 H   0  0  0  0  0  0  0  0  0  0  0  0
  -19.3075   19.8436    1.0290 H   0  0  0  0  0  0  0  0  0  0  0  0
  -19.3578   19.8400   -1.0061 H   0  0  0  0  0  0  0  0  0  0  0  0
  -19.8237   19.0977    0.0000 H   0  0  0  0  0  0  0  0  0  0  0  0
  1  2  1  0  0  0  0
  1 66  1  0  0  0  0
  1 67  1  0  0  0  0
  1 68  1  0  0  0  0
  2  3  1  0  0  0  0
  2  4  1  0  0  0  0
  2 69  1  0  0  0  0
  3 70  1  0  0  0  0
  3 71  1  0  0  0  0
  3 72  1  0  0  0  0
  4  5  1  0  0  0  0
  4 73  1  0  0  0  0
  4 74  1  0  0  0  0
  5  6  1  0  0  0  0
  5 75  1  0  0  0  0
  5 76  1  0  0  0  0
  6  7  1  0  0  0  0
  7  8  1  0  0  0  0
  7 77  1  0  0  0  0
  7 78  1  0  0  0  0
  8  9  1  0  0  0  0
  8 79  1  0  0  0  0
  8 80  1  0  0  0  0
  9 10  1  0  0  0  0
 10 11  1  0  0  0  0
 10 81  1  0  0  0  0
 10 82  1  0  0  0  0
 11 12  1  0  0  0  0
 11 83  1  0  0  0  0
 11 84  1  0  0  0  0
 12 13  1  0  0  0  0
 12 85  1  0  0  0  0
 12 86  1  0  0  0  0
 13 14  1  0  0  0  0
 13 87  1  0  0  0  0
 13 88  1  0  0  0  0
 14 15  1  0  0  0  0
 14 89  1  0  0  0  0
 14 90  1  0  0  0  0
 15 16  1  0  0  0  0
 15 91  1  0  0  0  0
 15 92  1  0  0  0  0
 16 17  1  0  0  0  0
 16 93  1  0  0  0  0
 16 94  1  0  0  0  0
 17 18  1  0  0  0  0
 17 95  1  0  0  0  0
 17 96  1  0  0  0  0
 18 19  1  0  0  0  0
 18 97  1  0  0  0  0
 18 98  1  0  0  0  0
 19 20  1  0  0  0  0
 19 99  1  0  0  0  0
 19100  1  0  0  0  0
 20 21  1  0  0  0  0
 20101  1  0  0  0  0
 20102  1  0  0  0  0
 21 22  1  0  0  0  0
 21103  1  0  0  0  0
 21104  1  0  0  0  0
 22 23  2  0  0  0  0
 22 24  1  0  0  0  0
 24 25  1  0  0  0  0
 25105  1  0  0  0  0
 25106  1  0  0  0  0
 26 25  1  0  0  0  0
 26 27  1  0  0  0  0
 26 44  1  0  0  0  0
 26107  1  1  0  0  0
 27 28  1  0  0  0  0
 27108  1  0  0  0  0
 27109  1  0  0  0  0
 28 29  1  0  0  0  0
 29 30  2  0  0  0  0
 29 31  1  0  0  0  0
 31 32  1  0  0  0  0
 31110  1  0  0  0  0
 31111  1  0  0  0  0
 32 33  1  0  0  0  0
 32112  1  0  0  0  0
 32113  1  0  0  0  0
 33 34  1  0  0  0  0
 33114  1  0  0  0  0
 33115  1  0  0  0  0
 34 35  1  0  0  0  0
 34116  1  0  0  0  0
 34117  1  0  0  0  0
 35 36  1  0  0  0  0
 35118  1  0  0  0  0
 35119  1  0  0  0  0
 36 37  1  0  0  0  0
 36120  1  0  0  0  0
 36121  1  0  0  0  0
 37 38  1  0  0  0  0
 37122  1  0  0  0  0
 37123  1  0  0  0  0
 38 39  1  0  0  0  0
 39 40  1  0  0  0  0
 39124  1  0  0  0  0
 39125  1  0  0  0  0
 40 41  1  0  0  0  0
 40126  1  0  0  0  0
 40127  1  0  0  0  0
 41 42  1  0  0  0  0
 41 43  1  0  0  0  0
 41128  1  0  0  0  0
 42129  1  0  0  0  0
 42130  1  0  0  0  0
 42131  1  0  0  0  0
 43132  1  0  0  0  0
 43133  1  0  0  0  0
 43134  1  0  0  0  0
 44 45  1  0  0  0  0
 45 46  2  0  0  0  0
 45 47  1  0  0  0  0
 47 48  1  0  0  0  0
 47135  1  0  0  0  0
 47136  1  0  0  0  0
 48 49  1  0  0  0  0
 48137  1  0  0  0  0
 48138  1  0  0  0  0
 49 50  1  0  0  0  0
 49139  1  0  0  0  0
 49140  1  0  0  0  0
 50 51  1  0  0  0  0
 50141  1  0  0  0  0
 50142  1  0  0  0  0
 51 52  1  0  0  0  0
 51143  1  0  0  0  0
 51144  1  0  0  0  0
 52 53  1  0  0  0  0
 52145  1  0  0  0  0
 52146  1  0  0  0  0
 53 54  1  0  0  0  0
 53147  1  0  0  0  0
 53148  1  0  0  0  0
 54 55  1  0  0  0  0
 54149  1  0  0  0  0
 54150  1  0  0  0  0
 55 56  1  0  0  0  0
 55151  1  0  0  0  0
 55152  1  0  0  0  0
 56 57  1  0  0  0  0
 56153  1  0  0  0  0
 56154  1  0  0  0  0
 57 58  1  0  0  0  0
 57155  1  0  0  0  0
 57156  1  0  0  0  0
 58 59  1  0  0  0  0
 58157  1  0  0  0  0
 58158  1  0  0  0  0
 59 60  1  0  0  0  0
 59159  1  0  0  0  0
 59160  1  0  0  0  0
 60 61  1  0  0  0  0
 60161  1  0  0  0  0
 60162  1  0  0  0  0
 61 62  1  0  0  0  0
 61163  1  0  0  0  0
 61164  1  0  0  0  0
 62 63  1  0  0  0  0
 62165  1  0  0  0  0
 62166  1  0  0  0  0
 63 64  1  0  0  0  0
 63 65  1  0  0  0  0
 63167  1  0  0  0  0
 64168  1  0  0  0  0
 64169  1  0  0  0  0
 64170  1  0  0  0  0
 65171  1  0  0  0  0
 65172  1  0  0  0  0
 65173  1  0  0  0  0
M  END
>  <IDENTIFIER>
CNP0521966.1

>  <Energy>
14319.8

$$$$
