
 OpenBabel09112517433D

104109  0  0  0  0  0  0  0  0999 V2000
   -4.4767    0.8419   -3.5079 C   0  0  0  0  0  0  0  0  0  0  0  0
   -3.3209    0.2901   -2.9975 O   0  0  0  0  0  0  0  0  0  0  0  0
   -2.6305    0.7986   -1.9428 C   0  0  0  0  0  0  0  0  0  0  0  0
   -3.0537    1.7701   -1.3309 O   0  0  0  0  0  0  0  0  0  0  0  0
   -1.3076    0.1760   -1.5535 C   0  0  1  0  0  0  0  0  0  0  0  0
   -1.0385   -0.9133   -2.4165 O   0  0  0  0  0  0  0  0  0  0  0  0
   -0.4259   -1.9104   -1.6500 C   0  0  0  0  0  0  0  0  0  0  0  0
   -0.0172   -1.2818   -0.2772 C   0  0  1  0  0  0  0  0  0  0  0  0
    0.0307   -2.3843    0.8428 C   0  0  2  0  0  0  0  0  0  0  0  0
    1.2855   -3.2104    0.6776 C   0  0  0  0  0  0  0  0  0  0  0  0
    2.5852   -2.3649    0.8492 C   0  0  1  0  0  0  0  0  0  0  0  0
    3.7493   -3.0597    0.0831 C   0  0  1  0  0  0  0  0  0  0  0  0
    3.5985   -3.1430   -1.4528 C   0  0  0  0  0  0  0  0  0  0  0  0
    5.0074   -2.3058    0.3553 C   0  0  0  0  0  0  0  0  0  0  0  0
    6.0385   -2.8989    0.6353 O   0  0  0  0  0  0  0  0  0  0  0  0
    5.0052   -0.8478    0.1824 C   0  0  0  0  0  0  0  0  0  0  0  0
    6.2157   -0.2487   -0.0222 O   0  0  0  0  0  0  0  0  0  0  0  0
    6.5230    1.0994   -0.0906 C   0  0  2  0  0  0  0  0  0  0  0  0
    7.6380    1.2851   -0.9746 O   0  0  0  0  0  0  0  0  0  0  0  0
    8.8571    1.4625   -0.2805 C   0  0  1  0  0  0  0  0  0  0  0  0
   10.0411    1.3587   -1.2538 C   0  0  0  0  0  0  0  0  0  0  0  0
   11.2617    1.4279   -0.5651 O   0  0  0  0  0  0  0  0  0  0  0  0
    8.8390    2.8032    0.5268 C   0  0  1  0  0  0  0  0  0  0  0  0
    9.1709    3.9307   -0.2488 O   0  0  0  0  0  0  0  0  0  0  0  0
    7.4782    3.0173    1.2627 C   0  0  1  0  0  0  0  0  0  0  0  0
    6.6741    3.9903    0.6317 O   0  0  0  0  0  0  0  0  0  0  0  0
    6.7353    1.6709    1.3546 C   0  0  1  0  0  0  0  0  0  0  0  0
    5.5297    1.7693    2.0694 O   0  0  0  0  0  0  0  0  0  0  0  0
    3.8298   -0.1688    0.2446 C   0  0  0  0  0  0  0  0  0  0  0  0
    2.4529   -0.7867    0.5801 C   0  0  2  0  0  0  0  0  0  0  0  0
    2.0653   -0.0529    1.9051 C   0  0  0  0  0  0  0  0  0  0  0  0
    1.3677   -0.5024   -0.5419 C   0  0  2  0  0  0  0  0  0  0  0  0
    1.0679    1.0067   -0.8461 C   0  0  1  0  0  0  0  0  0  0  0  0
    2.1761    1.7446   -1.2914 O   0  0  0  0  0  0  0  0  0  0  0  0
   -0.1629    1.2324   -1.7774 C   0  0  1  0  0  0  0  0  0  0  0  0
    0.1847    1.3052   -3.1402 O   0  0  0  0  0  0  0  0  0  0  0  0
   -1.1023   -3.1845    0.7302 O   0  0  0  0  0  0  0  0  0  0  0  0
   -2.3267   -2.6236    0.5303 C   0  0  0  0  0  0  0  0  0  0  0  0
   -3.2801   -3.3231    0.2255 O   0  0  0  0  0  0  0  0  0  0  0  0
   -2.4408   -1.1225    0.6047 C   0  0  2  0  0  0  0  0  0  0  0  0
   -3.6906   -0.6747    0.2115 O   0  0  0  0  0  0  0  0  0  0  0  0
   -4.6916   -0.2893    1.0465 C   0  0  0  0  0  0  0  0  0  0  0  0
   -4.5616   -0.3513    2.2611 O   0  0  0  0  0  0  0  0  0  0  0  0
   -5.9947    0.1794    0.4619 C   0  0  0  0  0  0  0  0  0  0  0  0
   -7.1769   -0.7634    0.8176 C   0  0  2  0  0  0  0  0  0  0  0  0
   -6.9193   -2.1735    0.2384 C   0  0  0  0  0  0  0  0  0  0  0  0
   -8.5655   -0.1463    0.3793 C   0  0  0  0  0  0  0  0  0  0  0  0
   -8.6591    0.0395   -1.1514 C   0  0  0  0  0  0  0  0  0  0  0  0
   -9.7502   -1.0467    0.8099 C   0  0  0  0  0  0  0  0  0  0  0  0
   -8.7203    1.1186    0.9416 O   0  0  0  0  0  0  0  0  0  0  0  0
   -8.7619    1.4596    2.2609 C   0  0  0  0  0  0  0  0  0  0  0  0
   -8.8834    2.8992    2.6402 C   0  0  0  0  0  0  0  0  0  0  0  0
   -8.6987    0.6159    3.1422 O   0  0  0  0  0  0  0  0  0  0  0  0
   -1.2440   -0.3470   -0.0820 C   0  0  2  0  0  0  0  0  0  0  0  0
   -4.8193    0.2322   -4.3692 H   0  0  0  0  0  0  0  0  0  0  0  0
   -4.2826    1.8779   -3.8581 H   0  0  0  0  0  0  0  0  0  0  0  0
   -5.2747    0.8520   -2.7405 H   0  0  0  0  0  0  0  0  0  0  0  0
    0.4253   -2.3755   -2.1896 H   0  0  0  0  0  0  0  0  0  0  0  0
   -1.1744   -2.7188   -1.5969 H   0  0  0  0  0  0  0  0  0  0  0  0
    0.0247   -1.9590    1.8581 H   0  0  0  0  0  0  0  0  0  0  0  0
    1.2020   -3.6328   -0.3364 H   0  0  0  0  0  0  0  0  0  0  0  0
    1.3146   -4.0805    1.3693 H   0  0  0  0  0  0  0  0  0  0  0  0
    2.8747   -2.4457    1.9223 H   0  0  0  0  0  0  0  0  0  0  0  0
    3.8606   -4.1080    0.4432 H   0  0  0  0  0  0  0  0  0  0  0  0
    3.5469   -2.1430   -1.9228 H   0  0  0  0  0  0  0  0  0  0  0  0
    2.7284   -3.7440   -1.7734 H   0  0  0  0  0  0  0  0  0  0  0  0
    4.4901   -3.6542   -1.8767 H   0  0  0  0  0  0  0  0  0  0  0  0
    5.7056    1.6618   -0.5823 H   0  0  0  0  0  0  0  0  0  0  0  0
    8.9811    0.6048    0.4219 H   0  0  0  0  0  0  0  0  0  0  0  0
    9.9872    2.1406   -2.0454 H   0  0  0  0  0  0  0  0  0  0  0  0
    9.9970    0.3812   -1.7797 H   0  0  0  0  0  0  0  0  0  0  0  0
   11.5133    2.3871   -0.5188 H   0  0  0  0  0  0  0  0  0  0  0  0
    9.6458    2.6777    1.2819 H   0  0  0  0  0  0  0  0  0  0  0  0
    8.6524    3.8820   -1.0936 H   0  0  0  0  0  0  0  0  0  0  0  0
    7.6932    3.4110    2.2798 H   0  0  0  0  0  0  0  0  0  0  0  0
    6.5331    3.7329   -0.3138 H   0  0  0  0  0  0  0  0  0  0  0  0
    7.3944    0.9798    1.9245 H   0  0  0  0  0  0  0  0  0  0  0  0
    4.9503    2.4199    1.5952 H   0  0  0  0  0  0  0  0  0  0  0  0
    3.8503    0.8998    0.1231 H   0  0  0  0  0  0  0  0  0  0  0  0
    2.1033    1.0500    1.7864 H   0  0  0  0  0  0  0  0  0  0  0  0
    2.8003   -0.2880    2.7058 H   0  0  0  0  0  0  0  0  0  0  0  0
    1.0655   -0.2711    2.2983 H   0  0  0  0  0  0  0  0  0  0  0  0
    1.8205   -0.9140   -1.4605 H   0  0  0  0  0  0  0  0  0  0  0  0
    0.7675    1.4456    0.1232 H   0  0  0  0  0  0  0  0  0  0  0  0
    2.5608    1.2631   -2.0681 H   0  0  0  0  0  0  0  0  0  0  0  0
   -0.5155    2.2500   -1.4912 H   0  0  0  0  0  0  0  0  0  0  0  0
    0.7371    0.5086   -3.3556 H   0  0  0  0  0  0  0  0  0  0  0  0
   -2.2896   -0.9610    1.6974 H   0  0  0  0  0  0  0  0  0  0  0  0
   -5.8880    0.2340   -0.6367 H   0  0  0  0  0  0  0  0  0  0  0  0
   -6.1799    1.2046    0.8468 H   0  0  0  0  0  0  0  0  0  0  0  0
   -7.1951   -0.8742    1.9218 H   0  0  0  0  0  0  0  0  0  0  0  0
   -6.8490   -2.1508   -0.8685 H   0  0  0  0  0  0  0  0  0  0  0  0
   -7.7094   -2.8880    0.5408 H   0  0  0  0  0  0  0  0  0  0  0  0
   -5.9654   -2.5853    0.6283 H   0  0  0  0  0  0  0  0  0  0  0  0
   -8.5772   -0.9271   -1.6892 H   0  0  0  0  0  0  0  0  0  0  0  0
   -7.8763    0.7289   -1.5268 H   0  0  0  0  0  0  0  0  0  0  0  0
   -9.6391    0.4901   -1.4202 H   0  0  0  0  0  0  0  0  0  0  0  0
   -9.7346   -2.0231    0.2841 H   0  0  0  0  0  0  0  0  0  0  0  0
  -10.7146   -0.5551    0.5582 H   0  0  0  0  0  0  0  0  0  0  0  0
   -9.7391   -1.2461    1.9001 H   0  0  0  0  0  0  0  0  0  0  0  0
   -8.9254    3.5348    1.7309 H   0  0  0  0  0  0  0  0  0  0  0  0
   -8.0043    3.1988    3.2487 H   0  0  0  0  0  0  0  0  0  0  0  0
   -9.8094    3.0533    3.2324 H   0  0  0  0  0  0  0  0  0  0  0  0
   -1.1072    0.5159    0.6045 H   0  0  0  0  0  0  0  0  0  0  0  0
  1  2  1  0  0  0  0
  1 55  1  0  0  0  0
  1 56  1  0  0  0  0
  1 57  1  0  0  0  0
  2  3  1  0  0  0  0
  3  4  2  0  0  0  0
  5  3  1  6  0  0  0
  5  6  1  0  0  0  0
  6  7  1  0  0  0  0
  7 58  1  0  0  0  0
  7 59  1  0  0  0  0
  8  7  1  6  0  0  0
  8  9  1  0  0  0  0
  9 10  1  0  0  0  0
  9 37  1  0  0  0  0
  9 60  1  1  0  0  0
 10 61  1  0  0  0  0
 10 62  1  0  0  0  0
 11 10  1  0  0  0  0
 11 12  1  0  0  0  0
 11 63  1  1  0  0  0
 12 13  1  0  0  0  0
 12 14  1  0  0  0  0
 12 64  1  1  0  0  0
 13 65  1  0  0  0  0
 13 66  1  0  0  0  0
 13 67  1  0  0  0  0
 14 15  2  0  0  0  0
 14 16  1  0  0  0  0
 16 17  1  0  0  0  0
 16 29  2  0  0  0  0
 18 17  1  0  0  0  0
 18 19  1  0  0  0  0
 18 68  1  6  0  0  0
 19 20  1  0  0  0  0
 20 21  1  0  0  0  0
 20 23  1  0  0  0  0
 20 69  1  1  0  0  0
 21 22  1  0  0  0  0
 21 70  1  0  0  0  0
 21 71  1  0  0  0  0
 22 72  1  0  0  0  0
 23 24  1  0  0  0  0
 23 25  1  0  0  0  0
 23 73  1  1  0  0  0
 24 74  1  0  0  0  0
 25 26  1  0  0  0  0
 25 27  1  0  0  0  0
 25 75  1  1  0  0  0
 26 76  1  0  0  0  0
 27 28  1  0  0  0  0
 27 18  1  0  0  0  0
 27 77  1  1  0  0  0
 28 78  1  0  0  0  0
 29 30  1  0  0  0  0
 29 79  1  0  0  0  0
 30 31  1  1  0  0  0
 30 32  1  0  0  0  0
 30 11  1  0  0  0  0
 31 80  1  0  0  0  0
 31 81  1  0  0  0  0
 31 82  1  0  0  0  0
 32 33  1  0  0  0  0
 32  8  1  0  0  0  0
 32 83  1  6  0  0  0
 33 34  1  0  0  0  0
 33 35  1  0  0  0  0
 33 84  1  1  0  0  0
 34 85  1  0  0  0  0
 35 36  1  0  0  0  0
 35  5  1  0  0  0  0
 35 86  1  1  0  0  0
 36 87  1  0  0  0  0
 37 38  1  0  0  0  0
 38 39  2  0  0  0  0
 38 40  1  0  0  0  0
 40 41  1  0  0  0  0
 40 88  1  1  0  0  0
 41 42  1  0  0  0  0
 42 43  2  0  0  0  0
 42 44  1  0  0  0  0
 44 45  1  0  0  0  0
 44 89  1  0  0  0  0
 44 90  1  0  0  0  0
 45 46  1  0  0  0  0
 45 47  1  0  0  0  0
 45 91  1  1  0  0  0
 46 92  1  0  0  0  0
 46 93  1  0  0  0  0
 46 94  1  0  0  0  0
 47 48  1  0  0  0  0
 47 49  1  0  0  0  0
 47 50  1  0  0  0  0
 48 95  1  0  0  0  0
 48 96  1  0  0  0  0
 48 97  1  0  0  0  0
 49 98  1  0  0  0  0
 49 99  1  0  0  0  0
 49100  1  0  0  0  0
 50 51  1  0  0  0  0
 51 52  1  0  0  0  0
 51 53  2  0  0  0  0
 52101  1  0  0  0  0
 52102  1  0  0  0  0
 52103  1  0  0  0  0
 54 40  1  0  0  0  0
 54  5  1  0  0  0  0
 54  8  1  0  0  0  0
 54104  1  1  0  0  0
M  END
>  <IDENTIFIER>
CNP0263742.3

>  <Energy>
1374.04

$$$$
