
 OpenBabel09062518073D

134142  0  0  0  0  0  0  0  0999 V2000
   12.2195    1.2509   -2.0064 C   0  0  0  0  0  0  0  0  0  0  0  0
   11.6783    1.4630   -0.5838 C   0  0  2  0  0  0  0  0  0  0  0  0
   11.4459    0.1359    0.1587 C   0  0  0  0  0  0  0  0  0  0  0  0
   10.1336   -0.5055   -0.2797 C   0  0  0  0  0  0  0  0  0  0  0  0
    8.9321    0.5088   -0.0957 C   0  0  1  0  0  0  0  0  0  0  0  0
    9.4236    1.7927    0.3175 O   0  0  0  0  0  0  0  0  0  0  0  0
   10.3629    2.2787   -0.6285 C   0  0  0  0  0  0  0  0  0  0  0  0
    8.2060    0.6305   -1.3139 O   0  0  0  0  0  0  0  0  0  0  0  0
    7.3392   -0.4895   -1.3818 C   0  0  2  0  0  0  0  0  0  0  0  0
    5.8771   -0.1562   -1.8042 C   0  0  0  0  0  0  0  0  0  0  0  0
    5.0085   -0.5424   -0.5939 C   0  0  1  0  0  0  0  0  0  0  0  0
    3.5232   -0.9030   -0.8140 C   0  0  2  0  0  0  0  0  0  0  0  0
    2.7637    0.2781   -1.4550 C   0  0  0  0  0  0  0  0  0  0  0  0
    1.2667    0.2235   -1.2761 C   0  0  0  0  0  0  0  0  0  0  0  0
    0.6381   -0.6789   -0.4922 C   0  0  0  0  0  0  0  0  0  0  0  0
   -0.8300   -0.5325   -0.2122 C   0  0  0  0  0  0  0  0  0  0  0  0
   -1.0367   -0.2242    1.2938 C   0  0  1  0  0  0  0  0  0  0  0  0
   -2.3535   -0.6516    1.6585 O   0  0  0  0  0  0  0  0  0  0  0  0
   -3.1952    0.4276    2.0414 C   0  0  2  0  0  0  0  0  0  0  0  0
   -3.4698    0.3325    3.4303 O   0  0  0  0  0  0  0  0  0  0  0  0
   -4.1776    1.4772    3.8965 C   0  0  2  0  0  0  0  0  0  0  0  0
   -4.4323    1.2939    5.3999 C   0  0  0  0  0  0  0  0  0  0  0  0
   -5.1658    0.1212    5.6459 O   0  0  0  0  0  0  0  0  0  0  0  0
   -5.5161    1.7016    3.1162 C   0  0  1  0  0  0  0  0  0  0  0  0
   -6.1535    2.8843    3.5279 O   0  0  0  0  0  0  0  0  0  0  0  0
   -5.2383    1.7151    1.5966 C   0  0  2  0  0  0  0  0  0  0  0  0
   -6.4391    1.8590    0.8422 O   0  0  0  0  0  0  0  0  0  0  0  0
   -6.5307    3.1369    0.1999 C   0  0  2  0  0  0  0  0  0  0  0  0
   -7.4311    3.9867    0.8983 O   0  0  0  0  0  0  0  0  0  0  0  0
   -8.7611    3.4848    0.8653 C   0  0  1  0  0  0  0  0  0  0  0  0
   -9.6329    4.3958    1.7290 C   0  0  0  0  0  0  0  0  0  0  0  0
   -9.2942    3.4306   -0.5913 C   0  0  2  0  0  0  0  0  0  0  0  0
  -10.6216    2.9697   -0.6431 O   0  0  0  0  0  0  0  0  0  0  0  0
   -8.3692    2.5198   -1.4222 C   0  0  1  0  0  0  0  0  0  0  0  0
   -8.7700    2.4458   -2.7682 O   0  0  0  0  0  0  0  0  0  0  0  0
   -6.9150    2.9998   -1.2948 C   0  0  1  0  0  0  0  0  0  0  0  0
   -6.7280    4.2196   -1.9803 O   0  0  0  0  0  0  0  0  0  0  0  0
   -4.5302    0.3853    1.2669 C   0  0  1  0  0  0  0  0  0  0  0  0
   -4.3106    0.2324   -0.1337 O   0  0  0  0  0  0  0  0  0  0  0  0
   -4.6697   -1.0798   -0.5878 C   0  0  2  0  0  0  0  0  0  0  0  0
   -3.6535   -1.5620   -1.4548 O   0  0  0  0  0  0  0  0  0  0  0  0
   -3.9165   -2.9168   -1.8202 C   0  0  2  0  0  0  0  0  0  0  0  0
   -2.6922   -3.4916   -2.5419 C   0  0  0  0  0  0  0  0  0  0  0  0
   -2.3794   -2.7431   -3.6855 O   0  0  0  0  0  0  0  0  0  0  0  0
   -5.1935   -2.9872   -2.6948 C   0  0  1  0  0  0  0  0  0  0  0  0
   -5.4678   -4.3027   -3.1119 O   0  0  0  0  0  0  0  0  0  0  0  0
   -6.3773   -2.4128   -1.8938 C   0  0  2  0  0  0  0  0  0  0  0  0
   -7.5504   -2.3755   -2.6675 O   0  0  0  0  0  0  0  0  0  0  0  0
   -6.0156   -1.0156   -1.3492 C   0  0  1  0  0  0  0  0  0  0  0  0
   -7.0476   -0.5310   -0.5283 O   0  0  0  0  0  0  0  0  0  0  0  0
    0.0183   -0.8890    2.2217 C   0  0  0  0  0  0  0  0  0  0  0  0
    0.5695   -2.1550    1.5751 C   0  0  0  0  0  0  0  0  0  0  0  0
    1.3732   -1.7996    0.2630 C   0  0  1  0  0  0  0  0  0  0  0  0
    1.3275   -3.0801   -0.6188 C   0  0  0  0  0  0  0  0  0  0  0  0
    2.8563   -1.3114    0.5481 C   0  0  1  0  0  0  0  0  0  0  0  0
    3.7107   -2.3613    1.3402 C   0  0  0  0  0  0  0  0  0  0  0  0
    5.1968   -1.9550    1.4665 C   0  0  0  0  0  0  0  0  0  0  0  0
    5.7954   -1.6771    0.0698 C   0  0  1  0  0  0  0  0  0  0  0  0
    5.7857   -3.0073   -0.7714 C   0  0  0  0  0  0  0  0  0  0  0  0
    7.2433   -1.1252    0.0122 C   0  0  2  0  0  0  0  0  0  0  0  0
    7.8577   -0.0053    0.8951 C   0  0  2  0  0  0  0  0  0  0  0  0
    6.9576    1.1906    1.2980 C   0  0  0  0  0  0  0  0  0  0  0  0
   13.1695    0.6771   -1.9760 H   0  0  0  0  0  0  0  0  0  0  0  0
   12.4147    2.2312   -2.4902 H   0  0  0  0  0  0  0  0  0  0  0  0
   11.4903    0.6912   -2.6310 H   0  0  0  0  0  0  0  0  0  0  0  0
   12.4501    2.0096    0.0019 H   0  0  0  0  0  0  0  0  0  0  0  0
   11.3433    0.3580    1.2451 H   0  0  0  0  0  0  0  0  0  0  0  0
   12.3122   -0.5516    0.0441 H   0  0  0  0  0  0  0  0  0  0  0  0
   10.0118   -1.4273    0.3255 H   0  0  0  0  0  0  0  0  0  0  0  0
   10.2192   -0.8092   -1.3445 H   0  0  0  0  0  0  0  0  0  0  0  0
   10.5805    3.3523   -0.4473 H   0  0  0  0  0  0  0  0  0  0  0  0
    9.9055    2.2659   -1.6438 H   0  0  0  0  0  0  0  0  0  0  0  0
    7.7521   -1.2163   -2.1169 H   0  0  0  0  0  0  0  0  0  0  0  0
    5.6173   -0.8516   -2.6319 H   0  0  0  0  0  0  0  0  0  0  0  0
    5.7114    0.8757   -2.1805 H   0  0  0  0  0  0  0  0  0  0  0  0
    4.9972    0.3195    0.0860 H   0  0  0  0  0  0  0  0  0  0  0  0
    3.4833   -1.7506   -1.5160 H   0  0  0  0  0  0  0  0  0  0  0  0
    3.0375    0.3503   -2.5293 H   0  0  0  0  0  0  0  0  0  0  0  0
    3.0652    1.2276   -0.9611 H   0  0  0  0  0  0  0  0  0  0  0  0
    0.6914    1.0253   -1.7319 H   0  0  0  0  0  0  0  0  0  0  0  0
   -1.2845   -1.5109   -0.4665 H   0  0  0  0  0  0  0  0  0  0  0  0
   -1.3431    0.2428   -0.8232 H   0  0  0  0  0  0  0  0  0  0  0  0
   -0.8339    0.8606    1.4464 H   0  0  0  0  0  0  0  0  0  0  0  0
   -2.7234    1.4120    1.8139 H   0  0  0  0  0  0  0  0  0  0  0  0
   -3.5278    2.3753    3.7817 H   0  0  0  0  0  0  0  0  0  0  0  0
   -4.9428    2.1842    5.8329 H   0  0  0  0  0  0  0  0  0  0  0  0
   -3.4579    1.2017    5.9256 H   0  0  0  0  0  0  0  0  0  0  0  0
   -6.1235    0.3778    5.6896 H   0  0  0  0  0  0  0  0  0  0  0  0
   -6.2063    0.8540    3.3234 H   0  0  0  0  0  0  0  0  0  0  0  0
   -5.5345    3.6369    3.3393 H   0  0  0  0  0  0  0  0  0  0  0  0
   -4.5071    2.5299    1.3978 H   0  0  0  0  0  0  0  0  0  0  0  0
   -5.5590    3.6737    0.1419 H   0  0  0  0  0  0  0  0  0  0  0  0
   -8.8016    2.4714    1.3278 H   0  0  0  0  0  0  0  0  0  0  0  0
   -9.6249    5.4325    1.3298 H   0  0  0  0  0  0  0  0  0  0  0  0
   -9.2405    4.4107    2.7681 H   0  0  0  0  0  0  0  0  0  0  0  0
  -10.6791    4.0244    1.7568 H   0  0  0  0  0  0  0  0  0  0  0  0
   -9.2763    4.4595   -1.0127 H   0  0  0  0  0  0  0  0  0  0  0  0
  -10.6415    2.0640   -0.2377 H   0  0  0  0  0  0  0  0  0  0  0  0
   -8.4364    1.4989   -0.9942 H   0  0  0  0  0  0  0  0  0  0  0  0
   -8.8055    3.3712   -3.1263 H   0  0  0  0  0  0  0  0  0  0  0  0
   -6.2325    2.2612   -1.7694 H   0  0  0  0  0  0  0  0  0  0  0  0
   -7.0697    4.9638   -1.4209 H   0  0  0  0  0  0  0  0  0  0  0  0
   -5.1740   -0.4259    1.6833 H   0  0  0  0  0  0  0  0  0  0  0  0
   -4.7571   -1.8113    0.2542 H   0  0  0  0  0  0  0  0  0  0  0  0
   -4.0488   -3.5508   -0.9108 H   0  0  0  0  0  0  0  0  0  0  0  0
   -2.8525   -4.5659   -2.7961 H   0  0  0  0  0  0  0  0  0  0  0  0
   -1.8214   -3.4667   -1.8572 H   0  0  0  0  0  0  0  0  0  0  0  0
   -2.8431   -3.1775   -4.4480 H   0  0  0  0  0  0  0  0  0  0  0  0
   -5.0351   -2.3605   -3.5995 H   0  0  0  0  0  0  0  0  0  0  0  0
   -5.5823   -4.8595   -2.2974 H   0  0  0  0  0  0  0  0  0  0  0  0
   -6.5614   -3.0838   -1.0245 H   0  0  0  0  0  0  0  0  0  0  0  0
   -7.3773   -1.7828   -3.4452 H   0  0  0  0  0  0  0  0  0  0  0  0
   -5.8904   -0.3140   -2.2041 H   0  0  0  0  0  0  0  0  0  0  0  0
   -7.1365   -1.1500    0.2435 H   0  0  0  0  0  0  0  0  0  0  0  0
   -0.4256   -1.0652    3.2247 H   0  0  0  0  0  0  0  0  0  0  0  0
    0.8835   -0.2065    2.3694 H   0  0  0  0  0  0  0  0  0  0  0  0
   -0.3239   -2.7810    1.3522 H   0  0  0  0  0  0  0  0  0  0  0  0
    1.1785   -2.7492    2.2795 H   0  0  0  0  0  0  0  0  0  0  0  0
    1.8142   -3.9428   -0.1240 H   0  0  0  0  0  0  0  0  0  0  0  0
    1.7675   -2.9419   -1.6232 H   0  0  0  0  0  0  0  0  0  0  0  0
    0.2762   -3.3792   -0.8053 H   0  0  0  0  0  0  0  0  0  0  0  0
    2.8372   -0.3949    1.1793 H   0  0  0  0  0  0  0  0  0  0  0  0
    3.6612   -3.3505    0.8592 H   0  0  0  0  0  0  0  0  0  0  0  0
    3.3141   -2.4926    2.3660 H   0  0  0  0  0  0  0  0  0  0  0  0
    5.7695   -2.7512    1.9889 H   0  0  0  0  0  0  0  0  0  0  0  0
    5.2411   -1.0504    2.0974 H   0  0  0  0  0  0  0  0  0  0  0  0
    6.3930   -3.7799   -0.2531 H   0  0  0  0  0  0  0  0  0  0  0  0
    6.2151   -2.8877   -1.7846 H   0  0  0  0  0  0  0  0  0  0  0  0
    4.7821   -3.4373   -0.9333 H   0  0  0  0  0  0  0  0  0  0  0  0
    7.9542   -1.9731    0.1051 H   0  0  0  0  0  0  0  0  0  0  0  0
    8.2663   -0.4105    1.8471 H   0  0  0  0  0  0  0  0  0  0  0  0
    6.5731    1.7460    0.4169 H   0  0  0  0  0  0  0  0  0  0  0  0
    7.5481    1.9153    1.8978 H   0  0  0  0  0  0  0  0  0  0  0  0
    6.1258    0.8872    1.9558 H   0  0  0  0  0  0  0  0  0  0  0  0
  1 63  1  0  0  0  0
  1 64  1  0  0  0  0
  1 65  1  0  0  0  0
  2  1  1  0  0  0  0
  2  3  1  0  0  0  0
  2 66  1  1  0  0  0
  3  4  1  0  0  0  0
  3 67  1  0  0  0  0
  3 68  1  0  0  0  0
  4 69  1  0  0  0  0
  4 70  1  0  0  0  0
  5  4  1  0  0  0  0
  5  6  1  1  0  0  0
  5  8  1  0  0  0  0
  6  7  1  0  0  0  0
  7  2  1  0  0  0  0
  7 71  1  0  0  0  0
  7 72  1  0  0  0  0
  8  9  1  0  0  0  0
  9 10  1  0  0  0  0
  9 73  1  6  0  0  0
 10 74  1  0  0  0  0
 10 75  1  0  0  0  0
 11 10  1  0  0  0  0
 11 12  1  0  0  0  0
 11 76  1  1  0  0  0
 12 13  1  0  0  0  0
 12 77  1  6  0  0  0
 13 14  1  0  0  0  0
 13 78  1  0  0  0  0
 13 79  1  0  0  0  0
 14 15  2  0  0  0  0
 14 80  1  0  0  0  0
 15 16  1  0  0  0  0
 16 17  1  0  0  0  0
 16 81  1  0  0  0  0
 16 82  1  0  0  0  0
 17 18  1  0  0  0  0
 17 51  1  0  0  0  0
 17 83  1  1  0  0  0
 19 18  1  0  0  0  0
 19 20  1  0  0  0  0
 19 84  1  6  0  0  0
 20 21  1  0  0  0  0
 21 22  1  0  0  0  0
 21 24  1  0  0  0  0
 21 85  1  6  0  0  0
 22 23  1  0  0  0  0
 22 86  1  0  0  0  0
 22 87  1  0  0  0  0
 23 88  1  0  0  0  0
 24 25  1  0  0  0  0
 24 26  1  0  0  0  0
 24 89  1  1  0  0  0
 25 90  1  0  0  0  0
 26 27  1  0  0  0  0
 26 38  1  0  0  0  0
 26 91  1  6  0  0  0
 28 27  1  0  0  0  0
 28 29  1  0  0  0  0
 28 92  1  1  0  0  0
 29 30  1  0  0  0  0
 30 31  1  0  0  0  0
 30 32  1  0  0  0  0
 30 93  1  1  0  0  0
 31 94  1  0  0  0  0
 31 95  1  0  0  0  0
 31 96  1  0  0  0  0
 32 33  1  0  0  0  0
 32 34  1  0  0  0  0
 32 97  1  6  0  0  0
 33 98  1  0  0  0  0
 34 35  1  0  0  0  0
 34 36  1  0  0  0  0
 34 99  1  1  0  0  0
 35100  1  0  0  0  0
 36 37  1  0  0  0  0
 36 28  1  0  0  0  0
 36101  1  6  0  0  0
 37102  1  0  0  0  0
 38 39  1  0  0  0  0
 38 19  1  0  0  0  0
 38103  1  1  0  0  0
 40 39  1  0  0  0  0
 40 41  1  0  0  0  0
 40104  1  1  0  0  0
 41 42  1  0  0  0  0
 42 43  1  0  0  0  0
 42 45  1  0  0  0  0
 42105  1  1  0  0  0
 43 44  1  0  0  0  0
 43106  1  0  0  0  0
 43107  1  0  0  0  0
 44108  1  0  0  0  0
 45 46  1  0  0  0  0
 45 47  1  0  0  0  0
 45109  1  6  0  0  0
 46110  1  0  0  0  0
 47 48  1  0  0  0  0
 47 49  1  0  0  0  0
 47111  1  1  0  0  0
 48112  1  0  0  0  0
 49 50  1  0  0  0  0
 49 40  1  0  0  0  0
 49113  1  6  0  0  0
 50114  1  0  0  0  0
 51 52  1  0  0  0  0
 51115  1  0  0  0  0
 51116  1  0  0  0  0
 52 53  1  0  0  0  0
 52117  1  0  0  0  0
 52118  1  0  0  0  0
 53 54  1  6  0  0  0
 53 55  1  0  0  0  0
 53 15  1  0  0  0  0
 54119  1  0  0  0  0
 54120  1  0  0  0  0
 54121  1  0  0  0  0
 55 56  1  0  0  0  0
 55 12  1  0  0  0  0
 55122  1  1  0  0  0
 56 57  1  0  0  0  0
 56123  1  0  0  0  0
 56124  1  0  0  0  0
 57 58  1  0  0  0  0
 57125  1  0  0  0  0
 57126  1  0  0  0  0
 58 59  1  6  0  0  0
 58 60  1  0  0  0  0
 58 11  1  0  0  0  0
 59127  1  0  0  0  0
 59128  1  0  0  0  0
 59129  1  0  0  0  0
 60 61  1  0  0  0  0
 60  9  1  0  0  0  0
 60130  1  1  0  0  0
 61 62  1  0  0  0  0
 61  5  1  0  0  0  0
 61131  1  1  0  0  0
 62132  1  0  0  0  0
 62133  1  0  0  0  0
 62134  1  0  0  0  0
M  END
>  <IDENTIFIER>
CNP0195132.2

>  <Energy>
1772.56

$$$$
