
 OpenBabel09112521333D

 45 45  0  0  0  0  0  0  0  0999 V2000
    5.2647   -2.5587   -1.6496 C   0  0  0  0  0  0  0  0  0  0  0  0
    5.1801   -1.4279   -0.9423 C   0  0  0  0  0  0  0  0  0  0  0  0
    4.0350   -0.4650   -1.1161 C   0  0  0  0  0  0  0  0  0  0  0  0
    3.2600   -0.2859    0.2102 C   0  0  2  0  0  0  0  0  0  0  0  0
    2.8371   -1.5464    0.6756 O   0  0  0  0  0  0  0  0  0  0  0  0
    2.0382    0.6801    0.0907 C   0  0  2  0  0  0  0  0  0  0  0  0
    2.4680    2.0896   -0.3644 C   0  0  0  0  0  0  0  0  0  0  0  0
    1.2927    0.7509    1.4513 C   0  0  0  0  0  0  0  0  0  0  0  0
    0.0314    1.6510    1.5565 C   0  0  0  0  0  0  0  0  0  0  0  0
   -1.2539    1.2748    0.7621 C   0  0  1  0  0  0  0  0  0  0  0  0
   -1.1675    1.5687   -0.7466 C   0  0  0  0  0  0  0  0  0  0  0  0
   -1.6940   -0.1820    1.0435 C   0  0  0  0  0  0  0  0  0  0  0  0
   -3.0218   -0.5279    0.4082 C   0  0  0  0  0  0  0  0  0  0  0  0
   -4.1928    0.1550    0.7794 C   0  0  0  0  0  0  0  0  0  0  0  0
   -5.4168   -0.1657    0.1828 C   0  0  0  0  0  0  0  0  0  0  0  0
   -5.4836   -1.1738   -0.7893 C   0  0  0  0  0  0  0  0  0  0  0  0
   -6.6563   -1.4914   -1.3748 O   0  0  0  0  0  0  0  0  0  0  0  0
   -4.3216   -1.8590   -1.1575 C   0  0  0  0  0  0  0  0  0  0  0  0
   -3.0977   -1.5401   -0.5637 C   0  0  0  0  0  0  0  0  0  0  0  0
    6.1035   -3.2305   -1.5002 H   0  0  0  0  0  0  0  0  0  0  0  0
    4.5051   -2.8249   -2.3785 H   0  0  0  0  0  0  0  0  0  0  0  0
    5.9588   -1.1948   -0.2222 H   0  0  0  0  0  0  0  0  0  0  0  0
    3.3350   -0.8267   -1.9018 H   0  0  0  0  0  0  0  0  0  0  0  0
    4.4692    0.4974   -1.4513 H   0  0  0  0  0  0  0  0  0  0  0  0
    3.9643    0.1299    0.9650 H   0  0  0  0  0  0  0  0  0  0  0  0
    2.2069   -1.9191    0.0042 H   0  0  0  0  0  0  0  0  0  0  0  0
    1.3723    0.2427   -0.6687 H   0  0  0  0  0  0  0  0  0  0  0  0
    3.1687    2.5397    0.3709 H   0  0  0  0  0  0  0  0  0  0  0  0
    1.5916    2.7558   -0.4776 H   0  0  0  0  0  0  0  0  0  0  0  0
    2.9521    2.0653   -1.3596 H   0  0  0  0  0  0  0  0  0  0  0  0
    2.0179    1.1332    2.2041 H   0  0  0  0  0  0  0  0  0  0  0  0
    1.0093   -0.2714    1.7759 H   0  0  0  0  0  0  0  0  0  0  0  0
    0.2930    2.7102    1.3537 H   0  0  0  0  0  0  0  0  0  0  0  0
   -0.2565    1.6140    2.6309 H   0  0  0  0  0  0  0  0  0  0  0  0
   -2.0382    1.9622    1.1494 H   0  0  0  0  0  0  0  0  0  0  0  0
   -0.4960    0.8844   -1.2849 H   0  0  0  0  0  0  0  0  0  0  0  0
   -0.8475    2.6178   -0.9168 H   0  0  0  0  0  0  0  0  0  0  0  0
   -2.1683    1.4496   -1.2127 H   0  0  0  0  0  0  0  0  0  0  0  0
   -1.7831   -0.3405    2.1401 H   0  0  0  0  0  0  0  0  0  0  0  0
   -0.9088   -0.8700    0.6625 H   0  0  0  0  0  0  0  0  0  0  0  0
   -4.1605    0.9347    1.5295 H   0  0  0  0  0  0  0  0  0  0  0  0
   -6.3102    0.3698    0.4772 H   0  0  0  0  0  0  0  0  0  0  0  0
   -7.4821   -1.0407   -1.1499 H   0  0  0  0  0  0  0  0  0  0  0  0
   -4.3665   -2.6390   -1.9078 H   0  0  0  0  0  0  0  0  0  0  0  0
   -2.2102   -2.0819   -0.8654 H   0  0  0  0  0  0  0  0  0  0  0  0
  1  2  2  0  0  0  0
  1 20  1  0  0  0  0
  1 21  1  0  0  0  0
  2  3  1  0  0  0  0
  2 22  1  0  0  0  0
  3  4  1  0  0  0  0
  3 23  1  0  0  0  0
  3 24  1  0  0  0  0
  4  5  1  0  0  0  0
  4  6  1  0  0  0  0
  4 25  1  1  0  0  0
  5 26  1  0  0  0  0
  6  7  1  0  0  0  0
  6  8  1  0  0  0  0
  6 27  1  6  0  0  0
  7 28  1  0  0  0  0
  7 29  1  0  0  0  0
  7 30  1  0  0  0  0
  8  9  1  0  0  0  0
  8 31  1  0  0  0  0
  8 32  1  0  0  0  0
  9 10  1  0  0  0  0
  9 33  1  0  0  0  0
  9 34  1  0  0  0  0
 10 11  1  0  0  0  0
 10 12  1  0  0  0  0
 10 35  1  1  0  0  0
 11 36  1  0  0  0  0
 11 37  1  0  0  0  0
 11 38  1  0  0  0  0
 12 13  1  0  0  0  0
 12 39  1  0  0  0  0
 12 40  1  0  0  0  0
 13 14  2  0  0  0  0
 14 15  1  0  0  0  0
 14 41  1  0  0  0  0
 15 16  2  0  0  0  0
 15 42  1  0  0  0  0
 16 17  1  0  0  0  0
 16 18  1  0  0  0  0
 17 43  1  0  0  0  0
 18 19  2  0  0  0  0
 18 44  1  0  0  0  0
 19 13  1  0  0  0  0
 19 45  1  0  0  0  0
M  END
>  <IDENTIFIER>
CNP0433700.0

>  <Energy>
183.016

$$$$
