
 OpenBabel09132508453D

 35 36  0  0  0  0  0  0  0  0999 V2000
   -0.2622   -3.1539    0.4933 C   0  0  0  0  0  0  0  0  0  0  0  0
    0.2852   -1.8069    0.0714 C   0  0  0  0  0  0  0  0  0  0  0  0
    1.6347   -1.6504    0.0142 C   0  0  0  0  0  0  0  0  0  0  0  0
    2.4034   -0.4355   -0.3593 C   0  0  0  0  0  0  0  0  0  0  0  0
    3.7802   -0.3425   -0.2790 C   0  0  0  0  0  0  0  0  0  0  0  0
    4.0916    0.9310   -0.6991 C   0  0  0  0  0  0  0  0  0  0  0  0
    5.4515    1.5407   -0.7863 C   0  0  0  0  0  0  0  0  0  0  0  0
    2.8998    1.5417   -1.0192 C   0  0  0  0  0  0  0  0  0  0  0  0
    1.9132    0.7021   -0.8014 O   0  0  0  0  0  0  0  0  0  0  0  0
   -0.7326   -0.7233   -0.2577 C   0  0  0  0  0  0  0  0  0  0  0  0
   -1.5109   -0.2996    0.9984 C   0  0  0  0  0  0  0  0  0  0  0  0
   -2.4712    0.8185    0.7094 C   0  0  0  0  0  0  0  0  0  0  0  0
   -3.6212    0.7745   -0.0649 C   0  0  0  0  0  0  0  0  0  0  0  0
   -4.2165   -0.3905   -0.7908 C   0  0  0  0  0  0  0  0  0  0  0  0
   -4.1534    2.0449   -0.0280 C   0  0  0  0  0  0  0  0  0  0  0  0
   -3.3083    2.7876    0.7683 C   0  0  0  0  0  0  0  0  0  0  0  0
   -2.3211    2.0310    1.1969 O   0  0  0  0  0  0  0  0  0  0  0  0
    0.5385   -3.8970    0.6947 H   0  0  0  0  0  0  0  0  0  0  0  0
   -0.9066   -3.5592   -0.3150 H   0  0  0  0  0  0  0  0  0  0  0  0
   -0.8629   -3.0591    1.4197 H   0  0  0  0  0  0  0  0  0  0  0  0
    2.2538   -2.5003    0.2903 H   0  0  0  0  0  0  0  0  0  0  0  0
    4.4705   -1.1073    0.0534 H   0  0  0  0  0  0  0  0  0  0  0  0
    6.2242    0.8173   -0.4504 H   0  0  0  0  0  0  0  0  0  0  0  0
    5.4955    2.4403   -0.1374 H   0  0  0  0  0  0  0  0  0  0  0  0
    5.6625    1.8354   -1.8354 H   0  0  0  0  0  0  0  0  0  0  0  0
    2.7752    2.5522   -1.3873 H   0  0  0  0  0  0  0  0  0  0  0  0
   -1.4087   -1.1035   -1.0489 H   0  0  0  0  0  0  0  0  0  0  0  0
   -0.2709    0.1856   -0.6657 H   0  0  0  0  0  0  0  0  0  0  0  0
   -0.7711    0.0673    1.7436 H   0  0  0  0  0  0  0  0  0  0  0  0
   -2.0727   -1.1443    1.4477 H   0  0  0  0  0  0  0  0  0  0  0  0
   -3.6257   -1.3145   -0.6331 H   0  0  0  0  0  0  0  0  0  0  0  0
   -4.2644   -0.1679   -1.8772 H   0  0  0  0  0  0  0  0  0  0  0  0
   -5.2428   -0.5712   -0.4105 H   0  0  0  0  0  0  0  0  0  0  0  0
   -5.0548    2.3893   -0.5171 H   0  0  0  0  0  0  0  0  0  0  0  0
   -3.4275    3.8330    1.0191 H   0  0  0  0  0  0  0  0  0  0  0  0
  1  2  1  0  0  0  0
  1 18  1  0  0  0  0
  1 19  1  0  0  0  0
  1 20  1  0  0  0  0
  2  3  2  3  0  0  0
  2 10  1  0  0  0  0
  3  4  1  0  0  0  0
  3 21  1  0  0  0  0
  4  5  2  0  0  0  0
  5  6  1  0  0  0  0
  5 22  1  0  0  0  0
  6  7  1  0  0  0  0
  6  8  2  0  0  0  0
  7 23  1  0  0  0  0
  7 24  1  0  0  0  0
  7 25  1  0  0  0  0
  8  9  1  0  0  0  0
  8 26  1  0  0  0  0
  9  4  1  0  0  0  0
 10 11  1  0  0  0  0
 10 27  1  0  0  0  0
 10 28  1  0  0  0  0
 11 12  1  0  0  0  0
 11 29  1  0  0  0  0
 11 30  1  0  0  0  0
 12 13  2  0  0  0  0
 13 14  1  0  0  0  0
 13 15  1  0  0  0  0
 14 31  1  0  0  0  0
 14 32  1  0  0  0  0
 14 33  1  0  0  0  0
 15 16  2  0  0  0  0
 15 34  1  0  0  0  0
 16 17  1  0  0  0  0
 16 35  1  0  0  0  0
 17 12  1  0  0  0  0
M  END
>  <IDENTIFIER>
CNP0231352.0

>  <Energy>
357.865

$$$$
