
 OpenBabel09062514443D

101105  0  0  0  0  0  0  0  0999 V2000
    8.5072   -0.5896   -2.9048 C   0  0  0  0  0  0  0  0  0  0  0  0
    7.3003   -1.5275   -2.8695 C   0  0  0  0  0  0  0  0  0  0  0  0
    7.5777   -2.8424   -2.1099 C   0  0  0  0  0  0  0  0  0  0  0  0
    8.1246   -2.7384   -0.6678 C   0  0  0  0  0  0  0  0  0  0  0  0
    7.1545   -2.3139    0.4483 C   0  0  0  0  0  0  0  0  0  0  0  0
    6.6120   -0.8885    0.3505 C   0  0  0  0  0  0  0  0  0  0  0  0
    5.8383   -0.5346    1.6211 C   0  0  0  0  0  0  0  0  0  0  0  0
    5.2900    0.8931    1.6071 C   0  0  0  0  0  0  0  0  0  0  0  0
    4.2257    1.1350    0.5152 C   0  0  0  0  0  0  0  0  0  0  0  0
    3.6729    2.5709    0.5276 C   0  0  0  0  0  0  0  0  0  0  0  0
    3.1381    3.0207    1.8918 C   0  0  0  0  0  0  0  0  0  0  0  0
    2.0119    2.2077    2.4676 C   0  0  0  0  0  0  0  0  0  0  0  0
    1.7328    2.4291    3.6426 O   0  0  0  0  0  0  0  0  0  0  0  0
    1.2754    1.3223    1.7369 O   0  0  0  0  0  0  0  0  0  0  0  0
    0.1213    0.7289    2.2553 C   0  0  1  0  0  0  0  0  0  0  0  0
   -1.0085    1.7660    2.7239 C   0  0  0  0  0  0  0  0  0  0  0  0
   -2.3582    2.0727    1.9220 C   0  0  1  0  0  0  0  0  0  0  0  0
   -2.6699    3.5810    2.0282 C   0  0  0  0  0  0  0  0  0  0  0  0
   -2.5739    1.4837    0.4571 C   0  0  2  0  0  0  0  0  0  0  0  0
   -2.4127    2.4782   -0.6846 C   0  0  0  0  0  0  0  0  0  0  0  0
   -3.2188    2.1577   -1.7058 C   0  0  0  0  0  0  0  0  0  0  0  0
   -3.4097    2.9883   -2.9390 C   0  0  0  0  0  0  0  0  0  0  0  0
   -3.9194    0.8675   -1.4112 C   0  0  2  0  0  0  0  0  0  0  0  0
   -5.0916    0.6437   -2.1211 O   0  0  0  0  0  0  0  0  0  0  0  0
   -5.2417   -0.4443   -2.9386 C   0  0  0  0  0  0  0  0  0  0  0  0
   -4.2996   -1.2018   -3.1397 O   0  0  0  0  0  0  0  0  0  0  0  0
   -6.5373   -0.7667   -3.5693 C   0  0  0  0  0  0  0  0  0  0  0  0
   -7.6519    0.0732   -3.4218 C   0  0  0  0  0  0  0  0  0  0  0  0
   -8.8659   -0.2622   -4.0323 C   0  0  0  0  0  0  0  0  0  0  0  0
   -8.9753   -1.4360   -4.7863 C   0  0  0  0  0  0  0  0  0  0  0  0
   -7.8725   -2.2779   -4.9315 C   0  0  0  0  0  0  0  0  0  0  0  0
   -6.6611   -1.9467   -4.3293 C   0  0  0  0  0  0  0  0  0  0  0  0
   -4.0364    0.9379    0.1348 C   0  0  2  0  0  0  0  0  0  0  0  0
   -4.9508    1.9530    0.5031 O   0  0  0  0  0  0  0  0  0  0  0  0
   -4.4933   -0.4261    0.8306 C   0  0  1  0  0  0  0  0  0  0  0  0
   -5.8739   -0.6312    0.6191 O   0  0  0  0  0  0  0  0  0  0  0  0
   -3.7031   -1.7503    0.5493 C   0  0  0  0  0  0  0  0  0  0  0  0
   -4.4860   -2.9575    0.0440 C   0  0  0  0  0  0  0  0  0  0  0  0
   -3.7017   -4.1122   -0.0805 O   0  0  0  0  0  0  0  0  0  0  0  0
   -2.3658   -1.8726    0.8198 C   0  0  0  0  0  0  0  0  0  0  0  0
   -1.6355   -0.6958    1.3476 C   0  0  2  0  0  0  0  0  0  0  0  0
   -1.6561    0.3266    0.2674 C   0  0  0  0  0  0  0  0  0  0  0  0
   -0.9249    0.2296   -0.7125 O   0  0  0  0  0  0  0  0  0  0  0  0
   -0.1762   -0.7786    1.7927 C   0  0  2  0  0  0  0  0  0  0  0  0
    0.4139   -0.4670    3.1677 C   0  0  0  0  0  0  0  0  0  0  0  0
    1.8856   -0.9178    3.2887 C   0  0  0  0  0  0  0  0  0  0  0  0
   -0.4591   -0.7953    4.3909 C   0  0  0  0  0  0  0  0  0  0  0  0
    8.2626    0.3067   -3.5119 H   0  0  0  0  0  0  0  0  0  0  0  0
    9.3827   -1.1025   -3.3551 H   0  0  0  0  0  0  0  0  0  0  0  0
    8.7690   -0.2410   -1.8850 H   0  0  0  0  0  0  0  0  0  0  0  0
    7.0316   -1.7930   -3.9145 H   0  0  0  0  0  0  0  0  0  0  0  0
    6.4331   -0.9828   -2.4709 H   0  0  0  0  0  0  0  0  0  0  0  0
    8.3581   -3.3743   -2.6967 H   0  0  0  0  0  0  0  0  0  0  0  0
    6.6664   -3.4790   -2.1177 H   0  0  0  0  0  0  0  0  0  0  0  0
    9.0364   -2.1069   -0.6428 H   0  0  0  0  0  0  0  0  0  0  0  0
    8.4483   -3.7648   -0.3876 H   0  0  0  0  0  0  0  0  0  0  0  0
    7.7308   -2.3908    1.3972 H   0  0  0  0  0  0  0  0  0  0  0  0
    6.3034   -3.0272    0.5033 H   0  0  0  0  0  0  0  0  0  0  0  0
    5.9146   -0.8293   -0.4939 H   0  0  0  0  0  0  0  0  0  0  0  0
    7.4482   -0.1671    0.2212 H   0  0  0  0  0  0  0  0  0  0  0  0
    6.5289   -0.6195    2.4892 H   0  0  0  0  0  0  0  0  0  0  0  0
    5.0003   -1.2505    1.7697 H   0  0  0  0  0  0  0  0  0  0  0  0
    6.1263    1.6171    1.4940 H   0  0  0  0  0  0  0  0  0  0  0  0
    4.8289    1.0346    2.6060 H   0  0  0  0  0  0  0  0  0  0  0  0
    3.3972    0.4128    0.6478 H   0  0  0  0  0  0  0  0  0  0  0  0
    4.6612    0.9732   -0.4927 H   0  0  0  0  0  0  0  0  0  0  0  0
    2.8832    2.6681   -0.2485 H   0  0  0  0  0  0  0  0  0  0  0  0
    4.5014    3.2637    0.2589 H   0  0  0  0  0  0  0  0  0  0  0  0
    2.8045    4.0776    1.8329 H   0  0  0  0  0  0  0  0  0  0  0  0
    3.9760    3.0114    2.6167 H   0  0  0  0  0  0  0  0  0  0  0  0
   -0.4887    2.7321    2.8452 H   0  0  0  0  0  0  0  0  0  0  0  0
   -1.3061    1.5652    3.7732 H   0  0  0  0  0  0  0  0  0  0  0  0
   -3.1343    1.5607    2.5281 H   0  0  0  0  0  0  0  0  0  0  0  0
   -1.8819    4.1617    1.4978 H   0  0  0  0  0  0  0  0  0  0  0  0
   -2.6539    3.9057    3.0901 H   0  0  0  0  0  0  0  0  0  0  0  0
   -3.6530    3.8390    1.5911 H   0  0  0  0  0  0  0  0  0  0  0  0
   -1.8176    3.3809   -0.6558 H   0  0  0  0  0  0  0  0  0  0  0  0
   -2.7956    3.9133   -2.8947 H   0  0  0  0  0  0  0  0  0  0  0  0
   -4.4781    3.2766   -3.0277 H   0  0  0  0  0  0  0  0  0  0  0  0
   -3.1138    2.4007   -3.8319 H   0  0  0  0  0  0  0  0  0  0  0  0
   -3.1865    0.0703   -1.6423 H   0  0  0  0  0  0  0  0  0  0  0  0
   -7.5846    0.9846   -2.8409 H   0  0  0  0  0  0  0  0  0  0  0  0
   -9.7236    0.3867   -3.9216 H   0  0  0  0  0  0  0  0  0  0  0  0
   -9.9140   -1.6943   -5.2567 H   0  0  0  0  0  0  0  0  0  0  0  0
   -7.9510   -3.1895   -5.5103 H   0  0  0  0  0  0  0  0  0  0  0  0
   -5.8200   -2.6193   -4.4549 H   0  0  0  0  0  0  0  0  0  0  0  0
   -5.8205    1.7742    0.0611 H   0  0  0  0  0  0  0  0  0  0  0  0
   -4.4172   -0.2447    1.9213 H   0  0  0  0  0  0  0  0  0  0  0  0
   -6.0264   -0.7522   -0.3497 H   0  0  0  0  0  0  0  0  0  0  0  0
   -4.9768   -2.7325   -0.9276 H   0  0  0  0  0  0  0  0  0  0  0  0
   -5.2941   -3.1794    0.7722 H   0  0  0  0  0  0  0  0  0  0  0  0
   -3.1520   -3.9923   -0.8985 H   0  0  0  0  0  0  0  0  0  0  0  0
   -1.8236   -2.8014    0.6810 H   0  0  0  0  0  0  0  0  0  0  0  0
   -2.2340   -0.4355    2.2310 H   0  0  0  0  0  0  0  0  0  0  0  0
    0.5456   -1.0410    0.9868 H   0  0  0  0  0  0  0  0  0  0  0  0
    1.9390   -1.9546    3.6820 H   0  0  0  0  0  0  0  0  0  0  0  0
    2.4326   -0.2441    3.9767 H   0  0  0  0  0  0  0  0  0  0  0  0
    2.4117   -0.9197    2.3104 H   0  0  0  0  0  0  0  0  0  0  0  0
   -0.2586   -1.8376    4.7197 H   0  0  0  0  0  0  0  0  0  0  0  0
   -1.5462   -0.7189    4.2141 H   0  0  0  0  0  0  0  0  0  0  0  0
   -0.1883   -0.1111    5.2199 H   0  0  0  0  0  0  0  0  0  0  0  0
  1  2  1  0  0  0  0
  1 48  1  0  0  0  0
  1 49  1  0  0  0  0
  1 50  1  0  0  0  0
  2  3  1  0  0  0  0
  2 51  1  0  0  0  0
  2 52  1  0  0  0  0
  3  4  1  0  0  0  0
  3 53  1  0  0  0  0
  3 54  1  0  0  0  0
  4  5  1  0  0  0  0
  4 55  1  0  0  0  0
  4 56  1  0  0  0  0
  5  6  1  0  0  0  0
  5 57  1  0  0  0  0
  5 58  1  0  0  0  0
  6  7  1  0  0  0  0
  6 59  1  0  0  0  0
  6 60  1  0  0  0  0
  7  8  1  0  0  0  0
  7 61  1  0  0  0  0
  7 62  1  0  0  0  0
  8  9  1  0  0  0  0
  8 63  1  0  0  0  0
  8 64  1  0  0  0  0
  9 10  1  0  0  0  0
  9 65  1  0  0  0  0
  9 66  1  0  0  0  0
 10 11  1  0  0  0  0
 10 67  1  0  0  0  0
 10 68  1  0  0  0  0
 11 12  1  0  0  0  0
 11 69  1  0  0  0  0
 11 70  1  0  0  0  0
 12 13  2  0  0  0  0
 12 14  1  0  0  0  0
 15 14  1  6  0  0  0
 15 16  1  0  0  0  0
 16 17  1  0  0  0  0
 16 71  1  0  0  0  0
 16 72  1  0  0  0  0
 17 18  1  0  0  0  0
 17 19  1  0  0  0  0
 17 73  1  1  0  0  0
 18 74  1  0  0  0  0
 18 75  1  0  0  0  0
 18 76  1  0  0  0  0
 19 20  1  6  0  0  0
 20 21  2  0  0  0  0
 20 77  1  0  0  0  0
 21 22  1  0  0  0  0
 21 23  1  0  0  0  0
 22 78  1  0  0  0  0
 22 79  1  0  0  0  0
 22 80  1  0  0  0  0
 23 24  1  0  0  0  0
 23 33  1  0  0  0  0
 23 81  1  6  0  0  0
 24 25  1  0  0  0  0
 25 26  2  0  0  0  0
 25 27  1  0  0  0  0
 27 28  2  0  0  0  0
 28 29  1  0  0  0  0
 28 82  1  0  0  0  0
 29 30  2  0  0  0  0
 29 83  1  0  0  0  0
 30 31  1  0  0  0  0
 30 84  1  0  0  0  0
 31 32  2  0  0  0  0
 31 85  1  0  0  0  0
 32 27  1  0  0  0  0
 32 86  1  0  0  0  0
 33 34  1  1  0  0  0
 33 35  1  0  0  0  0
 33 19  1  0  0  0  0
 34 87  1  0  0  0  0
 35 36  1  0  0  0  0
 35 37  1  0  0  0  0
 35 88  1  1  0  0  0
 36 89  1  0  0  0  0
 37 38  1  0  0  0  0
 37 40  2  0  0  0  0
 38 39  1  0  0  0  0
 38 90  1  0  0  0  0
 38 91  1  0  0  0  0
 39 92  1  0  0  0  0
 40 93  1  0  0  0  0
 41 40  1  0  0  0  0
 41 42  1  0  0  0  0
 41 44  1  0  0  0  0
 41 94  1  1  0  0  0
 42 43  2  0  0  0  0
 42 19  1  0  0  0  0
 44 45  1  0  0  0  0
 44 15  1  0  0  0  0
 44 95  1  6  0  0  0
 45 46  1  0  0  0  0
 45 47  1  0  0  0  0
 45 15  1  0  0  0  0
 46 96  1  0  0  0  0
 46 97  1  0  0  0  0
 46 98  1  0  0  0  0
 47 99  1  0  0  0  0
 47100  1  0  0  0  0
 47101  1  0  0  0  0
M  END
>  <IDENTIFIER>
CNP0237448.1

>  <Energy>
2463.68

$$$$
