
 OpenBabel09112522372D

183182  0  0  0  0  0  0  0  0999 V2000
   25.9808   15.0000    0.0000 C   0  0  0  0  0  0  0  0  0  0  0  0
   24.6817   14.2500    0.0000 C   0  0  0  0  0  0  0  0  0  0  0  0
   23.6083   13.1123    0.7158 C   0  0  0  0  0  0  0  0  0  0  0  0
   22.0836   12.7500    0.0000 C   0  0  0  0  0  0  0  0  0  0  0  0
   20.7846   12.0000    0.0000 C   0  0  0  0  0  2  0  0  0  0  0  0
   19.4856   11.2500    0.0000 C   0  0  0  0  0  0  0  0  0  0  0  0
   18.1865   10.5000    0.0000 C   0  0  0  0  0  0  0  0  0  0  0  0
   16.8875    9.7500    0.0000 C   0  0  0  0  0  2  0  0  0  0  0  0
   15.5885    9.0000    0.0000 C   0  0  0  0  0  0  0  0  0  0  0  0
   13.9554    8.6341   -0.1563 C   0  0  0  0  0  0  0  0  0  0  0  0
   13.3291    7.0851    0.1652 C   0  0  0  0  0  0  0  0  0  0  0  0
   11.6913    6.7500    0.0000 C   0  0  0  0  0  0  0  0  0  0  0  0
   10.3923    6.0000    0.0000 C   0  0  0  0  0  0  0  0  0  0  0  0
    9.0933    5.2500    0.0000 C   0  0  0  0  0  0  0  0  0  0  0  0
    7.7942    4.5000    0.0000 C   0  0  0  0  0  0  0  0  0  0  0  0
    6.4952    3.7500    0.0000 C   0  0  0  0  0  0  0  0  0  0  0  0
    5.1962    3.0000    0.0000 C   0  0  0  0  0  0  0  0  0  0  0  0
    3.5582    2.9410   -0.3522 C   0  0  0  0  0  0  0  0  0  0  0  0
    2.6955    1.5169   -0.0447 C   0  0  0  0  0  0  0  0  0  0  0  0
    1.0626    1.2439   -0.3697 C   0  0  0  0  0  0  0  0  0  0  0  0
    0.3090   -0.1862   -0.0219 C   0  0  0  0  0  0  0  0  0  0  0  0
    1.0188   -1.0290    0.5060 O   0  0  0  0  0  0  0  0  0  0  0  0
   -1.0760   -0.5522   -0.2741 O   0  0  0  0  0  0  0  0  0  0  0  0
   -1.7274   -1.8351    0.0638 C   0  0  0  0  0  0  0  0  0  0  0  0
   -3.3181   -2.2732   -0.3229 C   0  0  2  0  0  0  0  0  0  0  0  0
   -3.6850   -3.8790    0.0607 C   0  0  0  0  0  0  0  0  0  0  0  0
   -4.9705   -4.5750   -0.1702 O   0  0  0  0  0  0  0  0  0  0  0  0
   -5.1962   -6.0000    0.0000 C   0  0  0  0  0  0  0  0  0  0  0  0
   -4.1809   -6.6754    0.1690 O   0  0  0  0  0  0  0  0  0  0  0  0
   -6.4952   -6.7500    0.0000 C   0  0  0  0  0  0  0  0  0  0  0  0
   -7.7942   -7.5000    0.0000 C   0  0  0  0  0  0  0  0  0  0  0  0
   -9.0933   -8.2500    0.0000 C   0  0  0  0  0  0  0  0  0  0  0  0
  -10.3923   -9.0000    0.0000 C   0  0  0  0  0  0  0  0  0  0  0  0
  -11.6913   -9.7500    0.0000 C   0  0  0  0  0  0  0  0  0  0  0  0
  -13.3381  -10.0689   -0.0897 C   0  0  0  0  0  0  0  0  0  0  0  0
  -13.9475  -11.6473    0.0912 C   0  0  0  0  0  0  0  0  0  0  0  0
  -15.5885  -12.0000    0.0000 C   0  0  0  0  0  0  0  0  0  0  0  0
  -16.8875  -12.7500    0.0000 C   0  0  0  0  0  2  0  0  0  0  0  0
  -18.1865  -13.5000    0.0000 C   0  0  0  0  0  0  0  0  0  0  0  0
  -19.4856  -14.2500    0.0000 C   0  0  0  0  0  0  0  0  0  0  0  0
  -20.7846  -15.0000    0.0000 C   0  0  0  0  0  2  0  0  0  0  0  0
  -22.0836  -15.7500    0.0000 C   0  0  0  0  0  0  0  0  0  0  0  0
  -23.5945  -16.3344   -0.4503 C   0  0  0  0  0  0  0  0  0  0  0  0
  -24.4656  -17.4598    0.4849 C   0  0  0  0  0  0  0  0  0  0  0  0
  -25.9808  -18.0000    0.0000 C   0  0  0  0  0  0  0  0  0  0  0  0
  -27.2798  -18.7500    0.0000 C   0  0  0  0  0  0  0  0  0  0  0  0
  -28.5788  -19.5000    0.0000 C   0  0  0  0  0  0  0  0  0  0  0  0
  -30.2710  -19.3661   -0.1082 C   0  0  0  0  0  0  0  0  0  0  0  0
  -31.5810  -20.4133   -0.6201 C   0  0  0  0  0  0  0  0  0  0  0  0
  -32.4760  -21.7500    0.0000 C   0  0  3  0  0  0  0  0  0  0  0  0
  -33.7750  -22.5000    0.0000 C   0  0  0  0  0  0  0  0  0  0  0  0
  -31.7260  -23.0490    0.0000 C   0  0  0  0  0  0  0  0  0  0  0  0
  -30.9760  -24.3481    0.0000 C   0  0  0  0  0  0  0  0  0  0  0  0
   -4.2453   -1.3955    0.2846 O   0  0  0  0  0  0  0  0  0  0  0  0
   -5.0443   -0.4437   -0.3348 C   0  0  0  0  0  0  0  0  0  0  0  0
   -4.9045   -0.2086   -1.5262 O   0  0  0  0  0  0  0  0  0  0  0  0
   -6.0778    0.3692    0.4798 C   0  0  0  0  0  0  0  0  0  0  0  0
   -6.8090    1.5759   -0.2461 C   0  0  0  0  0  0  0  0  0  0  0  0
   -7.7315    2.4062    0.7294 C   0  0  0  0  0  0  0  0  0  0  0  0
   -8.0473    3.9171    0.3685 C   0  0  0  0  0  0  0  0  0  0  0  0
   -9.4908    4.5155    0.0113 C   0  0  0  0  0  0  0  0  0  0  0  0
   -9.3481    6.0933    0.0000 C   0  0  0  0  0  0  0  0  0  0  0  0
  -10.0981    7.3923    0.0000 C   0  0  0  0  0  0  0  0  0  0  0  0
  -10.8481    8.6913    0.0000 C   0  0  0  0  0  0  0  0  0  0  0  0
  -11.2854   10.2669   -0.3931 C   0  0  0  0  0  0  0  0  0  0  0  0
  -12.7485   10.9508    0.1564 C   0  0  0  0  0  0  0  0  0  0  0  0
  -13.0981   12.5885    0.0000 C   0  0  0  0  0  0  0  0  0  0  0  0
  -13.8481   13.8875    0.0000 C   0  0  0  0  0  0  0  0  0  0  0  0
  -14.5981   15.1865    0.0000 C   0  0  0  0  0  0  0  0  0  0  0  0
   26.6286   14.0987   -0.0769 H   0  0  0  0  0  0  0  0  0  0  0  0
   25.8675   15.5242   -0.9808 H   0  0  0  0  0  0  0  0  0  0  0  0
   26.9075   15.5350    0.0000 H   0  0  0  0  0  0  0  0  0  0  0  0
   23.9714   15.1065   -0.0490 H   0  0  0  0  0  0  0  0  0  0  0  0
   24.6874   13.7860   -1.0180 H   0  0  0  0  0  0  0  0  0  0  0  0
   23.4076   13.4608    1.7504 H   0  0  0  0  0  0  0  0  0  0  0  0
   24.1615   12.1526    0.7918 H   0  0  0  0  0  0  0  0  0  0  0  0
   22.4223   12.4938   -1.0252 H   0  0  0  0  0  0  0  0  0  0  0  0
   21.6786   13.7796   -0.0852 H   0  0  0  0  0  0  0  0  0  0  0  0
   19.8548   10.6941    0.8958 H   0  0  0  0  0  0  0  0  0  0  0  0
   19.8546   10.6945   -0.8961 H   0  0  0  0  0  0  0  0  0  0  0  0
   17.8173   11.0558   -0.8958 H   0  0  0  0  0  0  0  0  0  0  0  0
   17.8175   11.0554    0.8961 H   0  0  0  0  0  0  0  0  0  0  0  0
   15.6885    8.6310    1.0421 H   0  0  0  0  0  0  0  0  0  0  0  0
   15.9518    8.1755   -0.6484 H   0  0  0  0  0  0  0  0  0  0  0  0
   13.6742    8.8790   -1.2021 H   0  0  0  0  0  0  0  0  0  0  0  0
   13.4082    9.3399    0.5034 H   0  0  0  0  0  0  0  0  0  0  0  0
   13.8716    6.3746   -0.4934 H   0  0  0  0  0  0  0  0  0  0  0  0
   13.6040    6.8388    1.2123 H   0  0  0  0  0  0  0  0  0  0  0  0
   11.3653    7.6239    0.6186 H   0  0  0  0  0  0  0  0  0  0  0  0
   11.6188    7.1513   -1.0425 H   0  0  0  0  0  0  0  0  0  0  0  0
   11.0083    5.2290   -0.5684 H   0  0  0  0  0  0  0  0  0  0  0  0
   10.4837    5.8466    1.1100 H   0  0  0  0  0  0  0  0  0  0  0  0
    9.0769    5.3200   -1.1311 H   0  0  0  0  0  0  0  0  0  0  0  0
    9.5627    4.2414    0.2597 H   0  0  0  0  0  0  0  0  0  0  0  0
    7.3213    5.5018   -0.2791 H   0  0  0  0  0  0  0  0  0  0  0  0
    7.8046    4.4442    1.1305 H   0  0  0  0  0  0  0  0  0  0  0  0
    5.8677    4.5331    0.5357 H   0  0  0  0  0  0  0  0  0  0  0  0
    6.4298    3.8489   -1.1158 H   0  0  0  0  0  0  0  0  0  0  0  0
    5.1598    2.6416    1.0590 H   0  0  0  0  0  0  0  0  0  0  0  0
    5.5004    2.0753   -0.5490 H   0  0  0  0  0  0  0  0  0  0  0  0
    3.4495    3.1620   -1.4345 H   0  0  0  0  0  0  0  0  0  0  0  0
    3.0630    3.7603    0.2095 H   0  0  0  0  0  0  0  0  0  0  0  0
    3.2400    0.7160   -0.5872 H   0  0  0  0  0  0  0  0  0  0  0  0
    2.8241    1.3186    1.0397 H   0  0  0  0  0  0  0  0  0  0  0  0
    0.4970    2.0357    0.1638 H   0  0  0  0  0  0  0  0  0  0  0  0
    0.9300    1.4136   -1.4580 H   0  0  0  0  0  0  0  0  0  0  0  0
   -1.1017   -2.6255   -0.4035 H   0  0  0  0  0  0  0  0  0  0  0  0
   -1.6324   -1.9697    1.1616 H   0  0  0  0  0  0  0  0  0  0  0  0
   -3.4021   -2.1904   -1.4276 H   0  0  0  0  0  0  0  0  0  0  0  0
   -2.9090   -4.4653   -0.4756 H   0  0  0  0  0  0  0  0  0  0  0  0
   -3.4615   -3.9886    1.1429 H   0  0  0  0  0  0  0  0  0  0  0  0
   -6.2068   -6.9880    1.0756 H   0  0  0  0  0  0  0  0  0  0  0  0
   -6.1172   -7.4067   -0.8255 H   0  0  0  0  0  0  0  0  0  0  0  0
   -7.3438   -8.4396    0.4669 H   0  0  0  0  0  0  0  0  0  0  0  0
   -8.1679   -6.8411    0.8462 H   0  0  0  0  0  0  0  0  0  0  0  0
   -9.5281   -7.3046   -0.4754 H   0  0  0  0  0  0  0  0  0  0  0  0
   -8.7344   -8.9103   -0.8466 H   0  0  0  0  0  0  0  0  0  0  0  0
  -10.7345   -8.6861   -1.0419 H   0  0  0  0  0  0  0  0  0  0  0  0
  -10.8074   -8.3075    0.7797 H   0  0  0  0  0  0  0  0  0  0  0  0
  -11.4118  -10.5592   -0.7260 H   0  0  0  0  0  0  0  0  0  0  0  0
  -11.5537  -10.2542    0.9875 H   0  0  0  0  0  0  0  0  0  0  0  0
  -13.8324   -9.4401    0.6805 H   0  0  0  0  0  0  0  0  0  0  0  0
  -13.6814   -9.7058   -1.0811 H   0  0  0  0  0  0  0  0  0  0  0  0
  -13.5994  -12.0099    1.0812 H   0  0  0  0  0  0  0  0  0  0  0  0
  -13.4471  -12.2702   -0.6797 H   0  0  0  0  0  0  0  0  0  0  0  0
  -15.7551  -11.5146   -0.9843 H   0  0  0  0  0  0  0  0  0  0  0  0
  -15.9058  -11.2566    0.7608 H   0  0  0  0  0  0  0  0  0  0  0  0
  -17.8173  -14.0559    0.8958 H   0  0  0  0  0  0  0  0  0  0  0  0
  -17.8175  -14.0554   -0.8962 H   0  0  0  0  0  0  0  0  0  0  0  0
  -19.8548  -13.6941   -0.8957 H   0  0  0  0  0  0  0  0  0  0  0  0
  -19.8546  -13.6946    0.8962 H   0  0  0  0  0  0  0  0  0  0  0  0
  -22.3895  -15.4148    1.0130 H   0  0  0  0  0  0  0  0  0  0  0  0
  -21.6169  -16.7474    0.1393 H   0  0  0  0  0  0  0  0  0  0  0  0
  -23.4717  -16.7884   -1.4560 H   0  0  0  0  0  0  0  0  0  0  0  0
  -24.2511  -15.4471   -0.5706 H   0  0  0  0  0  0  0  0  0  0  0  0
  -23.8196  -18.3553    0.6035 H   0  0  0  0  0  0  0  0  0  0  0  0
  -24.5901  -17.0096    1.4926 H   0  0  0  0  0  0  0  0  0  0  0  0
  -26.3432  -16.9402   -0.1188 H   0  0  0  0  0  0  0  0  0  0  0  0
  -25.6127  -18.3562   -0.9926 H   0  0  0  0  0  0  0  0  0  0  0  0
  -27.6794  -18.2120   -0.9072 H   0  0  0  0  0  0  0  0  0  0  0  0
  -27.5875  -18.2455    0.9487 H   0  0  0  0  0  0  0  0  0  0  0  0
  -28.4224  -20.1562   -0.8917 H   0  0  0  0  0  0  0  0  0  0  0  0
  -28.4677  -20.2169    0.8465 H   0  0  0  0  0  0  0  0  0  0  0  0
  -30.5955  -18.9061    0.8486 H   0  0  0  0  0  0  0  0  0  0  0  0
  -30.3520  -18.5597   -0.8685 H   0  0  0  0  0  0  0  0  0  0  0  0
  -31.3539  -20.6747   -1.6749 H   0  0  0  0  0  0  0  0  0  0  0  0
  -32.4010  -19.6655   -0.6763 H   0  0  0  0  0  0  0  0  0  0  0  0
  -32.5479  -21.4049    1.0693 H   0  0  0  0  0  0  0  0  0  0  0  0
  -34.4296  -21.6184    0.1982 H   0  0  0  0  0  0  0  0  0  0  0  0
  -33.8361  -22.6710   -1.1048 H   0  0  0  0  0  0  0  0  0  0  0  0
  -34.7016  -23.0350    0.0000 H   0  0  0  0  0  0  0  0  0  0  0  0
  -30.9250  -22.5448    0.6137 H   0  0  0  0  0  0  0  0  0  0  0  0
  -31.5406  -22.9595   -1.1012 H   0  0  0  0  0  0  0  0  0  0  0  0
  -31.1282  -24.5861    1.0793 H   0  0  0  0  0  0  0  0  0  0  0  0
  -29.9291  -24.0191   -0.2593 H   0  0  0  0  0  0  0  0  0  0  0  0
  -30.4410  -25.2748    0.0000 H   0  0  0  0  0  0  0  0  0  0  0  0
   -6.8369   -0.3317    0.8865 H   0  0  0  0  0  0  0  0  0  0  0  0
   -5.5154    0.8001    1.3357 H   0  0  0  0  0  0  0  0  0  0  0  0
   -6.0006    2.2486   -0.6057 H   0  0  0  0  0  0  0  0  0  0  0  0
   -7.3959    1.2348   -1.1246 H   0  0  0  0  0  0  0  0  0  0  0  0
   -8.6246    1.8560    1.0920 H   0  0  0  0  0  0  0  0  0  0  0  0
   -7.0757    2.4928    1.6264 H   0  0  0  0  0  0  0  0  0  0  0  0
   -7.2760    4.2857   -0.3411 H   0  0  0  0  0  0  0  0  0  0  0  0
   -7.8124    4.4307    1.3281 H   0  0  0  0  0  0  0  0  0  0  0  0
  -10.2019    4.2223    0.8125 H   0  0  0  0  0  0  0  0  0  0  0  0
   -9.8607    4.1388   -0.9651 H   0  0  0  0  0  0  0  0  0  0  0  0
   -8.5693    6.2538   -0.7857 H   0  0  0  0  0  0  0  0  0  0  0  0
   -8.7948    6.2712    0.9533 H   0  0  0  0  0  0  0  0  0  0  0  0
  -10.4387    7.1810   -1.0455 H   0  0  0  0  0  0  0  0  0  0  0  0
  -10.7814    6.9087    0.7567 H   0  0  0  0  0  0  0  0  0  0  0  0
  -11.9019    8.3281   -0.1627 H   0  0  0  0  0  0  0  0  0  0  0  0
  -10.7430    8.9292    1.0876 H   0  0  0  0  0  0  0  0  0  0  0  0
  -10.4535   10.9181   -0.0489 H   0  0  0  0  0  0  0  0  0  0  0  0
  -11.3160   10.3417   -1.5004 H   0  0  0  0  0  0  0  0  0  0  0  0
  -12.8375   10.7236    1.2400 H   0  0  0  0  0  0  0  0  0  0  0  0
  -13.5553   10.3880   -0.3581 H   0  0  0  0  0  0  0  0  0  0  0  0
  -12.6693   12.6689   -1.0299 H   0  0  0  0  0  0  0  0  0  0  0  0
  -12.2511   12.9234    0.6478 H   0  0  0  0  0  0  0  0  0  0  0  0
  -14.2073   13.5978    1.0284 H   0  0  0  0  0  0  0  0  0  0  0  0
  -14.5363   13.4874   -0.7906 H   0  0  0  0  0  0  0  0  0  0  0  0
  -14.0412   15.6649    0.8405 H   0  0  0  0  0  0  0  0  0  0  0  0
  -15.6310   14.8472    0.2941 H   0  0  0  0  0  0  0  0  0  0  0  0
  -15.1331   16.1131    0.0000 H   0  0  0  0  0  0  0  0  0  0  0  0
  1  2  1  0  0  0  0
  1 70  1  0  0  0  0
  1 71  1  0  0  0  0
  1 72  1  0  0  0  0
  2  3  1  0  0  0  0
  2 73  1  0  0  0  0
  2 74  1  0  0  0  0
  3  4  1  0  0  0  0
  3 75  1  0  0  0  0
  3 76  1  0  0  0  0
  4  5  1  0  0  0  0
  4 77  1  0  0  0  0
  4 78  1  0  0  0  0
  5  6  1  0  0  0  0
  6  7  1  0  0  0  0
  6 79  1  0  0  0  0
  6 80  1  0  0  0  0
  7  8  1  0  0  0  0
  7 81  1  0  0  0  0
  7 82  1  0  0  0  0
  8  9  1  0  0  0  0
  9 10  1  0  0  0  0
  9 83  1  0  0  0  0
  9 84  1  0  0  0  0
 10 11  1  0  0  0  0
 10 85  1  0  0  0  0
 10 86  1  0  0  0  0
 11 12  1  0  0  0  0
 11 87  1  0  0  0  0
 11 88  1  0  0  0  0
 12 13  1  0  0  0  0
 12 89  1  0  0  0  0
 12 90  1  0  0  0  0
 13 14  1  0  0  0  0
 13 91  1  0  0  0  0
 13 92  1  0  0  0  0
 14 15  1  0  0  0  0
 14 93  1  0  0  0  0
 14 94  1  0  0  0  0
 15 16  1  0  0  0  0
 15 95  1  0  0  0  0
 15 96  1  0  0  0  0
 16 17  1  0  0  0  0
 16 97  1  0  0  0  0
 16 98  1  0  0  0  0
 17 18  1  0  0  0  0
 17 99  1  0  0  0  0
 17100  1  0  0  0  0
 18 19  1  0  0  0  0
 18101  1  0  0  0  0
 18102  1  0  0  0  0
 19 20  1  0  0  0  0
 19103  1  0  0  0  0
 19104  1  0  0  0  0
 20 21  1  0  0  0  0
 20105  1  0  0  0  0
 20106  1  0  0  0  0
 21 22  2  0  0  0  0
 21 23  1  0  0  0  0
 23 24  1  0  0  0  0
 24107  1  0  0  0  0
 24108  1  0  0  0  0
 25 24  1  0  0  0  0
 25 26  1  0  0  0  0
 25 54  1  0  0  0  0
 25109  1  1  0  0  0
 26 27  1  0  0  0  0
 26110  1  0  0  0  0
 26111  1  0  0  0  0
 27 28  1  0  0  0  0
 28 29  2  0  0  0  0
 28 30  1  0  0  0  0
 30 31  1  0  0  0  0
 30112  1  0  0  0  0
 30113  1  0  0  0  0
 31 32  1  0  0  0  0
 31114  1  0  0  0  0
 31115  1  0  0  0  0
 32 33  1  0  0  0  0
 32116  1  0  0  0  0
 32117  1  0  0  0  0
 33 34  1  0  0  0  0
 33118  1  0  0  0  0
 33119  1  0  0  0  0
 34 35  1  0  0  0  0
 34120  1  0  0  0  0
 34121  1  0  0  0  0
 35 36  1  0  0  0  0
 35122  1  0  0  0  0
 35123  1  0  0  0  0
 36 37  1  0  0  0  0
 36124  1  0  0  0  0
 36125  1  0  0  0  0
 37 38  1  0  0  0  0
 37126  1  0  0  0  0
 37127  1  0  0  0  0
 38 39  1  0  0  0  0
 39 40  1  0  0  0  0
 39128  1  0  0  0  0
 39129  1  0  0  0  0
 40 41  1  0  0  0  0
 40130  1  0  0  0  0
 40131  1  0  0  0  0
 41 42  1  0  0  0  0
 42 43  1  0  0  0  0
 42132  1  0  0  0  0
 42133  1  0  0  0  0
 43 44  1  0  0  0  0
 43134  1  0  0  0  0
 43135  1  0  0  0  0
 44 45  1  0  0  0  0
 44136  1  0  0  0  0
 44137  1  0  0  0  0
 45 46  1  0  0  0  0
 45138  1  0  0  0  0
 45139  1  0  0  0  0
 46 47  1  0  0  0  0
 46140  1  0  0  0  0
 46141  1  0  0  0  0
 47 48  1  0  0  0  0
 47142  1  0  0  0  0
 47143  1  0  0  0  0
 48 49  1  0  0  0  0
 48144  1  0  0  0  0
 48145  1  0  0  0  0
 49 50  1  0  0  0  0
 49146  1  0  0  0  0
 49147  1  0  0  0  0
 50 51  1  0  0  0  0
 50 52  1  0  0  0  0
 50148  1  0  0  0  0
 51149  1  0  0  0  0
 51150  1  0  0  0  0
 51151  1  0  0  0  0
 52 53  1  0  0  0  0
 52152  1  0  0  0  0
 52153  1  0  0  0  0
 53154  1  0  0  0  0
 53155  1  0  0  0  0
 53156  1  0  0  0  0
 54 55  1  0  0  0  0
 55 56  2  0  0  0  0
 55 57  1  0  0  0  0
 57 58  1  0  0  0  0
 57157  1  0  0  0  0
 57158  1  0  0  0  0
 58 59  1  0  0  0  0
 58159  1  0  0  0  0
 58160  1  0  0  0  0
 59 60  1  0  0  0  0
 59161  1  0  0  0  0
 59162  1  0  0  0  0
 60 61  1  0  0  0  0
 60163  1  0  0  0  0
 60164  1  0  0  0  0
 61 62  1  0  0  0  0
 61165  1  0  0  0  0
 61166  1  0  0  0  0
 62 63  1  0  0  0  0
 62167  1  0  0  0  0
 62168  1  0  0  0  0
 63 64  1  0  0  0  0
 63169  1  0  0  0  0
 63170  1  0  0  0  0
 64 65  1  0  0  0  0
 64171  1  0  0  0  0
 64172  1  0  0  0  0
 65 66  1  0  0  0  0
 65173  1  0  0  0  0
 65174  1  0  0  0  0
 66 67  1  0  0  0  0
 66175  1  0  0  0  0
 66176  1  0  0  0  0
 67 68  1  0  0  0  0
 67177  1  0  0  0  0
 67178  1  0  0  0  0
 68 69  1  0  0  0  0
 68179  1  0  0  0  0
 68180  1  0  0  0  0
 69181  1  0  0  0  0
 69182  1  0  0  0  0
 69183  1  0  0  0  0
M  END
>  <IDENTIFIER>
CNP0586616.1

>  <Energy>
14034.6

$$$$
