
 OpenBabel09062520153D

 83 87  0  0  0  0  0  0  0  0999 V2000
    4.2600   -2.0013   -2.4990 C   0  0  0  0  0  0  0  0  0  0  0  0
    4.6049   -0.5314   -2.1709 C   0  0  1  0  0  0  0  0  0  0  0  0
    3.8558    0.4241   -3.0764 C   0  0  0  0  0  0  0  0  0  0  0  0
    3.0099    0.0159   -3.8577 O   0  0  0  0  0  0  0  0  0  0  0  0
    4.1444    1.7437   -3.0607 O   0  0  0  0  0  0  0  0  0  0  0  0
    4.4884   -0.2005   -0.6342 C   0  0  2  0  0  0  0  0  0  0  0  0
    5.6477   -0.9089    0.1428 C   0  0  0  0  0  0  0  0  0  0  0  0
    4.9941   -1.6590    1.3050 C   0  0  0  0  0  0  0  0  0  0  0  0
    3.7465   -0.8305    1.6082 C   0  0  2  0  0  0  0  0  0  0  0  0
    4.1624    0.4830    2.3499 C   0  0  0  0  0  0  0  0  0  0  0  0
    2.7108   -1.6084    2.4595 C   0  0  0  0  0  0  0  0  0  0  0  0
    1.3517   -0.8676    2.4975 C   0  0  0  0  0  0  0  0  0  0  0  0
    0.7553   -0.5629    1.0684 C   0  0  2  0  0  0  0  0  0  0  0  0
    0.4395   -1.9721    0.4164 C   0  0  0  0  0  0  0  0  0  0  0  0
    1.8655    0.2122    0.2191 C   0  0  2  0  0  0  0  0  0  0  0  0
    1.3303    0.5899   -1.1654 C   0  0  0  0  0  0  0  0  0  0  0  0
    0.0350    1.4093   -1.1140 C   0  0  0  0  0  0  0  0  0  0  0  0
   -1.0866    0.6471   -0.3620 C   0  0  2  0  0  0  0  0  0  0  0  0
   -2.5618    1.2409   -0.5561 C   0  0  1  0  0  0  0  0  0  0  0  0
   -2.6487    2.7392   -0.1160 C   0  0  0  0  0  0  0  0  0  0  0  0
   -3.0152    1.2629   -2.0744 C   0  0  0  0  0  0  0  0  0  0  0  0
   -3.6844   -0.0308   -2.5145 C   0  0  0  0  0  0  0  0  0  0  0  0
   -5.0445   -0.1982   -1.7666 C   0  0  1  0  0  0  0  0  0  0  0  0
   -5.5535   -1.4847   -2.0292 O   0  0  0  0  0  0  0  0  0  0  0  0
   -5.0069    0.1647   -0.2084 C   0  0  0  0  0  0  0  0  0  0  0  0
   -5.7696    1.4847    0.0520 C   0  0  0  0  0  0  0  0  0  0  0  0
   -5.7747   -0.9249    0.5970 C   0  0  0  0  0  0  0  0  0  0  0  0
   -3.4996    0.2254    0.2382 C   0  0  2  0  0  0  0  0  0  0  0  0
   -3.1529    0.2382    1.7496 C   0  0  0  0  0  0  0  0  0  0  0  0
   -1.7453   -0.3826    1.9260 C   0  0  0  0  0  0  0  0  0  0  0  0
   -0.5999    0.3477    1.1437 C   0  0  1  0  0  0  0  0  0  0  0  0
   -0.3063    1.6556    1.9642 C   0  0  0  0  0  0  0  0  0  0  0  0
    3.2047   -0.6146    0.1704 C   0  0  1  0  0  0  0  0  0  0  0  0
    4.4805   -2.2113   -3.5676 H   0  0  0  0  0  0  0  0  0  0  0  0
    3.1825   -2.2103   -2.3348 H   0  0  0  0  0  0  0  0  0  0  0  0
    4.8605   -2.7052   -1.8878 H   0  0  0  0  0  0  0  0  0  0  0  0
    5.6721   -0.3807   -2.4486 H   0  0  0  0  0  0  0  0  0  0  0  0
    4.8277    2.1119   -2.4843 H   0  0  0  0  0  0  0  0  0  0  0  0
    4.6516    0.8884   -0.4811 H   0  0  0  0  0  0  0  0  0  0  0  0
    6.3210   -0.1184    0.5429 H   0  0  0  0  0  0  0  0  0  0  0  0
    6.2947   -1.5921   -0.4471 H   0  0  0  0  0  0  0  0  0  0  0  0
    5.6709   -1.8616    2.1620 H   0  0  0  0  0  0  0  0  0  0  0  0
    4.6618   -2.6463    0.9057 H   0  0  0  0  0  0  0  0  0  0  0  0
    4.6156    0.2255    3.3309 H   0  0  0  0  0  0  0  0  0  0  0  0
    3.3175    1.1656    2.5482 H   0  0  0  0  0  0  0  0  0  0  0  0
    4.9081    1.0821    1.7949 H   0  0  0  0  0  0  0  0  0  0  0  0
    3.0948   -1.7584    3.4923 H   0  0  0  0  0  0  0  0  0  0  0  0
    2.5633   -2.6242    2.0445 H   0  0  0  0  0  0  0  0  0  0  0  0
    1.5402    0.0572    3.0596 H   0  0  0  0  0  0  0  0  0  0  0  0
    0.6348   -1.4638    3.0997 H   0  0  0  0  0  0  0  0  0  0  0  0
    1.2987   -2.6515    0.3367 H   0  0  0  0  0  0  0  0  0  0  0  0
    0.0542   -1.9310   -0.6136 H   0  0  0  0  0  0  0  0  0  0  0  0
   -0.2589   -2.5707    1.0261 H   0  0  0  0  0  0  0  0  0  0  0  0
    2.1030    1.1742    0.7077 H   0  0  0  0  0  0  0  0  0  0  0  0
    1.1695   -0.3223   -1.7771 H   0  0  0  0  0  0  0  0  0  0  0  0
    2.0654    1.2424   -1.6552 H   0  0  0  0  0  0  0  0  0  0  0  0
   -0.2226    1.6107   -2.1669 H   0  0  0  0  0  0  0  0  0  0  0  0
    0.2246    2.3948   -0.6454 H   0  0  0  0  0  0  0  0  0  0  0  0
   -1.1811   -0.3174   -0.8816 H   0  0  0  0  0  0  0  0  0  0  0  0
   -1.8859    3.3451   -0.6462 H   0  0  0  0  0  0  0  0  0  0  0  0
   -2.5800    2.9347    0.9494 H   0  0  0  0  0  0  0  0  0  0  0  0
   -3.6047    3.2168   -0.3697 H   0  0  0  0  0  0  0  0  0  0  0  0
   -2.2013    1.5443   -2.7603 H   0  0  0  0  0  0  0  0  0  0  0  0
   -3.7965    2.0341   -2.2535 H   0  0  0  0  0  0  0  0  0  0  0  0
   -2.9857   -0.8713   -2.3154 H   0  0  0  0  0  0  0  0  0  0  0  0
   -3.8839   -0.0238   -3.6082 H   0  0  0  0  0  0  0  0  0  0  0  0
   -5.7584    0.5061   -2.2484 H   0  0  0  0  0  0  0  0  0  0  0  0
   -4.8630   -2.1443   -1.7575 H   0  0  0  0  0  0  0  0  0  0  0  0
   -6.8471    1.3566   -0.1897 H   0  0  0  0  0  0  0  0  0  0  0  0
   -5.4343    2.3027   -0.5989 H   0  0  0  0  0  0  0  0  0  0  0  0
   -5.6870    1.7858    1.1181 H   0  0  0  0  0  0  0  0  0  0  0  0
   -6.8123   -1.0374    0.2139 H   0  0  0  0  0  0  0  0  0  0  0  0
   -5.8661   -0.6637    1.6707 H   0  0  0  0  0  0  0  0  0  0  0  0
   -5.2693   -1.9114    0.5243 H   0  0  0  0  0  0  0  0  0  0  0  0
   -3.2073   -0.8035   -0.0742 H   0  0  0  0  0  0  0  0  0  0  0  0
   -3.8241   -0.4302    2.3204 H   0  0  0  0  0  0  0  0  0  0  0  0
   -3.2588    1.2447    2.1959 H   0  0  0  0  0  0  0  0  0  0  0  0
   -1.8698   -1.4142    1.5621 H   0  0  0  0  0  0  0  0  0  0  0  0
   -1.4989   -0.4642    3.0066 H   0  0  0  0  0  0  0  0  0  0  0  0
    0.0046    1.4320    2.9988 H   0  0  0  0  0  0  0  0  0  0  0  0
   -1.1778    2.2699    2.1678 H   0  0  0  0  0  0  0  0  0  0  0  0
    0.4642    2.3104    1.5234 H   0  0  0  0  0  0  0  0  0  0  0  0
    2.9688   -1.6064   -0.2379 H   0  0  0  0  0  0  0  0  0  0  0  0
  1 34  1  0  0  0  0
  1 35  1  0  0  0  0
  1 36  1  0  0  0  0
  2  1  1  0  0  0  0
  2  3  1  0  0  0  0
  2  6  1  0  0  0  0
  2 37  1  6  0  0  0
  3  4  2  0  0  0  0
  3  5  1  0  0  0  0
  5 38  1  0  0  0  0
  6  7  1  0  0  0  0
  6 39  1  1  0  0  0
  7  8  1  0  0  0  0
  7 40  1  0  0  0  0
  7 41  1  0  0  0  0
  8  9  1  0  0  0  0
  8 42  1  0  0  0  0
  8 43  1  0  0  0  0
  9 10  1  1  0  0  0
  9 11  1  0  0  0  0
 10 44  1  0  0  0  0
 10 45  1  0  0  0  0
 10 46  1  0  0  0  0
 11 12  1  0  0  0  0
 11 47  1  0  0  0  0
 11 48  1  0  0  0  0
 12 13  1  0  0  0  0
 12 49  1  0  0  0  0
 12 50  1  0  0  0  0
 13 14  1  6  0  0  0
 13 15  1  0  0  0  0
 14 51  1  0  0  0  0
 14 52  1  0  0  0  0
 14 53  1  0  0  0  0
 15 16  1  0  0  0  0
 15 33  1  0  0  0  0
 15 54  1  1  0  0  0
 16 17  1  0  0  0  0
 16 55  1  0  0  0  0
 16 56  1  0  0  0  0
 17 57  1  0  0  0  0
 17 58  1  0  0  0  0
 18 17  1  0  0  0  0
 18 19  1  0  0  0  0
 18 59  1  6  0  0  0
 19 20  1  1  0  0  0
 19 21  1  0  0  0  0
 20 60  1  0  0  0  0
 20 61  1  0  0  0  0
 20 62  1  0  0  0  0
 21 22  1  0  0  0  0
 21 63  1  0  0  0  0
 21 64  1  0  0  0  0
 22 23  1  0  0  0  0
 22 65  1  0  0  0  0
 22 66  1  0  0  0  0
 23 24  1  0  0  0  0
 23 25  1  0  0  0  0
 23 67  1  6  0  0  0
 24 68  1  0  0  0  0
 25 26  1  0  0  0  0
 25 27  1  0  0  0  0
 25 28  1  0  0  0  0
 26 69  1  0  0  0  0
 26 70  1  0  0  0  0
 26 71  1  0  0  0  0
 27 72  1  0  0  0  0
 27 73  1  0  0  0  0
 27 74  1  0  0  0  0
 28 29  1  0  0  0  0
 28 19  1  0  0  0  0
 28 75  1  6  0  0  0
 29 30  1  0  0  0  0
 29 76  1  0  0  0  0
 29 77  1  0  0  0  0
 30 31  1  0  0  0  0
 30 78  1  0  0  0  0
 30 79  1  0  0  0  0
 31 32  1  1  0  0  0
 31 13  1  0  0  0  0
 31 18  1  0  0  0  0
 32 80  1  0  0  0  0
 32 81  1  0  0  0  0
 32 82  1  0  0  0  0
 33  6  1  0  0  0  0
 33  9  1  0  0  0  0
 33 83  1  6  0  0  0
M  END
>  <IDENTIFIER>
CNP0171743.2

>  <Energy>
1068.77

$$$$
