
 OpenBabel09132511123D

 60 64  0  0  0  0  0  0  0  0999 V2000
   -2.4278    0.0948    3.2286 C   0  0  0  0  0  0  0  0  0  0  0  0
   -3.5478   -0.1454    2.4631 O   0  0  0  0  0  0  0  0  0  0  0  0
   -3.8124    0.1378    1.1570 C   0  0  0  0  0  0  0  0  0  0  0  0
   -5.1530    0.3801    0.8440 C   0  0  0  0  0  0  0  0  0  0  0  0
   -6.2001    0.4012    1.6757 O   0  0  0  0  0  0  0  0  0  0  0  0
   -7.3329    0.7088    0.9265 C   0  0  0  0  0  0  0  0  0  0  0  0
   -6.9034    0.8485   -0.3892 O   0  0  0  0  0  0  0  0  0  0  0  0
   -5.5828    0.6509   -0.4031 C   0  0  0  0  0  0  0  0  0  0  0  0
   -4.7248    0.6929   -1.4863 C   0  0  0  0  0  0  0  0  0  0  0  0
   -3.3569    0.4711   -1.2448 C   0  0  0  0  0  0  0  0  0  0  0  0
   -2.8666    0.2005    0.0675 C   0  0  0  0  0  0  0  0  0  0  0  0
   -1.3533   -0.0378    0.1755 C   0  0  2  0  0  0  0  0  0  0  0  0
   -0.6607    1.3217    0.1593 C   0  0  0  0  0  0  0  0  0  0  0  0
   -1.0618    2.3457    0.9390 N   0  0  0  0  0  0  0  0  0  0  0  0
   -0.2801    3.3698    0.6340 N   0  0  0  0  0  0  0  0  0  0  0  0
    0.5857    3.0069   -0.2987 N   0  0  0  0  0  0  0  0  0  0  0  0
    0.3825    1.7364   -0.6026 N   0  0  0  0  0  0  0  0  0  0  0  0
    1.1935    1.0429   -1.5644 C   0  0  0  0  0  0  0  0  0  0  0  0
    0.9899    1.3319   -2.9225 C   0  0  0  0  0  0  0  0  0  0  0  0
    1.7610    0.7237   -3.9075 C   0  0  0  0  0  0  0  0  0  0  0  0
    2.7644   -0.1675   -3.5490 C   0  0  0  0  0  0  0  0  0  0  0  0
    3.0143   -0.4419   -2.2046 C   0  0  0  0  0  0  0  0  0  0  0  0
    2.2460    0.1567   -1.1773 C   0  0  0  0  0  0  0  0  0  0  0  0
    2.5781   -0.1007    0.2706 C   0  0  0  0  0  0  0  0  0  0  0  0
    1.7704    0.2037    1.1355 O   0  0  0  0  0  0  0  0  0  0  0  0
    3.7904   -0.6056    0.6509 N   0  0  0  0  0  0  0  0  0  0  0  0
    4.1267   -0.8172    2.0509 C   0  0  0  0  0  0  0  0  0  0  0  0
    5.6006   -1.2421    2.2344 C   0  0  1  0  0  0  0  0  0  0  0  0
    6.5840   -0.1427    1.7974 C   0  0  0  0  0  0  0  0  0  0  0  0
    5.8404   -1.5880    3.5758 O   0  0  0  0  0  0  0  0  0  0  0  0
   -0.8352   -0.9015   -0.9283 N   0  0  0  0  0  0  0  0  0  0  0  0
   -0.5672   -2.2825   -0.5040 C   0  0  0  0  0  0  0  0  0  0  0  0
   -1.5892   -0.8691   -2.2142 C   0  0  0  0  0  0  0  0  0  0  0  0
   -2.3857    0.4303   -2.3792 C   0  0  0  0  0  0  0  0  0  0  0  0
   -1.9364   -0.8676    3.4813 H   0  0  0  0  0  0  0  0  0  0  0  0
   -2.7466    0.5826    4.1723 H   0  0  0  0  0  0  0  0  0  0  0  0
   -1.7225    0.7914    2.7523 H   0  0  0  0  0  0  0  0  0  0  0  0
   -7.7810    1.6609    1.2842 H   0  0  0  0  0  0  0  0  0  0  0  0
   -8.0753   -0.1130    1.0002 H   0  0  0  0  0  0  0  0  0  0  0  0
   -5.1042    0.8904   -2.4811 H   0  0  0  0  0  0  0  0  0  0  0  0
   -1.1044   -0.4865    1.1513 H   0  0  0  0  0  0  0  0  0  0  0  0
    0.2237    2.0344   -3.2213 H   0  0  0  0  0  0  0  0  0  0  0  0
    1.5814    0.9474   -4.9507 H   0  0  0  0  0  0  0  0  0  0  0  0
    3.3639   -0.6390   -4.3176 H   0  0  0  0  0  0  0  0  0  0  0  0
    3.8145   -1.1337   -1.9960 H   0  0  0  0  0  0  0  0  0  0  0  0
    4.5105   -0.8085   -0.0522 H   0  0  0  0  0  0  0  0  0  0  0  0
    3.4601   -1.6079    2.4591 H   0  0  0  0  0  0  0  0  0  0  0  0
    3.9586    0.1205    2.6257 H   0  0  0  0  0  0  0  0  0  0  0  0
    5.7869   -2.1481    1.6177 H   0  0  0  0  0  0  0  0  0  0  0  0
    6.4312    0.7771    2.4023 H   0  0  0  0  0  0  0  0  0  0  0  0
    6.4549    0.1158    0.7265 H   0  0  0  0  0  0  0  0  0  0  0  0
    7.6281   -0.4916    1.9438 H   0  0  0  0  0  0  0  0  0  0  0  0
    5.6767   -0.7805    4.1306 H   0  0  0  0  0  0  0  0  0  0  0  0
    0.1491   -2.2887    0.3452 H   0  0  0  0  0  0  0  0  0  0  0  0
   -0.0957   -2.8524   -1.3340 H   0  0  0  0  0  0  0  0  0  0  0  0
   -1.5079   -2.7884   -0.1960 H   0  0  0  0  0  0  0  0  0  0  0  0
   -2.3119   -1.7172   -2.2704 H   0  0  0  0  0  0  0  0  0  0  0  0
   -0.8725   -0.9824   -3.0548 H   0  0  0  0  0  0  0  0  0  0  0  0
   -2.9022    0.4626   -3.3631 H   0  0  0  0  0  0  0  0  0  0  0  0
   -1.7119    1.3019   -2.3202 H   0  0  0  0  0  0  0  0  0  0  0  0
  1  2  1  0  0  0  0
  1 35  1  0  0  0  0
  1 36  1  0  0  0  0
  1 37  1  0  0  0  0
  2  3  1  0  0  0  0
  3  4  2  0  0  0  0
  4  5  1  0  0  0  0
  5  6  1  0  0  0  0
  6  7  1  0  0  0  0
  6 38  1  0  0  0  0
  6 39  1  0  0  0  0
  7  8  1  0  0  0  0
  8  9  2  0  0  0  0
  8  4  1  0  0  0  0
  9 10  1  0  0  0  0
  9 40  1  0  0  0  0
 10 11  2  0  0  0  0
 11 12  1  0  0  0  0
 11  3  1  0  0  0  0
 12 13  1  0  0  0  0
 12 31  1  0  0  0  0
 12 41  1  1  0  0  0
 13 14  2  0  0  0  0
 14 15  1  0  0  0  0
 15 16  2  0  0  0  0
 16 17  1  0  0  0  0
 17 18  1  0  0  0  0
 17 13  1  0  0  0  0
 18 19  2  0  0  0  0
 19 20  1  0  0  0  0
 19 42  1  0  0  0  0
 20 21  2  0  0  0  0
 20 43  1  0  0  0  0
 21 22  1  0  0  0  0
 21 44  1  0  0  0  0
 22 23  2  0  0  0  0
 22 45  1  0  0  0  0
 23 24  1  0  0  0  0
 23 18  1  0  0  0  0
 24 25  2  0  0  0  0
 24 26  1  0  0  0  0
 26 27  1  0  0  0  0
 26 46  1  0  0  0  0
 27 28  1  0  0  0  0
 27 47  1  0  0  0  0
 27 48  1  0  0  0  0
 28 29  1  0  0  0  0
 28 30  1  0  0  0  0
 28 49  1  6  0  0  0
 29 50  1  0  0  0  0
 29 51  1  0  0  0  0
 29 52  1  0  0  0  0
 30 53  1  0  0  0  0
 31 32  1  0  0  0  0
 31 33  1  0  0  0  0
 32 54  1  0  0  0  0
 32 55  1  0  0  0  0
 32 56  1  0  0  0  0
 33 34  1  0  0  0  0
 33 57  1  0  0  0  0
 33 58  1  0  0  0  0
 34 10  1  0  0  0  0
 34 59  1  0  0  0  0
 34 60  1  0  0  0  0
M  END
>  <IDENTIFIER>
CNP0578927.2

>  <Energy>
906.678

$$$$
