
 OpenBabel09062523253D

 47 49  0  0  0  0  0  0  0  0999 V2000
    5.7555    0.0560    1.6938 C   0  0  0  0  0  0  0  0  0  0  0  0
    5.1102   -0.7734    0.6168 C   0  0  0  0  0  0  0  0  0  0  0  0
    5.7769   -1.6448    0.0780 O   0  0  0  0  0  0  0  0  0  0  0  0
    3.7041   -0.5388    0.1796 C   0  0  0  0  0  0  0  0  0  0  0  0
    3.1522   -1.2935   -0.8677 C   0  0  0  0  0  0  0  0  0  0  0  0
    1.8461   -1.0701   -1.3102 C   0  0  0  0  0  0  0  0  0  0  0  0
    1.0457   -0.0619   -0.7296 C   0  0  0  0  0  0  0  0  0  0  0  0
    1.5979    0.6807    0.3545 C   0  0  0  0  0  0  0  0  0  0  0  0
    2.9040    0.4389    0.7952 C   0  0  0  0  0  0  0  0  0  0  0  0
    0.7710    1.7449    1.0382 C   0  0  0  0  0  0  0  0  0  0  0  0
   -0.7185    1.3577    1.2050 C   0  0  0  0  0  0  0  0  0  0  0  0
   -1.1811    0.2132    0.2475 C   0  0  1  0  0  0  0  0  0  0  0  0
   -2.7220   -0.1033    0.2198 C   0  0  2  0  0  0  0  0  0  0  0  0
   -3.5335    1.0574   -0.4074 C   0  0  0  0  0  0  0  0  0  0  0  0
   -3.2699   -0.2963    1.6663 C   0  0  0  0  0  0  0  0  0  0  0  0
   -2.5564   -1.2850    2.3666 O   0  0  0  0  0  0  0  0  0  0  0  0
   -2.9752   -1.4287   -0.6051 C   0  0  0  0  0  0  0  0  0  0  0  0
   -1.7384   -1.9779   -1.3617 C   0  0  0  0  0  0  0  0  0  0  0  0
   -1.0739   -0.8301   -2.1149 C   0  0  0  0  0  0  0  0  0  0  0  0
   -0.4245    0.2285   -1.1449 C   0  0  2  0  0  0  0  0  0  0  0  0
   -0.4497    1.5633   -1.9458 C   0  0  0  0  0  0  0  0  0  0  0  0
    6.8081   -0.2600    1.8576 H   0  0  0  0  0  0  0  0  0  0  0  0
    5.2001   -0.0608    2.6473 H   0  0  0  0  0  0  0  0  0  0  0  0
    5.7560    1.1253    1.3928 H   0  0  0  0  0  0  0  0  0  0  0  0
    3.7377   -2.0642   -1.3551 H   0  0  0  0  0  0  0  0  0  0  0  0
    1.4960   -1.6961   -2.1120 H   0  0  0  0  0  0  0  0  0  0  0  0
    3.2964    1.0302    1.6117 H   0  0  0  0  0  0  0  0  0  0  0  0
    0.8349    2.6301    0.3861 H   0  0  0  0  0  0  0  0  0  0  0  0
    1.2057    2.1269    1.9883 H   0  0  0  0  0  0  0  0  0  0  0  0
   -1.3130    2.2855    1.0806 H   0  0  0  0  0  0  0  0  0  0  0  0
   -0.8799    0.9981    2.2440 H   0  0  0  0  0  0  0  0  0  0  0  0
   -0.7755   -0.7000    0.7456 H   0  0  0  0  0  0  0  0  0  0  0  0
   -3.3690    2.0113    0.1348 H   0  0  0  0  0  0  0  0  0  0  0  0
   -4.6216    0.8341   -0.3631 H   0  0  0  0  0  0  0  0  0  0  0  0
   -3.2977    1.2012   -1.4733 H   0  0  0  0  0  0  0  0  0  0  0  0
   -4.3580   -0.5431    1.6469 H   0  0  0  0  0  0  0  0  0  0  0  0
   -3.1940    0.6492    2.2438 H   0  0  0  0  0  0  0  0  0  0  0  0
   -3.0343   -2.1448    2.2407 H   0  0  0  0  0  0  0  0  0  0  0  0
   -3.7776   -1.2363   -1.3534 H   0  0  0  0  0  0  0  0  0  0  0  0
   -3.3773   -2.2550    0.0159 H   0  0  0  0  0  0  0  0  0  0  0  0
   -2.0881   -2.7626   -2.0672 H   0  0  0  0  0  0  0  0  0  0  0  0
   -1.0040   -2.4478   -0.6731 H   0  0  0  0  0  0  0  0  0  0  0  0
   -1.9065   -0.3724   -2.6952 H   0  0  0  0  0  0  0  0  0  0  0  0
   -0.3707   -1.1675   -2.8977 H   0  0  0  0  0  0  0  0  0  0  0  0
   -1.4600    1.8463   -2.2823 H   0  0  0  0  0  0  0  0  0  0  0  0
    0.1694    1.4475   -2.8621 H   0  0  0  0  0  0  0  0  0  0  0  0
   -0.0623    2.4418   -1.4235 H   0  0  0  0  0  0  0  0  0  0  0  0
  1  2  1  0  0  0  0
  1 22  1  0  0  0  0
  1 23  1  0  0  0  0
  1 24  1  0  0  0  0
  2  3  2  0  0  0  0
  2  4  1  0  0  0  0
  4  5  2  0  0  0  0
  5  6  1  0  0  0  0
  5 25  1  0  0  0  0
  6  7  2  0  0  0  0
  6 26  1  0  0  0  0
  7  8  1  0  0  0  0
  8  9  2  0  0  0  0
  8 10  1  0  0  0  0
  9  4  1  0  0  0  0
  9 27  1  0  0  0  0
 10 11  1  0  0  0  0
 10 28  1  0  0  0  0
 10 29  1  0  0  0  0
 11 30  1  0  0  0  0
 11 31  1  0  0  0  0
 12 11  1  0  0  0  0
 12 13  1  0  0  0  0
 12 32  1  1  0  0  0
 13 14  1  6  0  0  0
 13 15  1  0  0  0  0
 13 17  1  0  0  0  0
 14 33  1  0  0  0  0
 14 34  1  0  0  0  0
 14 35  1  0  0  0  0
 15 16  1  0  0  0  0
 15 36  1  0  0  0  0
 15 37  1  0  0  0  0
 16 38  1  0  0  0  0
 17 18  1  0  0  0  0
 17 39  1  0  0  0  0
 17 40  1  0  0  0  0
 18 19  1  0  0  0  0
 18 41  1  0  0  0  0
 18 42  1  0  0  0  0
 19 20  1  0  0  0  0
 19 43  1  0  0  0  0
 19 44  1  0  0  0  0
 20 21  1  6  0  0  0
 20 12  1  0  0  0  0
 20  7  1  0  0  0  0
 21 45  1  0  0  0  0
 21 46  1  0  0  0  0
 21 47  1  0  0  0  0
M  END
>  <IDENTIFIER>
CNP0547328.1

>  <Energy>
575.274

$$$$
