
 OpenBabel09052505442D

104109  0  0  0  0  0  0  0  0999 V2000
    7.1443   -2.6836    0.0000 C   0  0  0  0  0  0  0  0  0  0  0  0
    5.6443   -2.6836    0.0000 C   0  0  0  0  0  0  0  0  0  0  0  0
    5.0454   -3.7389   -0.1188 O   0  0  0  0  0  0  0  0  0  0  0  0
    4.8943   -1.3846    0.0000 O   0  0  0  0  0  0  0  0  0  0  0  0
    3.3943   -1.3846    0.0000 C   0  0  0  0  0  2  0  0  0  0  0  0
    1.8943   -1.3846    0.0000 C   0  0  1  0  0  0  0  0  0  0  0  0
    2.9537    0.0311   -1.1265 C   0  0  2  0  0  0  0  0  0  0  0  0
    4.3902    0.3168   -1.2101 O   0  0  0  0  0  0  0  0  0  0  0  0
    5.2029    0.3656    0.0000 C   0  0  0  0  0  0  0  0  0  0  0  0
    6.3520    1.3298    0.0000 C   0  0  0  0  0  0  0  0  0  0  0  0
    4.6437    0.4989    1.1242 O   0  0  0  0  0  0  0  0  0  0  0  0
    2.2463    1.2899   -2.1438 C   0  0  1  0  0  0  0  0  0  0  0  0
    2.7100    2.8063   -1.9186 O   0  0  0  0  0  0  0  0  0  0  0  0
    2.7829    3.6549    0.0000 C   0  0  0  0  0  0  0  0  0  0  0  0
    2.5224    5.1321    0.0000 C   0  0  0  0  0  0  0  0  0  0  0  0
    2.3601    3.4769    1.8011 O   0  0  0  0  0  0  0  0  0  0  0  0
    0.6144    0.9701   -1.8040 C   0  0  2  0  0  0  0  0  0  0  0  0
    0.4647    0.5601   -0.2158 C   0  0  2  0  0  0  0  0  0  0  0  0
    1.5695    1.2470    0.5950 O   0  0  0  0  0  0  0  0  0  0  0  0
    2.0788    2.4709    0.0000 C   0  0  0  0  0  0  0  0  0  0  0  0
    3.1935    3.4746    0.0000 C   0  0  0  0  0  0  0  0  0  0  0  0
    0.8519    2.9476   -0.4770 O   0  0  0  0  0  0  0  0  0  0  0  0
    0.3763   -1.0711   -0.4336 C   0  0  2  0  0  0  0  0  0  0  0  0
    0.0266   -1.2757   -1.8234 O   0  0  0  0  0  0  0  0  0  0  0  0
   -0.4271   -0.0600   -2.3828 C   0  0  1  0  0  0  0  0  0  0  0  0
   -0.3342   -0.1406   -3.9710 C   0  0  0  0  0  0  0  0  0  0  0  0
   -2.0143    0.1850   -2.1375 C   0  0  0  0  0  0  0  0  0  0  0  0
   -2.6679   -0.1970   -0.9397 O   0  0  0  0  0  0  0  0  0  0  0  0
   -3.7448   -1.0968   -0.8638 C   0  0  0  0  0  0  0  0  0  0  0  0
   -4.0167   -1.7871   -1.8345 O   0  0  0  0  0  0  0  0  0  0  0  0
   -4.4812   -1.3758    0.4583 C   0  0  0  0  0  0  0  0  0  0  0  0
   -4.4774   -0.3347    1.3989 C   0  0  0  0  0  0  0  0  0  0  0  0
   -5.1276   -0.4696    2.6234 C   0  0  0  0  0  0  0  0  0  0  0  0
   -5.7885   -1.6547    2.9296 C   0  0  0  0  0  0  0  0  0  0  0  0
   -5.7823   -2.6881    2.0521 N   0  0  0  0  0  0  0  0  0  0  0  0
   -5.1547   -2.6250    0.8473 C   0  0  0  0  0  0  0  0  0  0  0  0
   -5.1594   -3.9103    0.0000 C   0  0  1  0  0  0  0  0  0  0  0  0
   -5.5703   -5.3530    0.0000 C   0  0  0  0  0  0  0  0  0  0  0  0
   -3.9666   -4.8199   -0.0000 C   0  0  2  0  0  0  0  0  0  0  0  0
   -3.7109   -6.2980    0.0000 C   0  0  0  0  0  0  0  0  0  0  0  0
   -3.2332   -4.4846    1.7761 C   0  0  0  0  0  0  0  0  0  0  0  0
   -3.9159   -4.9049    2.6978 O   0  0  0  0  0  0  0  0  0  0  0  0
   -1.9902   -3.6547    2.2096 O   0  0  0  0  0  0  0  0  0  0  0  0
   -0.6416   -3.0499    1.5834 C   0  0  1  0  0  0  0  0  0  0  0  0
    0.2928   -2.0601    2.3525 C   0  0  1  0  0  0  0  0  0  0  0  0
    0.4894   -2.5845    3.6402 O   0  0  0  0  0  0  0  0  0  0  0  0
    1.7189   -1.9305    1.5659 C   0  0  2  0  0  0  0  0  0  0  0  0
    2.7614   -1.6722    2.4480 O   0  0  0  0  0  0  0  0  0  0  0  0
    3.4823   -2.5862    3.1946 C   0  0  0  0  0  0  0  0  0  0  0  0
    4.0900   -2.1222    4.1470 O   0  0  0  0  0  0  0  0  0  0  0  0
    3.5470   -4.1132    3.0166 C   0  0  0  0  0  0  0  0  0  0  0  0
    3.9413   -4.8810    4.1403 C   0  0  0  0  0  0  0  0  0  0  0  0
    4.0262   -6.2787    4.0853 C   0  0  0  0  0  0  0  0  0  0  0  0
    3.7349   -6.9527    2.9082 C   0  0  0  0  0  0  0  0  0  0  0  0
    3.3641   -6.2382    1.7770 C   0  0  0  0  0  0  0  0  0  0  0  0
    3.2738   -4.8448    1.8219 C   0  0  0  0  0  0  0  0  0  0  0  0
   -0.4884   -2.4203    0.0000 C   0  0  2  0  0  0  0  0  0  0  0  0
   -1.7393   -3.2481    0.0000 C   0  0  0  0  0  0  0  0  0  0  0  0
    0.3711   -3.4013   -0.6033 O   0  0  0  0  0  0  0  0  0  0  0  0
    7.2596   -3.2333   -0.9593 H   0  0  0  0  0  0  0  0  0  0  0  0
    7.2534   -3.3450    0.8865 H   0  0  0  0  0  0  0  0  0  0  0  0
    8.2143   -2.6836    0.0000 H   0  0  0  0  0  0  0  0  0  0  0  0
    3.0865    0.7053   -0.4792 H   0  0  0  0  0  0  0  0  0  0  0  0
    6.1946    1.7852   -0.9978 H   0  0  0  0  0  0  0  0  0  0  0  0
    6.1764    1.9922    0.8757 H   0  0  0  0  0  0  0  0  0  0  0  0
    7.1717    2.0176    0.0000 H   0  0  0  0  0  0  0  0  0  0  0  0
    2.6016    1.1550   -3.2312 H   0  0  0  0  0  0  0  0  0  0  0  0
    1.4912    5.1541    0.4499 H   0  0  0  0  0  0  0  0  0  0  0  0
    2.3864    5.3278   -1.1131 H   0  0  0  0  0  0  0  0  0  0  0  0
    2.3366    6.1858    0.0000 H   0  0  0  0  0  0  0  0  0  0  0  0
    1.1871    0.2927   -2.3584 H   0  0  0  0  0  0  0  0  0  0  0  0
   -0.5264    0.9186    0.1344 H   0  0  0  0  0  0  0  0  0  0  0  0
    4.2520    2.7837    0.8864 H   0  0  0  0  0  0  0  0  0  0  0  0
    4.3947    2.7873   -0.6245 H   0  0  0  0  0  0  0  0  0  0  0  0
    3.9887    4.1906    0.0000 H   0  0  0  0  0  0  0  0  0  0  0  0
    0.7078   -0.3699   -4.3165 H   0  0  0  0  0  0  0  0  0  0  0  0
   -0.9685   -0.9181   -4.3766 H   0  0  0  0  0  0  0  0  0  0  0  0
   -0.6300    0.8378   -4.4124 H   0  0  0  0  0  0  0  0  0  0  0  0
   -2.2193    1.2593   -2.3300 H   0  0  0  0  0  0  0  0  0  0  0  0
   -2.5518   -0.3403   -2.9543 H   0  0  0  0  0  0  0  0  0  0  0  0
   -3.9806    0.6022    1.1783 H   0  0  0  0  0  0  0  0  0  0  0  0
   -5.1256    0.3484    3.3321 H   0  0  0  0  0  0  0  0  0  0  0  0
   -6.2996   -1.7597    3.8771 H   0  0  0  0  0  0  0  0  0  0  0  0
   -5.4230   -3.5667   -1.0304 H   0  0  0  0  0  0  0  0  0  0  0  0
   -6.5390   -5.2258   -0.5462 H   0  0  0  0  0  0  0  0  0  0  0  0
   -5.9710   -5.3717    1.0642 H   0  0  0  0  0  0  0  0  0  0  0  0
   -5.8634   -6.3821    0.0000 H   0  0  0  0  0  0  0  0  0  0  0  0
   -3.6797   -4.7038   -1.1619 H   0  0  0  0  0  0  0  0  0  0  0  0
   -3.9924   -6.6983   -1.0256 H   0  0  0  0  0  0  0  0  0  0  0  0
   -3.9816   -6.6909    1.0217 H   0  0  0  0  0  0  0  0  0  0  0  0
   -3.5285   -7.3523   -0.0000 H   0  0  0  0  0  0  0  0  0  0  0  0
   -0.0227   -3.9874    1.5940 H   0  0  0  0  0  0  0  0  0  0  0  0
   -0.1965   -1.0615    2.4292 H   0  0  0  0  0  0  0  0  0  0  0  0
    0.7649   -1.8267    4.2191 H   0  0  0  0  0  0  0  0  0  0  0  0
    1.8110   -2.9675    1.3692 H   0  0  0  0  0  0  0  0  0  0  0  0
    4.1751   -4.4031    5.0818 H   0  0  0  0  0  0  0  0  0  0  0  0
    4.3206   -6.8407    4.9618 H   0  0  0  0  0  0  0  0  0  0  0  0
    3.7997   -8.0358    2.8601 H   0  0  0  0  0  0  0  0  0  0  0  0
    3.1512   -6.7626    0.8524 H   0  0  0  0  0  0  0  0  0  0  0  0
    3.0184   -4.4082    0.8789 H   0  0  0  0  0  0  0  0  0  0  0  0
   -2.3716   -2.4298    0.3308 H   0  0  0  0  0  0  0  0  0  0  0  0
   -1.8951   -3.2490   -1.1023 H   0  0  0  0  0  0  0  0  0  0  0  0
   -2.6316   -3.8386    0.0000 H   0  0  0  0  0  0  0  0  0  0  0  0
    0.1554   -3.5548   -1.5631 H   0  0  0  0  0  0  0  0  0  0  0  0
  1  2  1  0  0  0  0
  1 60  1  0  0  0  0
  1 61  1  0  0  0  0
  1 62  1  0  0  0  0
  2  3  2  0  0  0  0
  2  4  1  0  0  0  0
  4  5  1  0  0  0  0
  6  5  1  6  0  0  0
  6  7  1  0  0  0  0
  7  8  1  0  0  0  0
  7 12  1  0  0  0  0
  7 63  1  6  0  0  0
  8  9  1  0  0  0  0
  9 10  1  0  0  0  0
  9 11  2  0  0  0  0
 10 64  1  0  0  0  0
 10 65  1  0  0  0  0
 10 66  1  0  0  0  0
 12 13  1  0  0  0  0
 12 17  1  0  0  0  0
 12 67  1  1  0  0  0
 13 14  1  0  0  0  0
 14 15  1  0  0  0  0
 14 16  2  0  0  0  0
 15 68  1  0  0  0  0
 15 69  1  0  0  0  0
 15 70  1  0  0  0  0
 17 18  1  0  0  0  0
 17 25  1  0  0  0  0
 17 71  1  6  0  0  0
 18 19  1  0  0  0  0
 18 23  1  0  0  0  0
 18 72  1  1  0  0  0
 19 20  1  0  0  0  0
 20 21  1  0  0  0  0
 20 22  2  0  0  0  0
 21 73  1  0  0  0  0
 21 74  1  0  0  0  0
 21 75  1  0  0  0  0
 23 24  1  1  0  0  0
 23  6  1  0  0  0  0
 24 25  1  0  0  0  0
 25 26  1  1  0  0  0
 25 27  1  0  0  0  0
 26 76  1  0  0  0  0
 26 77  1  0  0  0  0
 26 78  1  0  0  0  0
 27 28  1  0  0  0  0
 27 79  1  0  0  0  0
 27 80  1  0  0  0  0
 28 29  1  0  0  0  0
 29 30  2  0  0  0  0
 29 31  1  0  0  0  0
 31 32  2  0  0  0  0
 32 33  1  0  0  0  0
 32 81  1  0  0  0  0
 33 34  2  0  0  0  0
 33 82  1  0  0  0  0
 34 35  1  0  0  0  0
 34 83  1  0  0  0  0
 35 36  2  0  0  0  0
 36 37  1  0  0  0  0
 36 31  1  0  0  0  0
 37 38  1  0  0  0  0
 37 39  1  0  0  0  0
 37 84  1  1  0  0  0
 38 85  1  0  0  0  0
 38 86  1  0  0  0  0
 38 87  1  0  0  0  0
 39 40  1  0  0  0  0
 39 41  1  0  0  0  0
 39 88  1  6  0  0  0
 40 89  1  0  0  0  0
 40 90  1  0  0  0  0
 40 91  1  0  0  0  0
 41 42  2  0  0  0  0
 41 43  1  0  0  0  0
 44 43  1  0  0  0  0
 44 45  1  0  0  0  0
 44 57  1  0  0  0  0
 44 92  1  1  0  0  0
 45 46  1  0  0  0  0
 45 47  1  0  0  0  0
 45 93  1  1  0  0  0
 46 94  1  0  0  0  0
 47 48  1  0  0  0  0
 47  6  1  0  0  0  0
 47 95  1  6  0  0  0
 48 49  1  0  0  0  0
 49 50  2  0  0  0  0
 49 51  1  0  0  0  0
 51 52  2  0  0  0  0
 52 53  1  0  0  0  0
 52 96  1  0  0  0  0
 53 54  2  0  0  0  0
 53 97  1  0  0  0  0
 54 55  1  0  0  0  0
 54 98  1  0  0  0  0
 55 56  2  0  0  0  0
 55 99  1  0  0  0  0
 56 51  1  0  0  0  0
 56100  1  0  0  0  0
 57 58  1  0  0  0  0
 57 59  1  1  0  0  0
 57 23  1  0  0  0  0
 58101  1  0  0  0  0
 58102  1  0  0  0  0
 58103  1  0  0  0  0
 59104  1  0  0  0  0
M  END
>  <IDENTIFIER>
CNP0191157.3

>  <Energy>
7.07089e+10

$$$$
