
 OpenBabel09062516323D

 73 79  0  0  0  0  0  0  0  0999 V2000
   -5.2173   -4.0125   -0.3751 C   0  0  0  0  0  0  0  0  0  0  0  0
   -4.1785   -3.2669    0.4081 C   0  0  0  0  0  0  0  0  0  0  0  0
   -3.7365   -2.0475    0.0495 C   0  0  0  0  0  0  0  0  0  0  0  0
   -4.2466   -1.2726   -1.1554 C   0  0  0  0  0  0  0  0  0  0  0  0
   -3.4529   -0.0221   -1.2869 N   0  0  2  0  0  0  0  0  0  0  0  0
   -2.0082   -0.4325   -1.4482 C   0  0  1  0  0  0  0  0  0  0  0  0
   -1.1141    0.7773   -1.7757 C   0  0  0  0  0  0  0  0  0  0  0  0
   -1.1160    1.4394   -0.4149 C   0  0  1  0  0  0  0  0  0  0  0  0
   -0.3336    2.6807   -0.1125 C   0  0  0  0  0  0  0  0  0  0  0  0
    0.9912    2.9937   -0.4186 C   0  0  0  0  0  0  0  0  0  0  0  0
    1.5185    4.2008    0.0619 C   0  0  0  0  0  0  0  0  0  0  0  0
    0.7283    5.0576    0.8532 C   0  0  0  0  0  0  0  0  0  0  0  0
   -0.5985    4.7171    1.1705 C   0  0  0  0  0  0  0  0  0  0  0  0
   -1.1140    3.5137    0.6723 C   0  0  0  0  0  0  0  0  0  0  0  0
   -2.4189    2.9812    0.8362 N   0  0  0  0  0  0  0  0  0  0  0  0
   -3.5162    3.5928    1.5560 C   0  0  0  0  0  0  0  0  0  0  0  0
   -2.5573    1.9694   -0.1863 C   0  0  2  0  0  0  0  0  0  0  0  0
   -3.6182    0.8543   -0.0711 C   0  0  2  0  0  0  0  0  0  0  0  0
   -3.4598    0.0184    1.2269 C   0  0  0  0  0  0  0  0  0  0  0  0
   -2.7071   -1.2806    0.8582 C   0  0  2  0  0  0  0  0  0  0  0  0
   -1.4680   -0.9664   -0.0622 C   0  0  1  0  0  0  0  0  0  0  0  0
   -0.6655   -2.2553   -0.2767 C   0  0  0  0  0  0  0  0  0  0  0  0
    0.4991   -2.3562    0.0821 O   0  0  0  0  0  0  0  0  0  0  0  0
   -1.2750   -3.3062   -0.8855 O   0  0  0  0  0  0  0  0  0  0  0  0
   -0.6506   -4.4983   -1.1820 C   0  0  0  0  0  0  0  0  0  0  0  0
   -0.6708    0.2695    0.5112 C   0  0  1  0  0  0  0  0  0  0  0  0
    0.7095    0.1106    0.4031 O   0  0  0  0  0  0  0  0  0  0  0  0
    1.5813    0.2217    1.4505 C   0  0  0  0  0  0  0  0  0  0  0  0
    1.1712    0.5063    2.5686 O   0  0  0  0  0  0  0  0  0  0  0  0
    3.0350    0.0054    1.2533 C   0  0  0  0  0  0  0  0  0  0  0  0
    3.9141    0.1275    2.3413 C   0  0  0  0  0  0  0  0  0  0  0  0
    5.2816   -0.0766    2.1779 C   0  0  0  0  0  0  0  0  0  0  0  0
    5.8077   -0.4104    0.9162 C   0  0  0  0  0  0  0  0  0  0  0  0
    7.1373   -0.6207    0.7233 O   0  0  0  0  0  0  0  0  0  0  0  0
    8.1144   -0.5470    1.6960 C   0  0  0  0  0  0  0  0  0  0  0  0
    4.9405   -0.5355   -0.1827 C   0  0  0  0  0  0  0  0  0  0  0  0
    5.4784   -0.8602   -1.3893 O   0  0  0  0  0  0  0  0  0  0  0  0
    4.7821   -1.0279   -2.5674 C   0  0  0  0  0  0  0  0  0  0  0  0
    3.5540   -0.3257   -0.0087 C   0  0  0  0  0  0  0  0  0  0  0  0
   -5.4195   -4.9908    0.1090 H   0  0  0  0  0  0  0  0  0  0  0  0
   -4.8569   -4.1948   -1.4092 H   0  0  0  0  0  0  0  0  0  0  0  0
   -6.1610   -3.4285   -0.4075 H   0  0  0  0  0  0  0  0  0  0  0  0
   -3.7727   -3.7406    1.2975 H   0  0  0  0  0  0  0  0  0  0  0  0
   -5.3263   -1.0385   -1.0340 H   0  0  0  0  0  0  0  0  0  0  0  0
   -4.1296   -1.8830   -2.0777 H   0  0  0  0  0  0  0  0  0  0  0  0
   -1.9421   -1.1719   -2.2793 H   0  0  0  0  0  0  0  0  0  0  0  0
   -1.5031    1.3985   -2.6118 H   0  0  0  0  0  0  0  0  0  0  0  0
   -0.0856    0.4397   -2.0370 H   0  0  0  0  0  0  0  0  0  0  0  0
    1.5992    2.3217   -1.0111 H   0  0  0  0  0  0  0  0  0  0  0  0
    2.5408    4.4701   -0.1698 H   0  0  0  0  0  0  0  0  0  0  0  0
    1.1478    5.9848    1.2211 H   0  0  0  0  0  0  0  0  0  0  0  0
   -1.1916    5.3858    1.7764 H   0  0  0  0  0  0  0  0  0  0  0  0
   -3.1726    4.4418    2.1778 H   0  0  0  0  0  0  0  0  0  0  0  0
   -3.9792    2.8451    2.2321 H   0  0  0  0  0  0  0  0  0  0  0  0
   -4.2807    3.9558    0.8383 H   0  0  0  0  0  0  0  0  0  0  0  0
   -2.8510    2.5468   -1.0986 H   0  0  0  0  0  0  0  0  0  0  0  0
   -4.6149    1.3478   -0.0524 H   0  0  0  0  0  0  0  0  0  0  0  0
   -4.4570   -0.2698    1.6326 H   0  0  0  0  0  0  0  0  0  0  0  0
   -3.0011    0.6195    2.0375 H   0  0  0  0  0  0  0  0  0  0  0  0
   -2.4124   -1.8162    1.7883 H   0  0  0  0  0  0  0  0  0  0  0  0
   -1.3782   -5.1762   -1.6737 H   0  0  0  0  0  0  0  0  0  0  0  0
   -0.2820   -4.9801   -0.2516 H   0  0  0  0  0  0  0  0  0  0  0  0
    0.1982   -4.3209   -1.8768 H   0  0  0  0  0  0  0  0  0  0  0  0
   -0.9166    0.4787    1.5702 H   0  0  0  0  0  0  0  0  0  0  0  0
    3.5451    0.3816    3.3276 H   0  0  0  0  0  0  0  0  0  0  0  0
    5.9218    0.0270    3.0436 H   0  0  0  0  0  0  0  0  0  0  0  0
    9.0999   -0.7700    1.2391 H   0  0  0  0  0  0  0  0  0  0  0  0
    7.9177   -1.2941    2.4948 H   0  0  0  0  0  0  0  0  0  0  0  0
    8.1481    0.4748    2.1304 H   0  0  0  0  0  0  0  0  0  0  0  0
    5.4964   -1.2901   -3.3742 H   0  0  0  0  0  0  0  0  0  0  0  0
    4.2653   -0.0839   -2.8445 H   0  0  0  0  0  0  0  0  0  0  0  0
    4.0456   -1.8521   -2.4638 H   0  0  0  0  0  0  0  0  0  0  0  0
    2.8779   -0.4206   -0.8480 H   0  0  0  0  0  0  0  0  0  0  0  0
  1  2  1  0  0  0  0
  1 40  1  0  0  0  0
  1 41  1  0  0  0  0
  1 42  1  0  0  0  0
  2  3  2  0  0  0  0
  2 43  1  0  0  0  0
  3  4  1  0  0  0  0
  4 44  1  0  0  0  0
  4 45  1  0  0  0  0
  5  4  1  1  0  0  0
  5  6  1  0  0  0  0
  6  7  1  0  0  0  0
  6 46  1  6  0  0  0
  7 47  1  0  0  0  0
  7 48  1  0  0  0  0
  8  7  1  0  0  0  0
  8  9  1  1  0  0  0
  9 10  2  0  0  0  0
 10 11  1  0  0  0  0
 10 49  1  0  0  0  0
 11 12  2  0  0  0  0
 11 50  1  0  0  0  0
 12 13  1  0  0  0  0
 12 51  1  0  0  0  0
 13 14  2  0  0  0  0
 13 52  1  0  0  0  0
 14 15  1  0  0  0  0
 14  9  1  0  0  0  0
 15 16  1  0  0  0  0
 16 53  1  0  0  0  0
 16 54  1  0  0  0  0
 16 55  1  0  0  0  0
 17 15  1  0  0  0  0
 17 18  1  0  0  0  0
 17  8  1  0  0  0  0
 17 56  1  6  0  0  0
 18 19  1  0  0  0  0
 18  5  1  0  0  0  0
 18 57  1  6  0  0  0
 19 58  1  0  0  0  0
 19 59  1  0  0  0  0
 20 19  1  0  0  0  0
 20 21  1  0  0  0  0
 20  3  1  0  0  0  0
 20 60  1  1  0  0  0
 21 22  1  6  0  0  0
 21 26  1  0  0  0  0
 21  6  1  0  0  0  0
 22 23  2  0  0  0  0
 22 24  1  0  0  0  0
 24 25  1  0  0  0  0
 25 61  1  0  0  0  0
 25 62  1  0  0  0  0
 25 63  1  0  0  0  0
 26 27  1  0  0  0  0
 26  8  1  0  0  0  0
 26 64  1  1  0  0  0
 27 28  1  0  0  0  0
 28 29  2  0  0  0  0
 28 30  1  0  0  0  0
 30 31  2  0  0  0  0
 31 32  1  0  0  0  0
 31 65  1  0  0  0  0
 32 33  2  0  0  0  0
 32 66  1  0  0  0  0
 33 34  1  0  0  0  0
 33 36  1  0  0  0  0
 34 35  1  0  0  0  0
 35 67  1  0  0  0  0
 35 68  1  0  0  0  0
 35 69  1  0  0  0  0
 36 37  1  0  0  0  0
 36 39  2  0  0  0  0
 37 38  1  0  0  0  0
 38 70  1  0  0  0  0
 38 71  1  0  0  0  0
 38 72  1  0  0  0  0
 39 30  1  0  0  0  0
 39 73  1  0  0  0  0
M  END
>  <IDENTIFIER>
CNP0227301.2

>  <Energy>
945.416

$$$$
