
 OpenBabel09112503123D

 74 79  0  0  0  0  0  0  0  0999 V2000
    7.1443    1.7874   -0.0344 C   0  0  0  0  0  0  0  0  0  0  0  0
    6.7416    0.3724    0.4171 C   0  0  2  0  0  0  0  0  0  0  0  0
    6.1480   -0.4779   -0.7108 C   0  0  0  0  0  0  0  0  0  0  0  0
    4.8003    0.1005   -1.1293 C   0  0  0  0  0  0  0  0  0  0  0  0
    3.8243    0.3177    0.0666 C   0  0  1  0  0  0  0  0  0  0  0  0
    4.4619    0.9719    1.1765 O   0  0  0  0  0  0  0  0  0  0  0  0
    5.7194    0.4216    1.5605 C   0  0  0  0  0  0  0  0  0  0  0  0
    2.8313    1.1965   -0.4127 O   0  0  0  0  0  0  0  0  0  0  0  0
    1.7471    1.1127    0.4933 C   0  0  1  0  0  0  0  0  0  0  0  0
    0.4080    1.2147   -0.2463 C   0  0  0  0  0  0  0  0  0  0  0  0
   -0.0294   -0.2406   -0.4551 C   0  0  2  0  0  0  0  0  0  0  0  0
   -1.5281   -0.4623   -0.8280 C   0  0  2  0  0  0  0  0  0  0  0  0
   -1.8992    0.3399   -2.0916 C   0  0  0  0  0  0  0  0  0  0  0  0
   -3.3202    0.0044   -2.5325 C   0  0  0  0  0  0  0  0  0  0  0  0
   -4.3758    0.3042   -1.4467 C   0  0  2  0  0  0  0  0  0  0  0  0
   -4.6851    1.7946   -1.2585 C   0  0  0  0  0  0  0  0  0  0  0  0
   -6.0033    1.9389   -0.4393 C   0  0  2  0  0  0  0  0  0  0  0  0
   -6.0393    3.1965    0.1864 O   0  0  0  0  0  0  0  0  0  0  0  0
   -6.2438    0.7753    0.5706 C   0  0  0  0  0  0  0  0  0  0  0  0
   -4.9089    0.2672    1.1049 C   0  0  0  0  0  0  0  0  0  0  0  0
   -4.0227   -0.3571   -0.0458 C   0  0  1  0  0  0  0  0  0  0  0  0
   -4.3462   -1.8732   -0.1675 C   0  0  0  0  0  0  0  0  0  0  0  0
   -2.5030   -0.0963    0.3340 C   0  0  1  0  0  0  0  0  0  0  0  0
   -2.0788   -0.7986    1.6550 C   0  0  0  0  0  0  0  0  0  0  0  0
   -0.6173   -0.4843    2.0128 C   0  0  0  0  0  0  0  0  0  0  0  0
    0.3718   -0.9138    0.8811 C   0  0  1  0  0  0  0  0  0  0  0  0
    0.3774   -2.4624    0.7828 C   0  0  0  0  0  0  0  0  0  0  0  0
    1.7789   -0.2822    1.1593 C   0  0  1  0  0  0  0  0  0  0  0  0
    2.9802   -0.9247    0.4466 C   0  0  2  0  0  0  0  0  0  0  0  0
    3.6109   -2.0731    1.2567 C   0  0  0  0  0  0  0  0  0  0  0  0
    7.8794    1.7236   -0.8650 H   0  0  0  0  0  0  0  0  0  0  0  0
    7.6252    2.3256    0.8100 H   0  0  0  0  0  0  0  0  0  0  0  0
    6.2765    2.3925   -0.3636 H   0  0  0  0  0  0  0  0  0  0  0  0
    7.6704   -0.1225    0.7777 H   0  0  0  0  0  0  0  0  0  0  0  0
    6.0217   -1.5159   -0.3567 H   0  0  0  0  0  0  0  0  0  0  0  0
    6.8408   -0.5181   -1.5789 H   0  0  0  0  0  0  0  0  0  0  0  0
    4.3307   -0.5096   -1.9307 H   0  0  0  0  0  0  0  0  0  0  0  0
    5.0055    1.0898   -1.5879 H   0  0  0  0  0  0  0  0  0  0  0  0
    5.6070   -0.5823    1.9952 H   0  0  0  0  0  0  0  0  0  0  0  0
    6.1344    1.0445    2.3810 H   0  0  0  0  0  0  0  0  0  0  0  0
    1.8379    1.9511    1.2201 H   0  0  0  0  0  0  0  0  0  0  0  0
    0.4445    1.8462   -1.1598 H   0  0  0  0  0  0  0  0  0  0  0  0
   -0.3022    1.7160    0.4360 H   0  0  0  0  0  0  0  0  0  0  0  0
    0.6063   -0.6432   -1.2756 H   0  0  0  0  0  0  0  0  0  0  0  0
   -1.6350   -1.5437   -1.0525 H   0  0  0  0  0  0  0  0  0  0  0  0
   -1.2036    0.0775   -2.9184 H   0  0  0  0  0  0  0  0  0  0  0  0
   -1.8180    1.4317   -1.9027 H   0  0  0  0  0  0  0  0  0  0  0  0
   -3.3496   -1.0780   -2.7800 H   0  0  0  0  0  0  0  0  0  0  0  0
   -3.5730    0.5543   -3.4651 H   0  0  0  0  0  0  0  0  0  0  0  0
   -5.3261   -0.1149   -1.8522 H   0  0  0  0  0  0  0  0  0  0  0  0
   -4.8099    2.3400   -2.2188 H   0  0  0  0  0  0  0  0  0  0  0  0
   -3.8303    2.2563   -0.7221 H   0  0  0  0  0  0  0  0  0  0  0  0
   -6.8771    1.8932   -1.1259 H   0  0  0  0  0  0  0  0  0  0  0  0
   -5.3531    3.1960    0.9027 H   0  0  0  0  0  0  0  0  0  0  0  0
   -6.7294   -0.0843    0.0596 H   0  0  0  0  0  0  0  0  0  0  0  0
   -6.9356    1.1074    1.3744 H   0  0  0  0  0  0  0  0  0  0  0  0
   -5.0435   -0.4595    1.9354 H   0  0  0  0  0  0  0  0  0  0  0  0
   -4.4172    1.1603    1.5478 H   0  0  0  0  0  0  0  0  0  0  0  0
   -4.1909   -2.4057    0.7913 H   0  0  0  0  0  0  0  0  0  0  0  0
   -3.7312   -2.3754   -0.9390 H   0  0  0  0  0  0  0  0  0  0  0  0
   -5.4118   -2.0245   -0.4401 H   0  0  0  0  0  0  0  0  0  0  0  0
   -2.3896    0.9941    0.5053 H   0  0  0  0  0  0  0  0  0  0  0  0
   -2.2059   -1.8925    1.5784 H   0  0  0  0  0  0  0  0  0  0  0  0
   -2.7162   -0.4567    2.4967 H   0  0  0  0  0  0  0  0  0  0  0  0
   -0.3459   -0.9954    2.9628 H   0  0  0  0  0  0  0  0  0  0  0  0
   -0.5491    0.6003    2.2301 H   0  0  0  0  0  0  0  0  0  0  0  0
    0.6802   -2.9080    1.7531 H   0  0  0  0  0  0  0  0  0  0  0  0
    1.0551   -2.8199   -0.0164 H   0  0  0  0  0  0  0  0  0  0  0  0
   -0.6128   -2.8783    0.5218 H   0  0  0  0  0  0  0  0  0  0  0  0
    2.0308   -0.1907    2.2404 H   0  0  0  0  0  0  0  0  0  0  0  0
    2.6443   -1.3306   -0.5318 H   0  0  0  0  0  0  0  0  0  0  0  0
    3.8731   -1.7470    2.2818 H   0  0  0  0  0  0  0  0  0  0  0  0
    4.4897   -2.5007    0.7473 H   0  0  0  0  0  0  0  0  0  0  0  0
    2.9059   -2.9117    1.3836 H   0  0  0  0  0  0  0  0  0  0  0  0
  1 31  1  0  0  0  0
  1 32  1  0  0  0  0
  1 33  1  0  0  0  0
  2  1  1  0  0  0  0
  2  3  1  0  0  0  0
  2 34  1  1  0  0  0
  3  4  1  0  0  0  0
  3 35  1  0  0  0  0
  3 36  1  0  0  0  0
  4 37  1  0  0  0  0
  4 38  1  0  0  0  0
  5  4  1  0  0  0  0
  5  6  1  1  0  0  0
  5  8  1  0  0  0  0
  6  7  1  0  0  0  0
  7  2  1  0  0  0  0
  7 39  1  0  0  0  0
  7 40  1  0  0  0  0
  8  9  1  0  0  0  0
  9 10  1  0  0  0  0
  9 41  1  1  0  0  0
 10 42  1  0  0  0  0
 10 43  1  0  0  0  0
 11 10  1  0  0  0  0
 11 12  1  0  0  0  0
 11 44  1  6  0  0  0
 12 13  1  0  0  0  0
 12 45  1  6  0  0  0
 13 14  1  0  0  0  0
 13 46  1  0  0  0  0
 13 47  1  0  0  0  0
 14 48  1  0  0  0  0
 14 49  1  0  0  0  0
 15 14  1  0  0  0  0
 15 16  1  0  0  0  0
 15 50  1  6  0  0  0
 16 17  1  0  0  0  0
 16 51  1  0  0  0  0
 16 52  1  0  0  0  0
 17 18  1  0  0  0  0
 17 19  1  0  0  0  0
 17 53  1  6  0  0  0
 18 54  1  0  0  0  0
 19 20  1  0  0  0  0
 19 55  1  0  0  0  0
 19 56  1  0  0  0  0
 20 21  1  0  0  0  0
 20 57  1  0  0  0  0
 20 58  1  0  0  0  0
 21 22  1  6  0  0  0
 21 23  1  0  0  0  0
 21 15  1  0  0  0  0
 22 59  1  0  0  0  0
 22 60  1  0  0  0  0
 22 61  1  0  0  0  0
 23 24  1  0  0  0  0
 23 12  1  0  0  0  0
 23 62  1  1  0  0  0
 24 25  1  0  0  0  0
 24 63  1  0  0  0  0
 24 64  1  0  0  0  0
 25 26  1  0  0  0  0
 25 65  1  0  0  0  0
 25 66  1  0  0  0  0
 26 27  1  6  0  0  0
 26 28  1  0  0  0  0
 26 11  1  0  0  0  0
 27 67  1  0  0  0  0
 27 68  1  0  0  0  0
 27 69  1  0  0  0  0
 28 29  1  0  0  0  0
 28  9  1  0  0  0  0
 28 70  1  1  0  0  0
 29 30  1  0  0  0  0
 29  5  1  0  0  0  0
 29 71  1  6  0  0  0
 30 72  1  0  0  0  0
 30 73  1  0  0  0  0
 30 74  1  0  0  0  0
M  END
>  <IDENTIFIER>
CNP0192382.38

>  <Energy>
889.906

$$$$
