
 OpenBabel09082510203D

 65 66  0  0  0  0  0  0  0  0999 V2000
    8.1058    1.5905   -2.2025 C   0  0  0  0  0  0  0  0  0  0  0  0
    6.8391    1.7348   -1.3600 C   0  0  0  0  0  0  0  0  0  0  0  0
    6.9080    0.9721   -0.0243 C   0  0  0  0  0  0  0  0  0  0  0  0
    7.1069   -0.5494   -0.1565 C   0  0  0  0  0  0  0  0  0  0  0  0
    6.1298   -1.3356   -1.0618 C   0  0  0  0  0  0  0  0  0  0  0  0
    4.6667   -1.4627   -0.5943 C   0  0  0  0  0  0  0  0  0  0  0  0
    3.8008   -0.2064   -0.8019 C   0  0  0  0  0  0  0  0  0  0  0  0
    2.3151   -0.4471   -0.4922 C   0  0  0  0  0  0  0  0  0  0  0  0
    2.0589   -0.8129    0.9782 C   0  0  0  0  0  0  0  0  0  0  0  0
    0.5580   -0.9646    1.2464 C   0  0  0  0  0  0  0  0  0  0  0  0
    0.3025   -1.3491    2.7109 C   0  0  0  0  0  0  0  0  0  0  0  0
   -1.1550   -1.7090    3.0685 C   0  0  0  0  0  0  0  0  0  0  0  0
   -2.1893   -0.5665    3.1581 C   0  0  0  0  0  0  0  0  0  0  0  0
   -2.6545    0.0218    1.8243 C   0  0  0  0  0  0  0  0  0  0  0  0
   -3.7143    0.9109    2.0714 O   0  0  0  0  0  0  0  0  0  0  0  0
   -4.2324    1.5747    0.5363 P   0  0  2  0  0  0  0  0  0  0  0  0
   -3.1712    2.6195    0.0982 O   0  0  0  0  0  0  0  0  0  0  0  0
   -5.7444    2.4150    0.7081 O   0  0  0  0  0  0  0  0  0  0  0  0
   -6.6716    1.4385    1.0933 C   0  0  0  0  0  0  0  0  0  0  0  0
   -7.3849    0.8589   -0.1174 C   0  0  1  0  0  0  0  0  0  0  0  0
   -8.4833    1.7183   -0.7406 C   0  0  0  0  0  0  0  0  0  0  0  0
   -8.8098    1.0404   -1.9019 O   0  0  0  0  0  0  0  0  0  0  0  0
   -7.7608    0.3039   -2.3238 C   0  0  0  0  0  0  0  0  0  0  0  0
   -7.7428   -0.2208   -3.4234 O   0  0  0  0  0  0  0  0  0  0  0  0
   -6.6544    0.3842   -1.3505 C   0  0  0  0  0  0  0  0  0  0  0  0
   -5.3183    0.1449   -1.5840 C   0  0  0  0  0  0  0  0  0  0  0  0
   -4.7943   -0.3806   -2.8996 C   0  0  0  0  0  0  0  0  0  0  0  0
   -4.3140    0.3779   -0.6955 O   0  0  0  0  0  0  0  0  0  0  0  0
    8.0034    2.1974   -3.1266 H   0  0  0  0  0  0  0  0  0  0  0  0
    8.2648    0.5349   -2.5043 H   0  0  0  0  0  0  0  0  0  0  0  0
    8.9893    1.9500   -1.6344 H   0  0  0  0  0  0  0  0  0  0  0  0
    5.9658    1.3953   -1.9530 H   0  0  0  0  0  0  0  0  0  0  0  0
    6.6935    2.8132   -1.1337 H   0  0  0  0  0  0  0  0  0  0  0  0
    6.0006    1.1840    0.5660 H   0  0  0  0  0  0  0  0  0  0  0  0
    7.7510    1.3766    0.5769 H   0  0  0  0  0  0  0  0  0  0  0  0
    7.1007   -0.9960    0.8614 H   0  0  0  0  0  0  0  0  0  0  0  0
    8.1254   -0.7147   -0.5696 H   0  0  0  0  0  0  0  0  0  0  0  0
    6.5291   -2.3739   -1.0726 H   0  0  0  0  0  0  0  0  0  0  0  0
    6.1681   -0.9702   -2.1094 H   0  0  0  0  0  0  0  0  0  0  0  0
    4.6560   -1.8034    0.4613 H   0  0  0  0  0  0  0  0  0  0  0  0
    4.2075   -2.2608   -1.2189 H   0  0  0  0  0  0  0  0  0  0  0  0
    3.8725    0.0979   -1.8688 H   0  0  0  0  0  0  0  0  0  0  0  0
    4.1374    0.6342   -0.1786 H   0  0  0  0  0  0  0  0  0  0  0  0
    1.9216   -1.2501   -1.1534 H   0  0  0  0  0  0  0  0  0  0  0  0
    1.7670    0.4924   -0.7269 H   0  0  0  0  0  0  0  0  0  0  0  0
    2.4696   -0.0138    1.6343 H   0  0  0  0  0  0  0  0  0  0  0  0
    2.5595   -1.7731    1.2207 H   0  0  0  0  0  0  0  0  0  0  0  0
    0.1477   -1.7572    0.5829 H   0  0  0  0  0  0  0  0  0  0  0  0
    0.0936    0.0005    1.0025 H   0  0  0  0  0  0  0  0  0  0  0  0
    0.6772   -0.5562    3.3941 H   0  0  0  0  0  0  0  0  0  0  0  0
    0.8955   -2.2711    2.9040 H   0  0  0  0  0  0  0  0  0  0  0  0
   -1.1029   -2.1335    4.0958 H   0  0  0  0  0  0  0  0  0  0  0  0
   -1.5285   -2.5169    2.4021 H   0  0  0  0  0  0  0  0  0  0  0  0
   -1.8160    0.2371    3.8292 H   0  0  0  0  0  0  0  0  0  0  0  0
   -3.0947   -1.0086    3.6307 H   0  0  0  0  0  0  0  0  0  0  0  0
   -3.0008   -0.8197    1.1832 H   0  0  0  0  0  0  0  0  0  0  0  0
   -1.8331    0.5771    1.3499 H   0  0  0  0  0  0  0  0  0  0  0  0
   -7.4134    1.8880    1.7866 H   0  0  0  0  0  0  0  0  0  0  0  0
   -6.2305    0.6063    1.6947 H   0  0  0  0  0  0  0  0  0  0  0  0
   -7.9454   -0.0296    0.2612 H   0  0  0  0  0  0  0  0  0  0  0  0
   -8.0873    2.7217   -1.0167 H   0  0  0  0  0  0  0  0  0  0  0  0
   -9.3562    1.8307   -0.0626 H   0  0  0  0  0  0  0  0  0  0  0  0
   -5.5379   -0.5914   -3.6789 H   0  0  0  0  0  0  0  0  0  0  0  0
   -4.2474   -1.3285   -2.7124 H   0  0  0  0  0  0  0  0  0  0  0  0
   -4.0801    0.3576   -3.3215 H   0  0  0  0  0  0  0  0  0  0  0  0
  1  2  1  0  0  0  0
  1 29  1  0  0  0  0
  1 30  1  0  0  0  0
  1 31  1  0  0  0  0
  2  3  1  0  0  0  0
  2 32  1  0  0  0  0
  2 33  1  0  0  0  0
  3  4  1  0  0  0  0
  3 34  1  0  0  0  0
  3 35  1  0  0  0  0
  4  5  1  0  0  0  0
  4 36  1  0  0  0  0
  4 37  1  0  0  0  0
  5  6  1  0  0  0  0
  5 38  1  0  0  0  0
  5 39  1  0  0  0  0
  6  7  1  0  0  0  0
  6 40  1  0  0  0  0
  6 41  1  0  0  0  0
  7  8  1  0  0  0  0
  7 42  1  0  0  0  0
  7 43  1  0  0  0  0
  8  9  1  0  0  0  0
  8 44  1  0  0  0  0
  8 45  1  0  0  0  0
  9 10  1  0  0  0  0
  9 46  1  0  0  0  0
  9 47  1  0  0  0  0
 10 11  1  0  0  0  0
 10 48  1  0  0  0  0
 10 49  1  0  0  0  0
 11 12  1  0  0  0  0
 11 50  1  0  0  0  0
 11 51  1  0  0  0  0
 12 13  1  0  0  0  0
 12 52  1  0  0  0  0
 12 53  1  0  0  0  0
 13 14  1  0  0  0  0
 13 54  1  0  0  0  0
 13 55  1  0  0  0  0
 14 15  1  0  0  0  0
 14 56  1  0  0  0  0
 14 57  1  0  0  0  0
 16 15  1  0  0  0  0
 16 17  2  6  0  0  0
 16 18  1  0  0  0  0
 18 19  1  0  0  0  0
 19 58  1  0  0  0  0
 19 59  1  0  0  0  0
 20 19  1  0  0  0  0
 20 21  1  0  0  0  0
 20 60  1  1  0  0  0
 21 22  1  0  0  0  0
 21 61  1  0  0  0  0
 21 62  1  0  0  0  0
 22 23  1  0  0  0  0
 23 24  2  0  0  0  0
 23 25  1  0  0  0  0
 25 26  2  0  0  0  0
 25 20  1  0  0  0  0
 26 27  1  0  0  0  0
 26 28  1  0  0  0  0
 27 63  1  0  0  0  0
 27 64  1  0  0  0  0
 27 65  1  0  0  0  0
 28 16  1  0  0  0  0
M  END
>  <IDENTIFIER>
CNP0202582.1

>  <Energy>
851.448

$$$$
