
 OpenBabel09082504323D

 38 40  0  0  0  0  0  0  0  0999 V2000
    5.7248    0.2223   -0.1290 C   0  0  0  0  0  0  0  0  0  0  0  0
    4.8767   -0.0663    0.9182 O   0  0  0  0  0  0  0  0  0  0  0  0
    3.5311   -0.0704    0.7752 C   0  0  0  0  0  0  0  0  0  0  0  0
    2.8612   -1.2975    0.6732 C   0  0  0  0  0  0  0  0  0  0  0  0
    3.5392   -2.4657    0.7163 O   0  0  0  0  0  0  0  0  0  0  0  0
    1.4759   -1.3240    0.5147 C   0  0  0  0  0  0  0  0  0  0  0  0
    0.8366   -2.5096    0.4044 O   0  0  0  0  0  0  0  0  0  0  0  0
    0.6209   -3.1038   -0.8195 C   0  0  0  0  0  0  0  0  0  0  0  0
    0.7445   -0.1314    0.4704 C   0  0  0  0  0  0  0  0  0  0  0  0
   -0.5742   -0.2063    0.3216 O   0  0  0  0  0  0  0  0  0  0  0  0
   -1.3791    0.8489    0.2665 C   0  0  0  0  0  0  0  0  0  0  0  0
   -2.8451    0.6096    0.0893 C   0  0  0  0  0  0  0  0  0  0  0  0
   -3.7913    1.6569    0.0204 C   0  0  0  0  0  0  0  0  0  0  0  0
   -5.1515    1.3798   -0.1491 C   0  0  0  0  0  0  0  0  0  0  0  0
   -5.5968    0.0569   -0.2534 C   0  0  0  0  0  0  0  0  0  0  0  0
   -6.9061   -0.2211   -0.4179 O   0  0  0  0  0  0  0  0  0  0  0  0
   -4.6736   -0.9878   -0.1867 C   0  0  0  0  0  0  0  0  0  0  0  0
   -3.3129   -0.7170   -0.0173 C   0  0  0  0  0  0  0  0  0  0  0  0
   -0.8176    2.1302    0.3744 C   0  0  0  0  0  0  0  0  0  0  0  0
    0.5628    2.2730    0.5315 C   0  0  0  0  0  0  0  0  0  0  0  0
    1.0112    3.4000    0.6191 O   0  0  0  0  0  0  0  0  0  0  0  0
    1.3945    1.1244    0.5825 C   0  0  0  0  0  0  0  0  0  0  0  0
    2.8184    1.1450    0.7363 C   0  0  0  0  0  0  0  0  0  0  0  0
    3.5494    2.2786    0.8586 O   0  0  0  0  0  0  0  0  0  0  0  0
    6.7735    0.1827    0.2297 H   0  0  0  0  0  0  0  0  0  0  0  0
    5.5209    1.2342   -0.5376 H   0  0  0  0  0  0  0  0  0  0  0  0
    5.5968   -0.5335   -0.9340 H   0  0  0  0  0  0  0  0  0  0  0  0
    4.4999   -2.5141    0.8212 H   0  0  0  0  0  0  0  0  0  0  0  0
    0.0866   -4.0641   -0.6697 H   0  0  0  0  0  0  0  0  0  0  0  0
    1.5906   -3.3075   -1.3228 H   0  0  0  0  0  0  0  0  0  0  0  0
    0.0005   -2.4433   -1.4626 H   0  0  0  0  0  0  0  0  0  0  0  0
   -3.5067    2.6939    0.0942 H   0  0  0  0  0  0  0  0  0  0  0  0
   -5.8597    2.1976   -0.1998 H   0  0  0  0  0  0  0  0  0  0  0  0
   -7.5767    0.4749   -0.4695 H   0  0  0  0  0  0  0  0  0  0  0  0
   -5.0099   -2.0140   -0.2668 H   0  0  0  0  0  0  0  0  0  0  0  0
   -2.6272   -1.5538    0.0289 H   0  0  0  0  0  0  0  0  0  0  0  0
   -1.4212    3.0245    0.3380 H   0  0  0  0  0  0  0  0  0  0  0  0
    3.2251    3.1835    0.8597 H   0  0  0  0  0  0  0  0  0  0  0  0
  1  2  1  0  0  0  0
  1 25  1  0  0  0  0
  1 26  1  0  0  0  0
  1 27  1  0  0  0  0
  2  3  1  0  0  0  0
  3  4  2  0  0  0  0
  4  5  1  0  0  0  0
  4  6  1  0  0  0  0
  5 28  1  0  0  0  0
  6  7  1  0  0  0  0
  6  9  2  0  0  0  0
  7  8  1  0  0  0  0
  8 29  1  0  0  0  0
  8 30  1  0  0  0  0
  8 31  1  0  0  0  0
  9 10  1  0  0  0  0
 10 11  1  0  0  0  0
 11 12  1  0  0  0  0
 11 19  2  0  0  0  0
 12 13  2  0  0  0  0
 13 14  1  0  0  0  0
 13 32  1  0  0  0  0
 14 15  2  0  0  0  0
 14 33  1  0  0  0  0
 15 16  1  0  0  0  0
 15 17  1  0  0  0  0
 16 34  1  0  0  0  0
 17 18  2  0  0  0  0
 17 35  1  0  0  0  0
 18 12  1  0  0  0  0
 18 36  1  0  0  0  0
 19 20  1  0  0  0  0
 19 37  1  0  0  0  0
 20 21  2  0  0  0  0
 20 22  1  0  0  0  0
 22 23  2  0  0  0  0
 22  9  1  0  0  0  0
 23 24  1  0  0  0  0
 23  3  1  0  0  0  0
 24 38  1  0  0  0  0
M  END
>  <IDENTIFIER>
CNP0209987.0

>  <Energy>
380.772

$$$$
