
 OpenBabel09072514493D

 22 24  0  0  0  0  0  0  0  0999 V2000
   -3.4999    0.9547    0.5209 C   0  0  0  0  0  0  0  0  0  0  0  0
   -2.2993    1.5152    0.7341 C   0  0  0  0  0  0  0  0  0  0  0  0
   -1.0839    0.7635    0.3676 C   0  0  0  0  0  0  0  0  0  0  0  0
    0.0893    1.2630    0.5547 N   0  0  0  0  0  0  0  0  0  0  0  0
    1.2153    0.5456    0.2060 N   0  0  0  0  0  0  0  0  0  0  0  0
    2.5108    1.1011    0.4147 C   0  0  0  0  0  0  0  0  0  0  0  0
    3.6115    0.4060    0.0766 C   0  0  0  0  0  0  0  0  0  0  0  0
    3.4995   -0.9502   -0.5190 C   0  0  0  0  0  0  0  0  0  0  0  0
    2.2987   -1.5103   -0.7324 C   0  0  0  0  0  0  0  0  0  0  0  0
    1.0836   -0.7585   -0.3661 C   0  0  0  0  0  0  0  0  0  0  0  0
   -0.0896   -1.2578   -0.5533 N   0  0  0  0  0  0  0  0  0  0  0  0
   -1.2156   -0.5405   -0.2045 N   0  0  0  0  0  0  0  0  0  0  0  0
   -2.5110   -1.0963   -0.4130 C   0  0  0  0  0  0  0  0  0  0  0  0
   -3.6118   -0.4015   -0.0747 C   0  0  0  0  0  0  0  0  0  0  0  0
   -4.4024    1.4964    0.7859 H   0  0  0  0  0  0  0  0  0  0  0  0
   -2.2262    2.5071    1.1700 H   0  0  0  0  0  0  0  0  0  0  0  0
    2.6127    2.0912    0.8490 H   0  0  0  0  0  0  0  0  0  0  0  0
    4.5939    0.8376    0.2395 H   0  0  0  0  0  0  0  0  0  0  0  0
    4.4018   -1.4922   -0.7838 H   0  0  0  0  0  0  0  0  0  0  0  0
    2.2254   -2.5022   -1.1683 H   0  0  0  0  0  0  0  0  0  0  0  0
   -2.6126   -2.0865   -0.8473 H   0  0  0  0  0  0  0  0  0  0  0  0
   -4.5941   -0.8335   -0.2374 H   0  0  0  0  0  0  0  0  0  0  0  0
  1  2  2  0  0  0  0
  1 15  1  0  0  0  0
  2  3  1  0  0  0  0
  2 16  1  0  0  0  0
  3  4  2  0  0  0  0
  4  5  1  0  0  0  0
  5  6  1  0  0  0  0
  6  7  2  0  0  0  0
  6 17  1  0  0  0  0
  7  8  1  0  0  0  0
  7 18  1  0  0  0  0
  8  9  2  0  0  0  0
  8 19  1  0  0  0  0
  9 10  1  0  0  0  0
  9 20  1  0  0  0  0
 10 11  2  0  0  0  0
 10  5  1  0  0  0  0
 11 12  1  0  0  0  0
 12 13  1  0  0  0  0
 12  3  1  0  0  0  0
 13 14  2  0  0  0  0
 13 21  1  0  0  0  0
 14  1  1  0  0  0  0
 14 22  1  0  0  0  0
M  END
>  <IDENTIFIER>
CNP0444923.0

>  <Energy>
90.1708

$$$$
