
 OpenBabel09132504303D

 57 60  0  0  0  0  0  0  0  0999 V2000
   -6.4347    0.0238   -1.1932 C   0  0  0  0  0  0  0  0  0  0  0  0
   -5.5509    0.7690   -0.4385 O   0  0  0  0  0  0  0  0  0  0  0  0
   -4.3084    0.3999   -0.0376 C   0  0  0  0  0  0  0  0  0  0  0  0
   -3.7880   -0.8557   -0.4124 C   0  0  0  0  0  0  0  0  0  0  0  0
   -2.5175   -1.2562   -0.0057 C   0  0  0  0  0  0  0  0  0  0  0  0
   -1.7113   -0.4091    0.7773 C   0  0  0  0  0  0  0  0  0  0  0  0
   -2.2159    0.8546    1.1351 C   0  0  0  0  0  0  0  0  0  0  0  0
   -3.5161    1.2799    0.7563 C   0  0  0  0  0  0  0  0  0  0  0  0
   -3.9570    2.6502    1.2314 C   0  0  0  0  0  0  0  0  0  0  0  0
   -5.3244    3.2719    1.0673 C   0  0  0  0  0  0  0  0  0  0  0  0
   -3.1459    3.3423    1.8312 O   0  0  0  0  0  0  0  0  0  0  0  0
   -0.3046   -0.9445    1.1218 C   0  0  2  0  0  0  0  0  0  0  0  0
    0.6470   -0.0068    1.9357 C   0  0  0  0  0  0  0  0  0  0  0  0
    1.7237    0.6499    1.0527 C   0  0  0  0  0  0  0  0  0  0  0  0
    2.6346   -0.4506    0.4112 C   0  0  2  0  0  0  0  0  0  0  0  0
    3.5998   -1.0329    1.4980 C   0  0  0  0  0  0  0  0  0  0  0  0
    3.4559    0.1037   -0.7778 C   0  0  1  0  0  0  0  0  0  0  0  0
    4.5990    0.7842   -0.3897 O   0  0  0  0  0  0  0  0  0  0  0  0
    4.8969    2.0707   -0.7103 C   0  0  0  0  0  0  0  0  0  0  0  0
    6.1794    2.6695   -0.2317 C   0  0  0  0  0  0  0  0  0  0  0  0
    4.1361    2.7476   -1.3871 O   0  0  0  0  0  0  0  0  0  0  0  0
    3.7748   -1.1516   -1.5890 C   0  0  0  0  0  0  0  0  0  0  0  0
    2.3974   -1.7907   -1.6603 C   0  0  0  0  0  0  0  0  0  0  0  0
    1.8159   -1.6254   -0.2351 C   0  0  2  0  0  0  0  0  0  0  0  0
    0.2965   -1.3485   -0.2640 C   0  0  1  0  0  0  0  0  0  0  0  0
   -0.5295   -2.4819   -0.9505 C   0  0  0  0  0  0  0  0  0  0  0  0
   -1.9603   -2.6036   -0.3806 C   0  0  0  0  0  0  0  0  0  0  0  0
   -7.3660    0.6081   -1.3401 H   0  0  0  0  0  0  0  0  0  0  0  0
   -6.6910   -0.9192   -0.6644 H   0  0  0  0  0  0  0  0  0  0  0  0
   -5.9973   -0.1998   -2.1892 H   0  0  0  0  0  0  0  0  0  0  0  0
   -4.3707   -1.5392   -1.0150 H   0  0  0  0  0  0  0  0  0  0  0  0
   -1.6093    1.5252    1.7166 H   0  0  0  0  0  0  0  0  0  0  0  0
   -6.0915    2.6653    0.5735 H   0  0  0  0  0  0  0  0  0  0  0  0
   -5.2270    4.2178    0.4948 H   0  0  0  0  0  0  0  0  0  0  0  0
   -5.7266    3.5135    2.0743 H   0  0  0  0  0  0  0  0  0  0  0  0
   -0.4410   -1.8447    1.7613 H   0  0  0  0  0  0  0  0  0  0  0  0
    1.1746   -0.6239    2.6857 H   0  0  0  0  0  0  0  0  0  0  0  0
    0.1065    0.7146    2.5716 H   0  0  0  0  0  0  0  0  0  0  0  0
    2.3491    1.3585    1.6379 H   0  0  0  0  0  0  0  0  0  0  0  0
    1.1974    1.2450    0.2754 H   0  0  0  0  0  0  0  0  0  0  0  0
    4.2179   -0.2248    1.9441 H   0  0  0  0  0  0  0  0  0  0  0  0
    4.2890   -1.7994    1.0955 H   0  0  0  0  0  0  0  0  0  0  0  0
    3.0570   -1.5349    2.3210 H   0  0  0  0  0  0  0  0  0  0  0  0
    2.7943    0.7392   -1.4143 H   0  0  0  0  0  0  0  0  0  0  0  0
    6.7517    1.9288    0.3656 H   0  0  0  0  0  0  0  0  0  0  0  0
    5.9645    3.5556    0.4015 H   0  0  0  0  0  0  0  0  0  0  0  0
    6.7931    2.9814   -1.1028 H   0  0  0  0  0  0  0  0  0  0  0  0
    4.4738   -1.8206   -1.0471 H   0  0  0  0  0  0  0  0  0  0  0  0
    4.2089   -0.9380   -2.5890 H   0  0  0  0  0  0  0  0  0  0  0  0
    2.3621   -2.8282   -2.0551 H   0  0  0  0  0  0  0  0  0  0  0  0
    1.8180   -1.1503   -2.3648 H   0  0  0  0  0  0  0  0  0  0  0  0
    1.9985   -2.5532    0.3530 H   0  0  0  0  0  0  0  0  0  0  0  0
    0.1616   -0.4363   -0.8941 H   0  0  0  0  0  0  0  0  0  0  0  0
   -0.0555   -3.4771   -0.8055 H   0  0  0  0  0  0  0  0  0  0  0  0
   -0.5447   -2.2738   -2.0429 H   0  0  0  0  0  0  0  0  0  0  0  0
   -1.8836   -3.1638    0.5768 H   0  0  0  0  0  0  0  0  0  0  0  0
   -2.6171   -3.2049   -1.0455 H   0  0  0  0  0  0  0  0  0  0  0  0
  1  2  1  0  0  0  0
  1 28  1  0  0  0  0
  1 29  1  0  0  0  0
  1 30  1  0  0  0  0
  2  3  1  0  0  0  0
  3  4  2  0  0  0  0
  4  5  1  0  0  0  0
  4 31  1  0  0  0  0
  5  6  2  0  0  0  0
  6  7  1  0  0  0  0
  6 12  1  0  0  0  0
  7  8  2  0  0  0  0
  7 32  1  0  0  0  0
  8  9  1  0  0  0  0
  8  3  1  0  0  0  0
  9 10  1  0  0  0  0
  9 11  2  0  0  0  0
 10 33  1  0  0  0  0
 10 34  1  0  0  0  0
 10 35  1  0  0  0  0
 12 13  1  0  0  0  0
 12 36  1  1  0  0  0
 13 14  1  0  0  0  0
 13 37  1  0  0  0  0
 13 38  1  0  0  0  0
 14 15  1  0  0  0  0
 14 39  1  0  0  0  0
 14 40  1  0  0  0  0
 15 16  1  1  0  0  0
 15 17  1  0  0  0  0
 16 41  1  0  0  0  0
 16 42  1  0  0  0  0
 16 43  1  0  0  0  0
 17 18  1  0  0  0  0
 17 22  1  0  0  0  0
 17 44  1  6  0  0  0
 18 19  1  0  0  0  0
 19 20  1  0  0  0  0
 19 21  2  0  0  0  0
 20 45  1  0  0  0  0
 20 46  1  0  0  0  0
 20 47  1  0  0  0  0
 22 23  1  0  0  0  0
 22 48  1  0  0  0  0
 22 49  1  0  0  0  0
 23 50  1  0  0  0  0
 23 51  1  0  0  0  0
 24 23  1  0  0  0  0
 24 25  1  0  0  0  0
 24 15  1  0  0  0  0
 24 52  1  1  0  0  0
 25 26  1  0  0  0  0
 25 12  1  0  0  0  0
 25 53  1  6  0  0  0
 26 27  1  0  0  0  0
 26 54  1  0  0  0  0
 26 55  1  0  0  0  0
 27  5  1  0  0  0  0
 27 56  1  0  0  0  0
 27 57  1  0  0  0  0
M  END
>  <IDENTIFIER>
CNP0365960.2

>  <Energy>
683.846

$$$$
