
 OpenBabel09072503143D

 91 95  0  0  0  0  0  0  0  0999 V2000
   -9.0412   -0.0772    2.5203 C   0  0  0  0  0  0  0  0  0  0  0  0
   -9.0258   -0.5274    1.0495 C   0  0  0  0  0  0  0  0  0  0  0  0
  -10.2206    0.0919    0.3134 C   0  0  0  0  0  0  0  0  0  0  0  0
   -7.6738   -0.1345    0.4171 C   0  0  0  0  0  0  0  0  0  0  0  0
   -7.4655   -0.6230   -1.0382 C   0  0  0  0  0  0  0  0  0  0  0  0
   -6.0941   -0.1780   -1.6089 C   0  0  0  0  0  0  0  0  0  0  0  0
   -4.8587   -0.7713   -0.8616 C   0  0  1  0  0  0  0  0  0  0  0  0
   -4.7535   -2.2785   -1.1594 C   0  0  0  0  0  0  0  0  0  0  0  0
   -3.5353    0.0040   -1.1845 C   0  0  1  0  0  0  0  0  0  0  0  0
   -3.6712    1.5459   -0.9409 C   0  0  0  0  0  0  0  0  0  0  0  0
   -2.3825    2.0142   -0.2584 C   0  0  0  0  0  0  0  0  0  0  0  0
   -1.4047    0.9145   -0.6047 C   0  0  1  0  0  0  0  0  0  0  0  0
   -0.0544    0.9024    0.1477 C   0  0  2  0  0  0  0  0  0  0  0  0
    0.7192    2.2034   -0.1520 C   0  0  0  0  0  0  0  0  0  0  0  0
    2.1774    2.1374    0.2069 C   0  0  0  0  0  0  0  0  0  0  0  0
    2.8248    0.9944    0.5180 C   0  0  0  0  0  0  0  0  0  0  0  0
    4.2950    1.0567    0.8931 C   0  0  0  0  0  0  0  0  0  0  0  0
    5.0807    0.1093   -0.0188 C   0  0  1  0  0  0  0  0  0  0  0  0
    6.4523    0.1658    0.3214 O   0  0  0  0  0  0  0  0  0  0  0  0
    7.2836   -0.2835   -0.7486 C   0  0  2  0  0  0  0  0  0  0  0  0
    7.9998   -1.4494   -0.3595 O   0  0  0  0  0  0  0  0  0  0  0  0
    8.8497   -1.1850    0.7468 C   0  0  0  0  0  0  0  0  0  0  0  0
    9.9169   -0.1334    0.3925 C   0  0  2  0  0  0  0  0  0  0  0  0
   10.7792    0.0996    1.4779 O   0  0  0  0  0  0  0  0  0  0  0  0
    9.2282    1.1680   -0.0627 C   0  0  1  0  0  0  0  0  0  0  0  0
   10.1685    2.1324   -0.4646 O   0  0  0  0  0  0  0  0  0  0  0  0
    8.2467    0.8332   -1.2010 C   0  0  2  0  0  0  0  0  0  0  0  0
    7.5472    1.9738   -1.6356 O   0  0  0  0  0  0  0  0  0  0  0  0
    4.5426   -1.3234    0.1642 C   0  0  0  0  0  0  0  0  0  0  0  0
    3.0767   -1.3806   -0.2767 C   0  0  0  0  0  0  0  0  0  0  0  0
    2.1461   -0.3850    0.4876 C   0  0  1  0  0  0  0  0  0  0  0  0
    1.9641   -0.8454    1.9604 C   0  0  0  0  0  0  0  0  0  0  0  0
    0.7816   -0.3151   -0.3114 C   0  0  1  0  0  0  0  0  0  0  0  0
   -0.0277   -1.6513   -0.2831 C   0  0  0  0  0  0  0  0  0  0  0  0
   -1.3851   -1.5291   -1.0066 C   0  0  0  0  0  0  0  0  0  0  0  0
   -2.2314   -0.3739   -0.3987 C   0  0  2  0  0  0  0  0  0  0  0  0
   -2.5677   -0.6698    1.1053 C   0  0  0  0  0  0  0  0  0  0  0  0
   -9.9886   -0.3835    3.0112 H   0  0  0  0  0  0  0  0  0  0  0  0
   -8.9396    1.0277    2.5951 H   0  0  0  0  0  0  0  0  0  0  0  0
   -8.2008   -0.5456    3.0780 H   0  0  0  0  0  0  0  0  0  0  0  0
   -9.1251   -1.6348    1.0284 H   0  0  0  0  0  0  0  0  0  0  0  0
  -10.1459    1.2005    0.3109 H   0  0  0  0  0  0  0  0  0  0  0  0
  -11.1662   -0.2013    0.8180 H   0  0  0  0  0  0  0  0  0  0  0  0
  -10.2772   -0.2727   -0.7309 H   0  0  0  0  0  0  0  0  0  0  0  0
   -6.9034   -0.5893    1.0661 H   0  0  0  0  0  0  0  0  0  0  0  0
   -7.5567    0.9713    0.4519 H   0  0  0  0  0  0  0  0  0  0  0  0
   -8.2436   -0.1686   -1.6851 H   0  0  0  0  0  0  0  0  0  0  0  0
   -7.5867   -1.7229   -1.0935 H   0  0  0  0  0  0  0  0  0  0  0  0
   -6.1029    0.9277   -1.5502 H   0  0  0  0  0  0  0  0  0  0  0  0
   -6.0249   -0.4367   -2.6885 H   0  0  0  0  0  0  0  0  0  0  0  0
   -5.0127   -0.6305    0.2174 H   0  0  0  0  0  0  0  0  0  0  0  0
   -4.5502   -2.4475   -2.2388 H   0  0  0  0  0  0  0  0  0  0  0  0
   -5.6854   -2.8090   -0.8862 H   0  0  0  0  0  0  0  0  0  0  0  0
   -3.9670   -2.7618   -0.5609 H   0  0  0  0  0  0  0  0  0  0  0  0
   -3.2948   -0.1095   -2.2685 H   0  0  0  0  0  0  0  0  0  0  0  0
   -4.5199    1.8587   -0.2965 H   0  0  0  0  0  0  0  0  0  0  0  0
   -3.7776    2.0274   -1.9395 H   0  0  0  0  0  0  0  0  0  0  0  0
   -2.5283    2.0088    0.8413 H   0  0  0  0  0  0  0  0  0  0  0  0
   -2.0800    3.0457   -0.5373 H   0  0  0  0  0  0  0  0  0  0  0  0
   -1.1838    1.0198   -1.6966 H   0  0  0  0  0  0  0  0  0  0  0  0
   -0.2261    0.8331    1.2399 H   0  0  0  0  0  0  0  0  0  0  0  0
    0.2316    3.0268    0.4141 H   0  0  0  0  0  0  0  0  0  0  0  0
    0.6841    2.4571   -1.2332 H   0  0  0  0  0  0  0  0  0  0  0  0
    2.7219    3.0773    0.1940 H   0  0  0  0  0  0  0  0  0  0  0  0
    4.4293    0.7457    1.9502 H   0  0  0  0  0  0  0  0  0  0  0  0
    4.6993    2.0888    0.8004 H   0  0  0  0  0  0  0  0  0  0  0  0
    4.9132    0.4704   -1.0630 H   0  0  0  0  0  0  0  0  0  0  0  0
    6.7065   -0.5662   -1.6629 H   0  0  0  0  0  0  0  0  0  0  0  0
    9.3631   -2.1317    1.0205 H   0  0  0  0  0  0  0  0  0  0  0  0
    8.2531   -0.8826    1.6363 H   0  0  0  0  0  0  0  0  0  0  0  0
   10.5213   -0.5350   -0.4514 H   0  0  0  0  0  0  0  0  0  0  0  0
   10.2273    0.4312    2.2332 H   0  0  0  0  0  0  0  0  0  0  0  0
    8.6521    1.5841    0.7938 H   0  0  0  0  0  0  0  0  0  0  0  0
   10.6744    1.7574   -1.2323 H   0  0  0  0  0  0  0  0  0  0  0  0
    8.8312    0.4440   -2.0652 H   0  0  0  0  0  0  0  0  0  0  0  0
    7.0684    2.3529   -0.8531 H   0  0  0  0  0  0  0  0  0  0  0  0
    4.6591   -1.6471    1.2203 H   0  0  0  0  0  0  0  0  0  0  0  0
    5.1207   -2.0315   -0.4682 H   0  0  0  0  0  0  0  0  0  0  0  0
    2.7078   -2.4238   -0.1715 H   0  0  0  0  0  0  0  0  0  0  0  0
    3.0702   -1.1269   -1.3589 H   0  0  0  0  0  0  0  0  0  0  0  0
    1.5403   -1.8659    2.0261 H   0  0  0  0  0  0  0  0  0  0  0  0
    1.3053   -0.1514    2.5223 H   0  0  0  0  0  0  0  0  0  0  0  0
    2.9265   -0.8796    2.5078 H   0  0  0  0  0  0  0  0  0  0  0  0
    1.0096   -0.1176   -1.3851 H   0  0  0  0  0  0  0  0  0  0  0  0
   -0.2189   -1.9797    0.7523 H   0  0  0  0  0  0  0  0  0  0  0  0
    0.5515   -2.4596   -0.7742 H   0  0  0  0  0  0  0  0  0  0  0  0
   -1.8970   -2.5051   -0.9551 H   0  0  0  0  0  0  0  0  0  0  0  0
   -1.1875   -1.3204   -2.0822 H   0  0  0  0  0  0  0  0  0  0  0  0
   -3.1093   -1.6316    1.1978 H   0  0  0  0  0  0  0  0  0  0  0  0
   -3.2149    0.1028    1.5628 H   0  0  0  0  0  0  0  0  0  0  0  0
   -1.6766   -0.7564    1.7512 H   0  0  0  0  0  0  0  0  0  0  0  0
  1  2  1  0  0  0  0
  1 38  1  0  0  0  0
  1 39  1  0  0  0  0
  1 40  1  0  0  0  0
  2  3  1  0  0  0  0
  2  4  1  0  0  0  0
  2 41  1  0  0  0  0
  3 42  1  0  0  0  0
  3 43  1  0  0  0  0
  3 44  1  0  0  0  0
  4  5  1  0  0  0  0
  4 45  1  0  0  0  0
  4 46  1  0  0  0  0
  5  6  1  0  0  0  0
  5 47  1  0  0  0  0
  5 48  1  0  0  0  0
  6  7  1  0  0  0  0
  6 49  1  0  0  0  0
  6 50  1  0  0  0  0
  7  8  1  0  0  0  0
  7  9  1  0  0  0  0
  7 51  1  1  0  0  0
  8 52  1  0  0  0  0
  8 53  1  0  0  0  0
  8 54  1  0  0  0  0
  9 10  1  0  0  0  0
  9 55  1  6  0  0  0
 10 11  1  0  0  0  0
 10 56  1  0  0  0  0
 10 57  1  0  0  0  0
 11 58  1  0  0  0  0
 11 59  1  0  0  0  0
 12 11  1  0  0  0  0
 12 13  1  0  0  0  0
 12 60  1  6  0  0  0
 13 14  1  0  0  0  0
 13 61  1  1  0  0  0
 14 15  1  0  0  0  0
 14 62  1  0  0  0  0
 14 63  1  0  0  0  0
 15 16  2  0  0  0  0
 15 64  1  0  0  0  0
 16 17  1  0  0  0  0
 17 18  1  0  0  0  0
 17 65  1  0  0  0  0
 17 66  1  0  0  0  0
 18 19  1  0  0  0  0
 18 29  1  0  0  0  0
 18 67  1  6  0  0  0
 20 19  1  0  0  0  0
 20 21  1  0  0  0  0
 20 68  1  6  0  0  0
 21 22  1  0  0  0  0
 22 23  1  0  0  0  0
 22 69  1  0  0  0  0
 22 70  1  0  0  0  0
 23 24  1  0  0  0  0
 23 25  1  0  0  0  0
 23 71  1  6  0  0  0
 24 72  1  0  0  0  0
 25 26  1  0  0  0  0
 25 27  1  0  0  0  0
 25 73  1  1  0  0  0
 26 74  1  0  0  0  0
 27 28  1  0  0  0  0
 27 20  1  0  0  0  0
 27 75  1  6  0  0  0
 28 76  1  0  0  0  0
 29 30  1  0  0  0  0
 29 77  1  0  0  0  0
 29 78  1  0  0  0  0
 30 31  1  0  0  0  0
 30 79  1  0  0  0  0
 30 80  1  0  0  0  0
 31 32  1  1  0  0  0
 31 33  1  0  0  0  0
 31 16  1  0  0  0  0
 32 81  1  0  0  0  0
 32 82  1  0  0  0  0
 32 83  1  0  0  0  0
 33 34  1  0  0  0  0
 33 13  1  0  0  0  0
 33 84  1  6  0  0  0
 34 35  1  0  0  0  0
 34 85  1  0  0  0  0
 34 86  1  0  0  0  0
 35 36  1  0  0  0  0
 35 87  1  0  0  0  0
 35 88  1  0  0  0  0
 36 37  1  1  0  0  0
 36  9  1  0  0  0  0
 36 12  1  0  0  0  0
 37 89  1  0  0  0  0
 37 90  1  0  0  0  0
 37 91  1  0  0  0  0
M  END
>  <IDENTIFIER>
CNP0314651.1

>  <Energy>
771.065

$$$$
