
 OpenBabel09092510093D

132144  0  0  0  0  0  0  0  0999 V2000
   -2.2589   -3.2960    5.6802 O   0  0  0  0  0  0  0  0  0  0  0  0
   -2.0446   -3.0435    4.3734 C   0  0  0  0  0  0  0  0  0  0  0  0
   -0.7748   -2.6674    3.9153 C   0  0  0  0  0  0  0  0  0  0  0  0
   -0.5568   -2.4169    2.5530 C   0  0  0  0  0  0  0  0  0  0  0  0
    0.6752   -2.0759    2.1170 O   0  0  0  0  0  0  0  0  0  0  0  0
   -1.6261   -2.5309    1.6384 C   0  0  0  0  0  0  0  0  0  0  0  0
   -2.9083   -2.8796    2.1117 C   0  0  0  0  0  0  0  0  0  0  0  0
   -3.1048   -3.1518    3.4692 C   0  0  0  0  0  0  0  0  0  0  0  0
   -3.9619   -2.9665    1.2643 O   0  0  0  0  0  0  0  0  0  0  0  0
   -3.9711   -2.4845   -0.0379 C   0  0  2  0  0  0  0  0  0  0  0  0
   -5.1204   -3.1261   -0.8118 C   0  0  0  0  0  0  0  0  0  0  0  0
   -5.9481   -4.1024   -0.2151 C   0  0  0  0  0  0  0  0  0  0  0  0
   -6.9687   -4.7153   -0.9424 C   0  0  0  0  0  0  0  0  0  0  0  0
   -7.1897   -4.3707   -2.2800 C   0  0  0  0  0  0  0  0  0  0  0  0
   -8.1711   -4.9743   -2.9830 O   0  0  0  0  0  0  0  0  0  0  0  0
   -6.3800   -3.3942   -2.8884 C   0  0  0  0  0  0  0  0  0  0  0  0
   -6.5634   -3.0422   -4.1787 O   0  0  0  0  0  0  0  0  0  0  0  0
   -5.3559   -2.7773   -2.1542 C   0  0  0  0  0  0  0  0  0  0  0  0
   -2.6153   -2.8108   -0.7053 C   0  0  2  0  0  0  0  0  0  0  0  0
   -2.5283   -4.2076   -0.9011 O   0  0  0  0  0  0  0  0  0  0  0  0
   -1.4059   -2.3277    0.1512 C   0  0  1  0  0  0  0  0  0  0  0  0
   -0.8046   -0.9424   -0.1882 C   0  0  0  0  0  0  0  0  0  0  0  0
    0.4099   -0.8719   -0.9436 C   0  0  0  0  0  0  0  0  0  0  0  0
    0.9386   -1.9782   -1.5151 O   0  0  0  0  0  0  0  0  0  0  0  0
    1.1101    0.3607   -1.0901 C   0  0  0  0  0  0  0  0  0  0  0  0
    0.5881    1.5174   -0.4844 C   0  0  0  0  0  0  0  0  0  0  0  0
    1.3337    2.6592   -0.4404 O   0  0  0  0  0  0  0  0  0  0  0  0
    2.7215    2.7334   -0.5990 C   0  0  2  0  0  0  0  0  0  0  0  0
    3.0484    3.8194   -1.6275 C   0  0  0  0  0  0  0  0  0  0  0  0
    2.6557    5.1343   -1.3172 C   0  0  0  0  0  0  0  0  0  0  0  0
    2.9615    6.1983   -2.1678 C   0  0  0  0  0  0  0  0  0  0  0  0
    3.6721    5.9744   -3.3528 C   0  0  0  0  0  0  0  0  0  0  0  0
    3.9826    7.0047   -4.1672 O   0  0  0  0  0  0  0  0  0  0  0  0
    4.0666    4.6686   -3.6869 C   0  0  0  0  0  0  0  0  0  0  0  0
    4.7584    4.4150   -4.8184 O   0  0  0  0  0  0  0  0  0  0  0  0
    3.7531    3.6040   -2.8337 C   0  0  0  0  0  0  0  0  0  0  0  0
    3.3609    1.3192   -0.8089 C   0  0  2  0  0  0  0  0  0  0  0  0
    4.7243    1.4607   -1.1466 O   0  0  0  0  0  0  0  0  0  0  0  0
    2.4666    0.5408   -1.8133 C   0  0  1  0  0  0  0  0  0  0  0  0
    3.0092   -0.7491   -2.4552 C   0  0  0  0  0  0  0  0  0  0  0  0
    2.4517   -1.1762   -3.7014 C   0  0  0  0  0  0  0  0  0  0  0  0
    1.4922   -0.4812   -4.3577 O   0  0  0  0  0  0  0  0  0  0  0  0
    2.8632   -2.3722   -4.2858 C   0  0  0  0  0  0  0  0  0  0  0  0
    3.8141   -3.1833   -3.6729 C   0  0  0  0  0  0  0  0  0  0  0  0
    4.1850   -4.3462   -4.2513 O   0  0  0  0  0  0  0  0  0  0  0  0
    4.3853   -2.7897   -2.4560 C   0  0  0  0  0  0  0  0  0  0  0  0
    3.9797   -1.5845   -1.8327 C   0  0  0  0  0  0  0  0  0  0  0  0
    4.5063   -1.2521   -0.6232 O   0  0  0  0  0  0  0  0  0  0  0  0
    5.2541   -2.1031    0.1789 C   0  0  2  0  0  0  0  0  0  0  0  0
    5.9473   -1.2689    1.2498 C   0  0  0  0  0  0  0  0  0  0  0  0
    7.3513   -1.1809    1.3766 C   0  0  0  0  0  0  0  0  0  0  0  0
    7.9310   -0.3942    2.3732 C   0  0  0  0  0  0  0  0  0  0  0  0
    7.1258    0.3251    3.2646 C   0  0  0  0  0  0  0  0  0  0  0  0
    7.6917    1.0858    4.2256 O   0  0  0  0  0  0  0  0  0  0  0  0
    5.7275    0.2510    3.1517 C   0  0  0  0  0  0  0  0  0  0  0  0
    4.9209    0.9339    3.9929 O   0  0  0  0  0  0  0  0  0  0  0  0
    5.1491   -0.5414    2.1515 C   0  0  0  0  0  0  0  0  0  0  0  0
    6.2006   -2.9271   -0.7200 C   0  0  1  0  0  0  0  0  0  0  0  0
    6.9902   -3.8296    0.0154 O   0  0  0  0  0  0  0  0  0  0  0  0
    5.4022   -3.6825   -1.7906 C   0  0  0  0  0  0  0  0  0  0  0  0
   -0.6646    1.4927    0.1522 C   0  0  0  0  0  0  0  0  0  0  0  0
   -1.3537    0.2598    0.3249 C   0  0  0  0  0  0  0  0  0  0  0  0
   -2.4960    0.2376    1.0730 O   0  0  0  0  0  0  0  0  0  0  0  0
   -3.1596    1.3924    1.4807 C   0  0  2  0  0  0  0  0  0  0  0  0
   -4.1229    1.1081    2.6192 C   0  0  0  0  0  0  0  0  0  0  0  0
   -3.8625    0.0728    3.5261 C   0  0  0  0  0  0  0  0  0  0  0  0
   -4.7297   -0.1850    4.5881 C   0  0  0  0  0  0  0  0  0  0  0  0
   -5.8707    0.6054    4.7753 C   0  0  0  0  0  0  0  0  0  0  0  0
   -6.7079    0.3575    5.8041 O   0  0  0  0  0  0  0  0  0  0  0  0
   -6.1334    1.6659    3.8891 C   0  0  0  0  0  0  0  0  0  0  0  0
   -7.2129    2.4604    4.0496 O   0  0  0  0  0  0  0  0  0  0  0  0
   -5.2613    1.9125    2.8207 C   0  0  0  0  0  0  0  0  0  0  0  0
   -3.8702    1.8686    0.3783 O   0  0  0  0  0  0  0  0  0  0  0  0
   -3.4652    2.8966   -0.4102 C   0  0  0  0  0  0  0  0  0  0  0  0
   -4.3525    3.4459   -1.3396 C   0  0  0  0  0  0  0  0  0  0  0  0
   -3.9623    4.5355   -2.1277 C   0  0  0  0  0  0  0  0  0  0  0  0
   -4.8123    5.0809   -3.0220 O   0  0  0  0  0  0  0  0  0  0  0  0
   -2.6788    5.0743   -1.9809 C   0  0  0  0  0  0  0  0  0  0  0  0
   -1.7759    4.5273   -1.0537 C   0  0  0  0  0  0  0  0  0  0  0  0
   -0.5423    5.0548   -0.9223 O   0  0  0  0  0  0  0  0  0  0  0  0
   -2.1634    3.4227   -0.2715 C   0  0  0  0  0  0  0  0  0  0  0  0
   -1.2425    2.7750    0.7507 C   0  0  1  0  0  0  0  0  0  0  0  0
   -2.1128    2.4395    1.9692 C   0  0  2  0  0  0  0  0  0  0  0  0
   -1.3483    1.9759    3.0606 O   0  0  0  0  0  0  0  0  0  0  0  0
   -1.5531   -3.2284    6.3389 H   0  0  0  0  0  0  0  0  0  0  0  0
    0.0461   -2.5801    4.6164 H   0  0  0  0  0  0  0  0  0  0  0  0
    1.4290   -1.9791    2.7163 H   0  0  0  0  0  0  0  0  0  0  0  0
   -4.0888   -3.4322    3.8241 H   0  0  0  0  0  0  0  0  0  0  0  0
   -4.1105   -1.3839   -0.0065 H   0  0  0  0  0  0  0  0  0  0  0  0
   -5.8064   -4.4107    0.8125 H   0  0  0  0  0  0  0  0  0  0  0  0
   -7.5843   -5.4673   -0.4630 H   0  0  0  0  0  0  0  0  0  0  0  0
   -8.7379   -5.6570   -2.5952 H   0  0  0  0  0  0  0  0  0  0  0  0
   -7.2452   -3.4428   -4.7368 H   0  0  0  0  0  0  0  0  0  0  0  0
   -4.7361   -2.0333   -2.6380 H   0  0  0  0  0  0  0  0  0  0  0  0
   -2.5383   -2.3591   -1.7173 H   0  0  0  0  0  0  0  0  0  0  0  0
   -2.5063   -4.6535   -0.0146 H   0  0  0  0  0  0  0  0  0  0  0  0
   -0.6327   -3.0782   -0.0593 H   0  0  0  0  0  0  0  0  0  0  0  0
    0.5161   -2.8296   -1.6703 H   0  0  0  0  0  0  0  0  0  0  0  0
    3.1667    3.1090    0.3491 H   0  0  0  0  0  0  0  0  0  0  0  0
    2.1226    5.3404   -0.3971 H   0  0  0  0  0  0  0  0  0  0  0  0
    2.6542    7.2007   -1.8975 H   0  0  0  0  0  0  0  0  0  0  0  0
    3.7374    7.9178   -3.9605 H   0  0  0  0  0  0  0  0  0  0  0  0
    5.0209    5.1091   -5.4391 H   0  0  0  0  0  0  0  0  0  0  0  0
    4.0823    2.6263   -3.1375 H   0  0  0  0  0  0  0  0  0  0  0  0
    3.3175    0.7632    0.1534 H   0  0  0  0  0  0  0  0  0  0  0  0
    4.9314    0.9235   -1.9510 H   0  0  0  0  0  0  0  0  0  0  0  0
    2.3525    1.2516   -2.6529 H   0  0  0  0  0  0  0  0  0  0  0  0
    1.0680    0.3262   -4.0450 H   0  0  0  0  0  0  0  0  0  0  0  0
    2.4218   -2.6820   -5.2255 H   0  0  0  0  0  0  0  0  0  0  0  0
    3.8072   -4.6501   -5.0891 H   0  0  0  0  0  0  0  0  0  0  0  0
    4.5664   -2.8190    0.6826 H   0  0  0  0  0  0  0  0  0  0  0  0
    8.0216   -1.7065    0.7131 H   0  0  0  0  0  0  0  0  0  0  0  0
    9.0088   -0.3435    2.4491 H   0  0  0  0  0  0  0  0  0  0  0  0
    8.6514    1.1570    4.3280 H   0  0  0  0  0  0  0  0  0  0  0  0
    5.2636    1.4988    4.6998 H   0  0  0  0  0  0  0  0  0  0  0  0
    4.0695   -0.5905    2.0767 H   0  0  0  0  0  0  0  0  0  0  0  0
    6.8679   -2.2085   -1.2466 H   0  0  0  0  0  0  0  0  0  0  0  0
    6.3745   -4.4161    0.5287 H   0  0  0  0  0  0  0  0  0  0  0  0
    4.8533   -4.5476   -1.3592 H   0  0  0  0  0  0  0  0  0  0  0  0
    6.1381   -4.0658   -2.5310 H   0  0  0  0  0  0  0  0  0  0  0  0
   -2.9762   -0.5260    3.4136 H   0  0  0  0  0  0  0  0  0  0  0  0
   -4.5081   -0.9962    5.2702 H   0  0  0  0  0  0  0  0  0  0  0  0
   -6.5552   -0.3653    6.4296 H   0  0  0  0  0  0  0  0  0  0  0  0
   -7.8433    2.3452    4.7746 H   0  0  0  0  0  0  0  0  0  0  0  0
   -5.4728    2.7371    2.1508 H   0  0  0  0  0  0  0  0  0  0  0  0
   -5.3502    3.0340   -1.4374 H   0  0  0  0  0  0  0  0  0  0  0  0
   -5.7113    4.7443   -3.1488 H   0  0  0  0  0  0  0  0  0  0  0  0
   -2.3843    5.9207   -2.5890 H   0  0  0  0  0  0  0  0  0  0  0  0
   -0.2493    5.8131   -1.4480 H   0  0  0  0  0  0  0  0  0  0  0  0
   -0.4378    3.4789    1.0543 H   0  0  0  0  0  0  0  0  0  0  0  0
   -2.6286    3.3679    2.3059 H   0  0  0  0  0  0  0  0  0  0  0  0
   -0.8703    1.1502    2.7944 H   0  0  0  0  0  0  0  0  0  0  0  0
  1  2  1  0  0  0  0
  1 85  1  0  0  0  0
  2  3  2  0  0  0  0
  3  4  1  0  0  0  0
  3 86  1  0  0  0  0
  4  5  1  0  0  0  0
  4  6  2  0  0  0  0
  5 87  1  0  0  0  0
  6  7  1  0  0  0  0
  7  8  2  0  0  0  0
  7  9  1  0  0  0  0
  8  2  1  0  0  0  0
  8 88  1  0  0  0  0
  9 10  1  0  0  0  0
 10 11  1  0  0  0  0
 10 19  1  0  0  0  0
 10 89  1  1  0  0  0
 11 12  2  0  0  0  0
 12 13  1  0  0  0  0
 12 90  1  0  0  0  0
 13 14  2  0  0  0  0
 13 91  1  0  0  0  0
 14 15  1  0  0  0  0
 14 16  1  0  0  0  0
 15 92  1  0  0  0  0
 16 17  1  0  0  0  0
 16 18  2  0  0  0  0
 17 93  1  0  0  0  0
 18 11  1  0  0  0  0
 18 94  1  0  0  0  0
 19 20  1  0  0  0  0
 19 21  1  0  0  0  0
 19 95  1  6  0  0  0
 20 96  1  0  0  0  0
 21 22  1  0  0  0  0
 21  6  1  0  0  0  0
 21 97  1  6  0  0  0
 22 23  2  0  0  0  0
 23 24  1  0  0  0  0
 23 25  1  0  0  0  0
 24 98  1  0  0  0  0
 25 26  2  0  0  0  0
 26 27  1  0  0  0  0
 26 61  1  0  0  0  0
 27 28  1  0  0  0  0
 28 29  1  0  0  0  0
 28 37  1  0  0  0  0
 28 99  1  1  0  0  0
 29 30  2  0  0  0  0
 30 31  1  0  0  0  0
 30100  1  0  0  0  0
 31 32  2  0  0  0  0
 31101  1  0  0  0  0
 32 33  1  0  0  0  0
 32 34  1  0  0  0  0
 33102  1  0  0  0  0
 34 35  1  0  0  0  0
 34 36  2  0  0  0  0
 35103  1  0  0  0  0
 36 29  1  0  0  0  0
 36104  1  0  0  0  0
 37 38  1  0  0  0  0
 37 39  1  0  0  0  0
 37105  1  1  0  0  0
 38106  1  0  0  0  0
 39 40  1  0  0  0  0
 39 25  1  0  0  0  0
 39107  1  6  0  0  0
 40 41  2  0  0  0  0
 41 42  1  0  0  0  0
 41 43  1  0  0  0  0
 42108  1  0  0  0  0
 43 44  2  0  0  0  0
 43109  1  0  0  0  0
 44 45  1  0  0  0  0
 44 46  1  0  0  0  0
 45110  1  0  0  0  0
 46 47  2  0  0  0  0
 47 48  1  0  0  0  0
 47 40  1  0  0  0  0
 48 49  1  0  0  0  0
 49 50  1  0  0  0  0
 49 58  1  0  0  0  0
 49111  1  1  0  0  0
 50 51  2  0  0  0  0
 51 52  1  0  0  0  0
 51112  1  0  0  0  0
 52 53  2  0  0  0  0
 52113  1  0  0  0  0
 53 54  1  0  0  0  0
 53 55  1  0  0  0  0
 54114  1  0  0  0  0
 55 56  1  0  0  0  0
 55 57  2  0  0  0  0
 56115  1  0  0  0  0
 57 50  1  0  0  0  0
 57116  1  0  0  0  0
 58 59  1  0  0  0  0
 58 60  1  0  0  0  0
 58117  1  6  0  0  0
 59118  1  0  0  0  0
 60 46  1  0  0  0  0
 60119  1  0  0  0  0
 60120  1  0  0  0  0
 61 62  2  0  0  0  0
 62 63  1  0  0  0  0
 62 22  1  0  0  0  0
 63 64  1  0  0  0  0
 64 65  1  1  0  0  0
 64 73  1  0  0  0  0
 65 66  2  0  0  0  0
 66 67  1  0  0  0  0
 66121  1  0  0  0  0
 67 68  2  0  0  0  0
 67122  1  0  0  0  0
 68 69  1  0  0  0  0
 68 70  1  0  0  0  0
 69123  1  0  0  0  0
 70 71  1  0  0  0  0
 70 72  2  0  0  0  0
 71124  1  0  0  0  0
 72 65  1  0  0  0  0
 72125  1  0  0  0  0
 73 74  1  0  0  0  0
 74 75  2  0  0  0  0
 75 76  1  0  0  0  0
 75126  1  0  0  0  0
 76 77  1  0  0  0  0
 76 78  2  0  0  0  0
 77127  1  0  0  0  0
 78 79  1  0  0  0  0
 78128  1  0  0  0  0
 79 80  1  0  0  0  0
 79 81  2  0  0  0  0
 80129  1  0  0  0  0
 81 74  1  0  0  0  0
 82 81  1  0  0  0  0
 82 83  1  0  0  0  0
 82 61  1  0  0  0  0
 82130  1  1  0  0  0
 83 84  1  0  0  0  0
 83 64  1  0  0  0  0
 83131  1  1  0  0  0
 84132  1  0  0  0  0
M  END
>  <IDENTIFIER>
CNP0309495.5

>  <Energy>
1221.31

$$$$
