
 OpenBabel09102508553D

113119  0  0  0  0  0  0  0  0999 V2000
   11.0251   -1.0020   -2.2549 C   0  0  0  0  0  0  0  0  0  0  0  0
    9.8234   -1.1205   -1.3027 C   0  0  2  0  0  0  0  0  0  0  0  0
    8.8456   -0.1089   -1.5693 O   0  0  0  0  0  0  0  0  0  0  0  0
    8.7832    1.0031   -0.6696 C   0  0  1  0  0  0  0  0  0  0  0  0
    7.7459    0.7910    0.2813 O   0  0  0  0  0  0  0  0  0  0  0  0
    6.7931    1.8448    0.2970 C   0  0  1  0  0  0  0  0  0  0  0  0
    5.5455    1.4553   -0.5425 C   0  0  2  0  0  0  0  0  0  0  0  0
    5.7470    1.8182   -1.8866 O   0  0  0  0  0  0  0  0  0  0  0  0
    4.2368    2.0597    0.0508 C   0  0  2  0  0  0  0  0  0  0  0  0
    3.2429    2.0787   -0.9154 O   0  0  0  0  0  0  0  0  0  0  0  0
    1.9895    1.5450   -0.8726 C   0  0  0  0  0  0  0  0  0  0  0  0
    1.2633    1.5035   -2.0673 C   0  0  0  0  0  0  0  0  0  0  0  0
   -0.0314    0.9617   -2.1161 C   0  0  0  0  0  0  0  0  0  0  0  0
   -0.6957    0.9333   -3.2920 O   0  0  0  0  0  0  0  0  0  0  0  0
   -0.6231    0.4503   -0.9359 C   0  0  0  0  0  0  0  0  0  0  0  0
   -1.9066   -0.1335   -0.9006 C   0  0  0  0  0  0  0  0  0  0  0  0
   -2.5714   -0.2272   -1.9194 O   0  0  0  0  0  0  0  0  0  0  0  0
   -2.4286   -0.6235    0.3161 C   0  0  0  0  0  0  0  0  0  0  0  0
   -3.6312   -1.2685    0.3309 O   0  0  0  0  0  0  0  0  0  0  0  0
   -3.8632   -2.4023   -0.4400 C   0  0  2  0  0  0  0  0  0  0  0  0
   -4.7601   -2.0908   -1.5135 O   0  0  0  0  0  0  0  0  0  0  0  0
   -5.9270   -2.9051   -1.5971 C   0  0  2  0  0  0  0  0  0  0  0  0
   -6.8225   -2.3971   -2.7479 C   0  0  0  0  0  0  0  0  0  0  0  0
   -7.4788   -1.1829   -2.4455 O   0  0  0  0  0  0  0  0  0  0  0  0
   -6.6695   -0.0360   -2.6321 C   0  0  2  0  0  0  0  0  0  0  0  0
   -6.6107    0.6921   -1.4076 O   0  0  0  0  0  0  0  0  0  0  0  0
   -7.7099    1.5790   -1.1486 C   0  0  2  0  0  0  0  0  0  0  0  0
   -8.0752    1.4858    0.3402 C   0  0  0  0  0  0  0  0  0  0  0  0
   -6.9734    1.8261    1.1385 O   0  0  0  0  0  0  0  0  0  0  0  0
   -8.9709    1.3429   -2.0277 C   0  0  2  0  0  0  0  0  0  0  0  0
   -9.5331    0.0802   -1.7590 O   0  0  0  0  0  0  0  0  0  0  0  0
   -8.5749    1.4543   -3.5146 C   0  0  2  0  0  0  0  0  0  0  0  0
   -9.5878    0.9499   -4.3501 O   0  0  0  0  0  0  0  0  0  0  0  0
   -7.1864    0.8173   -3.8131 C   0  0  1  0  0  0  0  0  0  0  0  0
   -6.2442    1.8187   -4.1250 O   0  0  0  0  0  0  0  0  0  0  0  0
   -6.6656   -2.8832   -0.2386 C   0  0  1  0  0  0  0  0  0  0  0  0
   -7.9281   -3.4977   -0.2735 O   0  0  0  0  0  0  0  0  0  0  0  0
   -5.7796   -3.4890    0.8887 C   0  0  2  0  0  0  0  0  0  0  0  0
   -5.9540   -2.8208    2.1153 O   0  0  0  0  0  0  0  0  0  0  0  0
   -4.2933   -3.5899    0.4640 C   0  0  1  0  0  0  0  0  0  0  0  0
   -4.1345   -4.7799   -0.2732 O   0  0  0  0  0  0  0  0  0  0  0  0
   -1.6420   -0.4857    1.4915 C   0  0  0  0  0  0  0  0  0  0  0  0
   -2.0562   -0.9510    2.8504 C   0  0  0  0  0  0  0  0  0  0  0  0
   -3.3998   -1.1490    3.2139 C   0  0  0  0  0  0  0  0  0  0  0  0
   -3.7415   -1.5925    4.4942 C   0  0  0  0  0  0  0  0  0  0  0  0
   -2.7435   -1.8429    5.4427 C   0  0  0  0  0  0  0  0  0  0  0  0
   -3.0585   -2.2769    6.6796 O   0  0  0  0  0  0  0  0  0  0  0  0
   -1.4052   -1.6339    5.1040 C   0  0  0  0  0  0  0  0  0  0  0  0
   -1.0638   -1.1859    3.8245 C   0  0  0  0  0  0  0  0  0  0  0  0
   -0.4274    0.0510    1.3963 O   0  0  0  0  0  0  0  0  0  0  0  0
    0.1014    0.5084    0.2705 C   0  0  0  0  0  0  0  0  0  0  0  0
    1.3912    1.0482    0.3022 C   0  0  0  0  0  0  0  0  0  0  0  0
    4.4642    3.3698    0.5256 O   0  0  0  0  0  0  0  0  0  0  0  0
    5.3715    3.3960    1.6381 C   0  0  1  0  0  0  0  0  0  0  0  0
    4.6046    3.6037    2.9426 C   0  0  0  0  0  0  0  0  0  0  0  0
    6.3404    2.1601    1.7280 C   0  0  2  0  0  0  0  0  0  0  0  0
    7.4250    2.4254    2.5831 O   0  0  0  0  0  0  0  0  0  0  0  0
   10.1020    1.3150    0.0676 C   0  0  2  0  0  0  0  0  0  0  0  0
   11.0778    1.7011   -0.8632 O   0  0  0  0  0  0  0  0  0  0  0  0
   10.5685    0.0855    0.8743 C   0  0  2  0  0  0  0  0  0  0  0  0
   11.9317    0.1816    1.2062 O   0  0  0  0  0  0  0  0  0  0  0  0
   10.2127   -1.2671    0.1957 C   0  0  1  0  0  0  0  0  0  0  0  0
    9.1718   -1.8984    0.9104 O   0  0  0  0  0  0  0  0  0  0  0  0
   10.6633   -0.9932   -3.3052 H   0  0  0  0  0  0  0  0  0  0  0  0
   11.6899   -1.8827   -2.1292 H   0  0  0  0  0  0  0  0  0  0  0  0
   11.6450   -0.1082   -2.1049 H   0  0  0  0  0  0  0  0  0  0  0  0
    9.3633   -2.0934   -1.5854 H   0  0  0  0  0  0  0  0  0  0  0  0
    8.5927    1.8862   -1.3215 H   0  0  0  0  0  0  0  0  0  0  0  0
    7.2094    2.8198   -0.0526 H   0  0  0  0  0  0  0  0  0  0  0  0
    5.3848    0.3551   -0.5142 H   0  0  0  0  0  0  0  0  0  0  0  0
    5.7303    2.8103   -1.9305 H   0  0  0  0  0  0  0  0  0  0  0  0
    3.9312    1.4349    0.9145 H   0  0  0  0  0  0  0  0  0  0  0  0
    1.7156    1.8910   -2.9725 H   0  0  0  0  0  0  0  0  0  0  0  0
   -0.3144    1.2807   -4.1111 H   0  0  0  0  0  0  0  0  0  0  0  0
   -2.8997   -2.7158   -0.9060 H   0  0  0  0  0  0  0  0  0  0  0  0
   -5.6443   -3.9366   -1.8960 H   0  0  0  0  0  0  0  0  0  0  0  0
   -7.6239   -3.1486   -2.9123 H   0  0  0  0  0  0  0  0  0  0  0  0
   -6.2671   -2.3497   -3.7124 H   0  0  0  0  0  0  0  0  0  0  0  0
   -5.6223   -0.2992   -2.9049 H   0  0  0  0  0  0  0  0  0  0  0  0
   -7.3618    2.6172   -1.3423 H   0  0  0  0  0  0  0  0  0  0  0  0
   -8.4375    0.4641    0.6007 H   0  0  0  0  0  0  0  0  0  0  0  0
   -8.9014    2.1920    0.5710 H   0  0  0  0  0  0  0  0  0  0  0  0
   -6.4299    1.0018    1.2444 H   0  0  0  0  0  0  0  0  0  0  0  0
   -9.7483    2.1217   -1.8349 H   0  0  0  0  0  0  0  0  0  0  0  0
  -10.2231    0.2017   -1.0556 H   0  0  0  0  0  0  0  0  0  0  0  0
   -8.4785    2.5367   -3.7549 H   0  0  0  0  0  0  0  0  0  0  0  0
   -9.5742   -0.0400   -4.2755 H   0  0  0  0  0  0  0  0  0  0  0  0
   -7.2515    0.1748   -4.7184 H   0  0  0  0  0  0  0  0  0  0  0  0
   -6.1122    2.3872   -3.3231 H   0  0  0  0  0  0  0  0  0  0  0  0
   -6.8236   -1.7989   -0.0485 H   0  0  0  0  0  0  0  0  0  0  0  0
   -7.7922   -4.4249   -0.5998 H   0  0  0  0  0  0  0  0  0  0  0  0
   -6.0956   -4.5393    1.0764 H   0  0  0  0  0  0  0  0  0  0  0  0
   -6.0687   -1.8523    1.9466 H   0  0  0  0  0  0  0  0  0  0  0  0
   -3.6518   -3.6816    1.3726 H   0  0  0  0  0  0  0  0  0  0  0  0
   -3.1667   -5.0034   -0.2676 H   0  0  0  0  0  0  0  0  0  0  0  0
   -4.1948   -0.9375    2.5314 H   0  0  0  0  0  0  0  0  0  0  0  0
   -4.7846   -1.7355    4.7482 H   0  0  0  0  0  0  0  0  0  0  0  0
   -3.9742   -2.4350    6.9505 H   0  0  0  0  0  0  0  0  0  0  0  0
   -0.6261   -1.8199    5.8325 H   0  0  0  0  0  0  0  0  0  0  0  0
   -0.0158   -1.0399    3.5946 H   0  0  0  0  0  0  0  0  0  0  0  0
    1.8957    1.0707    1.2555 H   0  0  0  0  0  0  0  0  0  0  0  0
    6.0106    4.2906    1.4690 H   0  0  0  0  0  0  0  0  0  0  0  0
    3.9386    2.7373    3.1394 H   0  0  0  0  0  0  0  0  0  0  0  0
    3.9841    4.5222    2.8693 H   0  0  0  0  0  0  0  0  0  0  0  0
    5.3106    3.7211    3.7918 H   0  0  0  0  0  0  0  0  0  0  0  0
    5.8146    1.2630    2.1233 H   0  0  0  0  0  0  0  0  0  0  0  0
    7.9513    3.1675    2.1861 H   0  0  0  0  0  0  0  0  0  0  0  0
    9.9755    2.1605    0.7853 H   0  0  0  0  0  0  0  0  0  0  0  0
   10.9034    2.6509   -1.0954 H   0  0  0  0  0  0  0  0  0  0  0  0
   10.0137    0.0894    1.8397 H   0  0  0  0  0  0  0  0  0  0  0  0
   12.4550   -0.0083    0.3846 H   0  0  0  0  0  0  0  0  0  0  0  0
   11.0671   -1.9744    0.2809 H   0  0  0  0  0  0  0  0  0  0  0  0
    8.3035   -1.5093    0.6404 H   0  0  0  0  0  0  0  0  0  0  0  0
  1 64  1  0  0  0  0
  1 65  1  0  0  0  0
  1 66  1  0  0  0  0
  2  1  1  0  0  0  0
  2  3  1  0  0  0  0
  2 67  1  6  0  0  0
  3  4  1  0  0  0  0
  4  5  1  0  0  0  0
  4 58  1  0  0  0  0
  4 68  1  6  0  0  0
  6  5  1  0  0  0  0
  6  7  1  0  0  0  0
  6 69  1  6  0  0  0
  7  8  1  0  0  0  0
  7  9  1  0  0  0  0
  7 70  1  1  0  0  0
  8 71  1  0  0  0  0
  9 10  1  0  0  0  0
  9 53  1  0  0  0  0
  9 72  1  1  0  0  0
 10 11  1  0  0  0  0
 11 12  2  0  0  0  0
 12 13  1  0  0  0  0
 12 73  1  0  0  0  0
 13 14  1  0  0  0  0
 13 15  2  0  0  0  0
 14 74  1  0  0  0  0
 15 16  1  0  0  0  0
 16 17  2  0  0  0  0
 16 18  1  0  0  0  0
 18 19  1  0  0  0  0
 18 42  2  0  0  0  0
 20 19  1  0  0  0  0
 20 21  1  0  0  0  0
 20 75  1  6  0  0  0
 21 22  1  0  0  0  0
 22 23  1  0  0  0  0
 22 36  1  0  0  0  0
 22 76  1  6  0  0  0
 23 24  1  0  0  0  0
 23 77  1  0  0  0  0
 23 78  1  0  0  0  0
 25 24  1  0  0  0  0
 25 26  1  0  0  0  0
 25 79  1  6  0  0  0
 26 27  1  0  0  0  0
 27 28  1  0  0  0  0
 27 30  1  0  0  0  0
 27 80  1  6  0  0  0
 28 29  1  0  0  0  0
 28 81  1  0  0  0  0
 28 82  1  0  0  0  0
 29 83  1  0  0  0  0
 30 31  1  0  0  0  0
 30 32  1  0  0  0  0
 30 84  1  1  0  0  0
 31 85  1  0  0  0  0
 32 33  1  0  0  0  0
 32 34  1  0  0  0  0
 32 86  1  6  0  0  0
 33 87  1  0  0  0  0
 34 35  1  0  0  0  0
 34 25  1  0  0  0  0
 34 88  1  6  0  0  0
 35 89  1  0  0  0  0
 36 37  1  0  0  0  0
 36 38  1  0  0  0  0
 36 90  1  1  0  0  0
 37 91  1  0  0  0  0
 38 39  1  0  0  0  0
 38 40  1  0  0  0  0
 38 92  1  1  0  0  0
 39 93  1  0  0  0  0
 40 41  1  0  0  0  0
 40 20  1  0  0  0  0
 40 94  1  1  0  0  0
 41 95  1  0  0  0  0
 42 43  1  0  0  0  0
 42 50  1  0  0  0  0
 43 44  2  0  0  0  0
 44 45  1  0  0  0  0
 44 96  1  0  0  0  0
 45 46  2  0  0  0  0
 45 97  1  0  0  0  0
 46 47  1  0  0  0  0
 46 48  1  0  0  0  0
 47 98  1  0  0  0  0
 48 49  2  0  0  0  0
 48 99  1  0  0  0  0
 49 43  1  0  0  0  0
 49100  1  0  0  0  0
 50 51  1  0  0  0  0
 51 52  2  0  0  0  0
 51 15  1  0  0  0  0
 52 11  1  0  0  0  0
 52101  1  0  0  0  0
 53 54  1  0  0  0  0
 54 55  1  0  0  0  0
 54 56  1  0  0  0  0
 54102  1  6  0  0  0
 55103  1  0  0  0  0
 55104  1  0  0  0  0
 55105  1  0  0  0  0
 56 57  1  0  0  0  0
 56  6  1  0  0  0  0
 56106  1  1  0  0  0
 57107  1  0  0  0  0
 58 59  1  0  0  0  0
 58 60  1  0  0  0  0
 58108  1  1  0  0  0
 59109  1  0  0  0  0
 60 61  1  0  0  0  0
 60 62  1  0  0  0  0
 60110  1  1  0  0  0
 61111  1  0  0  0  0
 62 63  1  0  0  0  0
 62  2  1  0  0  0  0
 62112  1  1  0  0  0
 63113  1  0  0  0  0
M  END
>  <IDENTIFIER>
CNP0281961.1

>  <Energy>
1624.62

$$$$
