
 OpenBabel09112506343D

 61 62  0  0  0  0  0  0  0  0999 V2000
    7.2942   -0.3400    1.2478 C   0  0  0  0  0  0  0  0  0  0  0  0
    6.5308    0.9436    1.5903 C   0  0  0  0  0  0  0  0  0  0  0  0
    6.7843    2.0172    0.5259 C   0  0  0  0  0  0  0  0  0  0  0  0
    5.0571    0.6552    1.6940 C   0  0  0  0  0  0  0  0  0  0  0  0
    4.4674    0.8489    2.7486 O   0  0  0  0  0  0  0  0  0  0  0  0
    4.3984    0.1896    0.6012 O   0  0  0  0  0  0  0  0  0  0  0  0
    3.0485   -0.1083    0.4991 C   0  0  2  0  0  0  0  0  0  0  0  0
    2.8862   -1.6517    0.2367 C   0  0  2  0  0  0  0  0  0  0  0  0
    3.5103   -2.1578   -1.0639 C   0  0  0  0  0  0  0  0  0  0  0  0
    1.4462   -2.1425    0.3639 C   0  0  0  0  0  0  0  0  0  0  0  0
    1.1095   -2.7620    1.3678 O   0  0  0  0  0  0  0  0  0  0  0  0
    0.5372   -1.9017   -0.6210 O   0  0  0  0  0  0  0  0  0  0  0  0
   -0.8067   -1.6193   -0.4051 C   0  0  2  0  0  0  0  0  0  0  0  0
   -1.6705   -2.6969   -1.0622 C   0  0  0  0  0  0  0  0  0  0  0  0
   -1.1294   -0.2048   -0.9783 C   0  0  1  0  0  0  0  0  0  0  0  0
   -2.4619    0.2087   -0.5566 N   0  0  0  0  0  0  0  0  0  0  0  0
   -3.4672    0.5035   -1.4383 C   0  0  0  0  0  0  0  0  0  0  0  0
   -3.2128    0.4894   -2.6364 O   0  0  0  0  0  0  0  0  0  0  0  0
   -4.9010    0.7874   -1.0320 C   0  0  0  0  0  0  0  0  0  0  0  0
   -5.8157    1.0492   -2.0759 C   0  0  0  0  0  0  0  0  0  0  0  0
   -7.1672    1.2471   -1.8264 C   0  0  0  0  0  0  0  0  0  0  0  0
   -7.6576    1.1751   -0.5327 C   0  0  0  0  0  0  0  0  0  0  0  0
   -6.7970    0.9277    0.5517 C   0  0  0  0  0  0  0  0  0  0  0  0
   -7.3132    0.8458    1.8874 N   0  0  0  0  0  0  0  0  0  0  0  0
   -8.5256    0.3172    2.2134 C   0  0  0  0  0  0  0  0  0  0  0  0
   -9.2612   -0.1770    1.3736 O   0  0  0  0  0  0  0  0  0  0  0  0
   -5.4051    0.7519    0.3062 C   0  0  0  0  0  0  0  0  0  0  0  0
   -4.5718    0.4985    1.3345 O   0  0  0  0  0  0  0  0  0  0  0  0
   -0.0696    0.7661   -0.5278 C   0  0  0  0  0  0  0  0  0  0  0  0
   -0.3128    1.7513    0.1549 O   0  0  0  0  0  0  0  0  0  0  0  0
    1.1881    0.4325   -0.8873 O   0  0  0  0  0  0  0  0  0  0  0  0
    2.3922    0.9218   -0.4765 C   0  0  2  0  0  0  0  0  0  0  0  0
    3.2237    1.2345   -1.7260 C   0  0  0  0  0  0  0  0  0  0  0  0
    8.3844   -0.1328    1.1893 H   0  0  0  0  0  0  0  0  0  0  0  0
    6.9583   -0.7519    0.2713 H   0  0  0  0  0  0  0  0  0  0  0  0
    7.1259   -1.1049    2.0355 H   0  0  0  0  0  0  0  0  0  0  0  0
    6.9026    1.3237    2.5675 H   0  0  0  0  0  0  0  0  0  0  0  0
    6.4464    1.6711   -0.4740 H   0  0  0  0  0  0  0  0  0  0  0  0
    7.8688    2.2511    0.4678 H   0  0  0  0  0  0  0  0  0  0  0  0
    6.2394    2.9500    0.7854 H   0  0  0  0  0  0  0  0  0  0  0  0
    2.5388    0.0488    1.4788 H   0  0  0  0  0  0  0  0  0  0  0  0
    3.4520   -2.1276    1.0722 H   0  0  0  0  0  0  0  0  0  0  0  0
    2.9539   -1.7794   -1.9436 H   0  0  0  0  0  0  0  0  0  0  0  0
    3.4680   -3.2679   -1.0902 H   0  0  0  0  0  0  0  0  0  0  0  0
    4.5748   -1.8487   -1.1281 H   0  0  0  0  0  0  0  0  0  0  0  0
   -1.0176   -1.6110    0.6899 H   0  0  0  0  0  0  0  0  0  0  0  0
   -1.4831   -2.7256   -2.1571 H   0  0  0  0  0  0  0  0  0  0  0  0
   -2.7484   -2.4947   -0.8862 H   0  0  0  0  0  0  0  0  0  0  0  0
   -1.4238   -3.6909   -0.6332 H   0  0  0  0  0  0  0  0  0  0  0  0
   -1.0438   -0.2458   -2.0867 H   0  0  0  0  0  0  0  0  0  0  0  0
   -2.5998    0.2321    0.4551 H   0  0  0  0  0  0  0  0  0  0  0  0
   -5.4915    1.0915   -3.1083 H   0  0  0  0  0  0  0  0  0  0  0  0
   -7.8426    1.4472   -2.6496 H   0  0  0  0  0  0  0  0  0  0  0  0
   -8.7161    1.3378   -0.3857 H   0  0  0  0  0  0  0  0  0  0  0  0
   -6.7257    1.1400    2.6767 H   0  0  0  0  0  0  0  0  0  0  0  0
   -8.8217    0.2729    3.2559 H   0  0  0  0  0  0  0  0  0  0  0  0
   -4.8190    0.4078    2.2613 H   0  0  0  0  0  0  0  0  0  0  0  0
    2.2763    1.8836    0.0741 H   0  0  0  0  0  0  0  0  0  0  0  0
    3.3955    0.3370   -2.3467 H   0  0  0  0  0  0  0  0  0  0  0  0
    4.2042    1.6702   -1.4454 H   0  0  0  0  0  0  0  0  0  0  0  0
    2.6853    1.9821   -2.3468 H   0  0  0  0  0  0  0  0  0  0  0  0
  1  2  1  0  0  0  0
  1 34  1  0  0  0  0
  1 35  1  0  0  0  0
  1 36  1  0  0  0  0
  2  3  1  0  0  0  0
  2  4  1  0  0  0  0
  2 37  1  0  0  0  0
  3 38  1  0  0  0  0
  3 39  1  0  0  0  0
  3 40  1  0  0  0  0
  4  5  2  0  0  0  0
  4  6  1  0  0  0  0
  7  6  1  0  0  0  0
  7  8  1  0  0  0  0
  7 41  1  1  0  0  0
  8  9  1  0  0  0  0
  8 10  1  0  0  0  0
  8 42  1  1  0  0  0
  9 43  1  0  0  0  0
  9 44  1  0  0  0  0
  9 45  1  0  0  0  0
 10 11  2  0  0  0  0
 10 12  1  0  0  0  0
 12 13  1  0  0  0  0
 13 14  1  0  0  0  0
 13 15  1  0  0  0  0
 13 46  1  1  0  0  0
 14 47  1  0  0  0  0
 14 48  1  0  0  0  0
 14 49  1  0  0  0  0
 15 16  1  0  0  0  0
 15 29  1  0  0  0  0
 15 50  1  6  0  0  0
 16 17  1  0  0  0  0
 16 51  1  0  0  0  0
 17 18  2  0  0  0  0
 17 19  1  0  0  0  0
 19 20  2  0  0  0  0
 20 21  1  0  0  0  0
 20 52  1  0  0  0  0
 21 22  2  0  0  0  0
 21 53  1  0  0  0  0
 22 23  1  0  0  0  0
 22 54  1  0  0  0  0
 23 24  1  0  0  0  0
 23 27  2  0  0  0  0
 24 25  1  0  0  0  0
 24 55  1  0  0  0  0
 25 26  2  0  0  0  0
 25 56  1  0  0  0  0
 27 28  1  0  0  0  0
 27 19  1  0  0  0  0
 28 57  1  0  0  0  0
 29 30  2  0  0  0  0
 29 31  1  0  0  0  0
 31 32  1  0  0  0  0
 32 33  1  0  0  0  0
 32  7  1  0  0  0  0
 32 58  1  1  0  0  0
 33 59  1  0  0  0  0
 33 60  1  0  0  0  0
 33 61  1  0  0  0  0
M  END
>  <IDENTIFIER>
CNP0405924.1

>  <Energy>
453.5

$$$$
