
 OpenBabel09132512113D

116126  0  0  0  0  0  0  0  0999 V2000
   -3.6672   -4.2699   -1.5479 C   0  0  0  0  0  0  0  0  0  0  0  0
   -4.3922   -3.2853   -1.0051 C   0  0  0  0  0  0  0  0  0  0  0  0
   -3.9915   -2.4522    0.1269 C   0  0  0  0  0  0  0  0  0  0  0  0
   -3.0199   -2.6564    0.8417 O   0  0  0  0  0  0  0  0  0  0  0  0
   -5.0652   -1.4230    0.3471 C   0  0  2  0  0  0  0  0  0  0  0  0
   -6.3123   -2.3030   -0.0597 C   0  0  2  0  0  0  0  0  0  0  0  0
   -6.6057   -3.3034    0.8988 O   0  0  0  0  0  0  0  0  0  0  0  0
   -5.8043   -2.9052   -1.3987 C   0  0  1  0  0  0  0  0  0  0  0  0
   -5.7858   -1.7898   -2.4921 C   0  0  0  0  0  0  0  0  0  0  0  0
   -5.7727   -0.3537   -1.8959 C   0  0  0  0  0  0  0  0  0  0  0  0
   -4.7975   -0.2557   -0.7132 C   0  0  1  0  0  0  0  0  0  0  0  0
   -4.5705    1.1040    0.0912 C   0  0  1  0  0  0  0  0  0  0  0  0
   -3.4268    0.7682    1.0759 C   0  0  2  0  0  0  0  0  0  0  0  0
   -2.3024    0.3324    0.3536 O   0  0  0  0  0  0  0  0  0  0  0  0
   -1.9068    1.1567   -0.7607 C   0  0  2  0  0  0  0  0  0  0  0  0
   -0.5168    1.7632   -0.4871 C   0  0  1  0  0  0  0  0  0  0  0  0
   -0.5653    2.7198    0.7108 C   0  0  0  0  0  0  0  0  0  0  0  0
    0.4939    0.5892   -0.3434 C   0  0  0  0  0  0  0  0  0  0  0  0
    1.9658    0.9940   -0.0958 C   0  0  2  0  0  0  0  0  0  0  0  0
    2.8908   -0.1393   -0.4544 C   0  0  0  0  0  0  0  0  0  0  0  0
    2.9111   -0.6681   -1.5539 O   0  0  0  0  0  0  0  0  0  0  0  0
    3.7962   -0.4996    0.6844 C   0  0  2  0  0  0  0  0  0  0  0  0
    2.8187   -0.1603    1.8776 C   0  0  2  0  0  0  0  0  0  0  0  0
    1.7443   -1.0648    2.0450 O   0  0  0  0  0  0  0  0  0  0  0  0
    2.3008    1.2245    1.4198 C   0  0  1  0  0  0  0  0  0  0  0  0
    3.4391    2.2778    1.6010 C   0  0  0  0  0  0  0  0  0  0  0  0
    4.8502    1.6631    1.6703 C   0  0  0  0  0  0  0  0  0  0  0  0
    5.0125    0.5449    0.6230 C   0  0  1  0  0  0  0  0  0  0  0  0
    6.3743   -0.2554    0.6389 C   0  0  1  0  0  0  0  0  0  0  0  0
    6.3260   -1.1787    1.9098 C   0  0  0  0  0  0  0  0  0  0  0  0
    5.1598   -2.0026    1.9653 O   0  0  0  0  0  0  0  0  0  0  0  0
    4.3978   -1.9582    0.7606 C   0  0  1  0  0  0  0  0  0  0  0  0
    3.3852   -2.9300    0.8318 O   0  0  0  0  0  0  0  0  0  0  0  0
    5.3546   -2.3234   -0.4192 C   0  0  1  0  0  0  0  0  0  0  0  0
    4.6456   -2.7748   -1.5551 O   0  0  0  0  0  0  0  0  0  0  0  0
    6.3306   -1.1306   -0.6978 C   0  0  2  0  0  0  0  0  0  0  0  0
    7.7293   -1.4813   -1.3927 C   0  0  0  0  0  0  0  0  0  0  0  0
    8.1264   -0.4279   -2.4702 C   0  0  0  0  0  0  0  0  0  0  0  0
    7.6983   -2.8365   -2.1473 C   0  0  0  0  0  0  0  0  0  0  0  0
    8.8106   -1.5353   -0.3042 C   0  0  0  0  0  0  0  0  0  0  0  0
    8.9607   -0.2012    0.4733 C   0  0  0  0  0  0  0  0  0  0  0  0
    7.6483    0.6291    0.6218 C   0  0  2  0  0  0  0  0  0  0  0  0
    7.7573    1.5105    1.7120 O   0  0  0  0  0  0  0  0  0  0  0  0
   -2.8077    2.1500   -1.2839 O   0  0  0  0  0  0  0  0  0  0  0  0
   -4.0432    2.3409   -0.6293 C   0  0  1  0  0  0  0  0  0  0  0  0
   -5.0727    3.0230   -1.5546 C   0  0  0  0  0  0  0  0  0  0  0  0
   -6.5481    2.7902   -1.1430 C   0  0  0  0  0  0  0  0  0  0  0  0
   -6.8212    2.5614    0.3730 C   0  0  0  0  0  0  0  0  0  0  0  0
   -6.7265    3.9347    1.0880 C   0  0  0  0  0  0  0  0  0  0  0  0
   -8.2749    2.0616    0.5298 C   0  0  0  0  0  0  0  0  0  0  0  0
   -5.7705    1.5306    0.9955 C   0  0  1  0  0  0  0  0  0  0  0  0
   -6.2268    0.2952    1.8318 C   0  0  2  0  0  0  0  0  0  0  0  0
   -6.5580    0.6798    3.1452 O   0  0  0  0  0  0  0  0  0  0  0  0
   -5.0941   -0.8015    1.7828 C   0  0  1  0  0  0  0  0  0  0  0  0
   -5.3539   -1.8169    2.7197 O   0  0  0  0  0  0  0  0  0  0  0  0
   -3.8081   -0.2247    2.0417 O   0  0  0  0  0  0  0  0  0  0  0  0
   -2.6731   -4.4918   -1.1728 H   0  0  0  0  0  0  0  0  0  0  0  0
   -4.0662   -4.8588   -2.3649 H   0  0  0  0  0  0  0  0  0  0  0  0
   -7.2644   -1.7515   -0.1930 H   0  0  0  0  0  0  0  0  0  0  0  0
   -5.8952   -3.9937    0.9134 H   0  0  0  0  0  0  0  0  0  0  0  0
   -6.3823   -3.7881   -1.7477 H   0  0  0  0  0  0  0  0  0  0  0  0
   -6.7081   -1.8515   -3.1092 H   0  0  0  0  0  0  0  0  0  0  0  0
   -4.9253   -1.9667   -3.1745 H   0  0  0  0  0  0  0  0  0  0  0  0
   -6.7904   -0.1578   -1.5153 H   0  0  0  0  0  0  0  0  0  0  0  0
   -5.5446    0.3741   -2.7024 H   0  0  0  0  0  0  0  0  0  0  0  0
   -3.8449   -0.4649   -1.2408 H   0  0  0  0  0  0  0  0  0  0  0  0
   -3.1282    1.6560    1.6783 H   0  0  0  0  0  0  0  0  0  0  0  0
   -1.7831    0.4561   -1.6149 H   0  0  0  0  0  0  0  0  0  0  0  0
   -0.2147    2.3597   -1.3773 H   0  0  0  0  0  0  0  0  0  0  0  0
   -0.8193    2.1774    1.6449 H   0  0  0  0  0  0  0  0  0  0  0  0
   -1.3248    3.5109    0.5376 H   0  0  0  0  0  0  0  0  0  0  0  0
    0.4099    3.2338    0.8333 H   0  0  0  0  0  0  0  0  0  0  0  0
    0.4559    0.0645   -1.3246 H   0  0  0  0  0  0  0  0  0  0  0  0
    0.1449   -0.1257    0.4220 H   0  0  0  0  0  0  0  0  0  0  0  0
    2.1757    1.8714   -0.7464 H   0  0  0  0  0  0  0  0  0  0  0  0
    3.3270   -0.1380    2.8629 H   0  0  0  0  0  0  0  0  0  0  0  0
    1.5564   -1.5486    1.2050 H   0  0  0  0  0  0  0  0  0  0  0  0
    1.4345    1.6013    1.9944 H   0  0  0  0  0  0  0  0  0  0  0  0
    3.3045    2.8137    2.5658 H   0  0  0  0  0  0  0  0  0  0  0  0
    3.3570    3.0470    0.8029 H   0  0  0  0  0  0  0  0  0  0  0  0
    4.9903    1.2273    2.6794 H   0  0  0  0  0  0  0  0  0  0  0  0
    5.5934    2.4777    1.5656 H   0  0  0  0  0  0  0  0  0  0  0  0
    4.9851    1.1126   -0.3366 H   0  0  0  0  0  0  0  0  0  0  0  0
    6.3287   -0.5591    2.8266 H   0  0  0  0  0  0  0  0  0  0  0  0
    7.2097   -1.8325    1.9856 H   0  0  0  0  0  0  0  0  0  0  0  0
    3.8030   -3.7778    1.1369 H   0  0  0  0  0  0  0  0  0  0  0  0
    5.9320   -3.1901   -0.0336 H   0  0  0  0  0  0  0  0  0  0  0  0
    4.7883   -2.1660   -2.3225 H   0  0  0  0  0  0  0  0  0  0  0  0
    5.8257   -0.5056   -1.4652 H   0  0  0  0  0  0  0  0  0  0  0  0
    7.3645   -0.3996   -3.2793 H   0  0  0  0  0  0  0  0  0  0  0  0
    9.1018   -0.6944   -2.9325 H   0  0  0  0  0  0  0  0  0  0  0  0
    8.2367    0.6009   -2.0986 H   0  0  0  0  0  0  0  0  0  0  0  0
    6.9359   -2.8282   -2.9537 H   0  0  0  0  0  0  0  0  0  0  0  0
    7.4987   -3.6904   -1.4704 H   0  0  0  0  0  0  0  0  0  0  0  0
    8.6831   -3.0410   -2.6214 H   0  0  0  0  0  0  0  0  0  0  0  0
    9.8064   -1.8406   -0.6937 H   0  0  0  0  0  0  0  0  0  0  0  0
    8.5069   -2.3407    0.3921 H   0  0  0  0  0  0  0  0  0  0  0  0
    9.6991    0.4660   -0.0214 H   0  0  0  0  0  0  0  0  0  0  0  0
    9.3872   -0.4773    1.4619 H   0  0  0  0  0  0  0  0  0  0  0  0
    7.5257    1.2678   -0.2705 H   0  0  0  0  0  0  0  0  0  0  0  0
    7.9447    0.9758    2.5249 H   0  0  0  0  0  0  0  0  0  0  0  0
   -3.8637    3.1064    0.1628 H   0  0  0  0  0  0  0  0  0  0  0  0
   -4.9675    2.6746   -2.6047 H   0  0  0  0  0  0  0  0  0  0  0  0
   -4.8345    4.1101   -1.5604 H   0  0  0  0  0  0  0  0  0  0  0  0
   -6.8756    1.8912   -1.6606 H   0  0  0  0  0  0  0  0  0  0  0  0
   -7.1996    3.5747   -1.5870 H   0  0  0  0  0  0  0  0  0  0  0  0
   -7.4552    4.6566    0.6589 H   0  0  0  0  0  0  0  0  0  0  0  0
   -5.7124    4.3740    0.9843 H   0  0  0  0  0  0  0  0  0  0  0  0
   -6.9493    3.8244    2.1717 H   0  0  0  0  0  0  0  0  0  0  0  0
   -8.9915    2.7936    0.0973 H   0  0  0  0  0  0  0  0  0  0  0  0
   -8.5325    1.9215    1.6010 H   0  0  0  0  0  0  0  0  0  0  0  0
   -8.4214    1.0976   -0.0020 H   0  0  0  0  0  0  0  0  0  0  0  0
   -5.2656    2.1629    1.7615 H   0  0  0  0  0  0  0  0  0  0  0  0
   -7.1257   -0.1762    1.3977 H   0  0  0  0  0  0  0  0  0  0  0  0
   -5.7143    0.9118    3.6136 H   0  0  0  0  0  0  0  0  0  0  0  0
   -5.0942   -1.4704    3.6129 H   0  0  0  0  0  0  0  0  0  0  0  0
  1  2  2  0  0  0  0
  1 57  1  0  0  0  0
  1 58  1  0  0  0  0
  2  3  1  0  0  0  0
  3  4  2  0  0  0  0
  5  3  1  6  0  0  0
  5  6  1  0  0  0  0
  6  7  1  0  0  0  0
  6  8  1  0  0  0  0
  6 59  1  6  0  0  0
  7 60  1  0  0  0  0
  8  9  1  0  0  0  0
  8  2  1  0  0  0  0
  8 61  1  6  0  0  0
  9 10  1  0  0  0  0
  9 62  1  0  0  0  0
  9 63  1  0  0  0  0
 10 64  1  0  0  0  0
 10 65  1  0  0  0  0
 11 10  1  0  0  0  0
 11 12  1  0  0  0  0
 11  5  1  0  0  0  0
 11 66  1  6  0  0  0
 12 13  1  0  0  0  0
 12 45  1  0  0  0  0
 13 14  1  0  0  0  0
 13 67  1  0  0  0  0
 15 14  1  0  0  0  0
 15 16  1  0  0  0  0
 15 44  1  0  0  0  0
 15 68  1  0  0  0  0
 16 17  1  0  0  0  0
 16 18  1  0  0  0  0
 16 69  1  0  0  0  0
 17 70  1  0  0  0  0
 17 71  1  0  0  0  0
 17 72  1  0  0  0  0
 18 73  1  0  0  0  0
 18 74  1  0  0  0  0
 19 18  1  0  0  0  0
 19 20  1  0  0  0  0
 19 75  1  0  0  0  0
 20 21  2  0  0  0  0
 22 20  1  0  0  0  0
 22 23  1  0  0  0  0
 23 24  1  0  0  0  0
 23 25  1  0  0  0  0
 23 76  1  0  0  0  0
 24 77  1  0  0  0  0
 25 26  1  0  0  0  0
 25 19  1  0  0  0  0
 25 78  1  0  0  0  0
 26 27  1  0  0  0  0
 26 79  1  0  0  0  0
 26 80  1  0  0  0  0
 27 81  1  0  0  0  0
 27 82  1  0  0  0  0
 28 27  1  0  0  0  0
 28 29  1  0  0  0  0
 28 22  1  0  0  0  0
 28 83  1  0  0  0  0
 29 30  1  0  0  0  0
 30 31  1  0  0  0  0
 30 84  1  0  0  0  0
 30 85  1  0  0  0  0
 31 32  1  0  0  0  0
 32 33  1  0  0  0  0
 32 34  1  0  0  0  0
 32 22  1  0  0  0  0
 33 86  1  0  0  0  0
 34 35  1  0  0  0  0
 34 36  1  0  0  0  0
 34 87  1  0  0  0  0
 35 88  1  0  0  0  0
 36 37  1  0  0  0  0
 36 29  1  0  0  0  0
 36 89  1  0  0  0  0
 37 38  1  0  0  0  0
 37 39  1  0  0  0  0
 37 40  1  0  0  0  0
 38 90  1  0  0  0  0
 38 91  1  0  0  0  0
 38 92  1  0  0  0  0
 39 93  1  0  0  0  0
 39 94  1  0  0  0  0
 39 95  1  0  0  0  0
 40 41  1  0  0  0  0
 40 96  1  0  0  0  0
 40 97  1  0  0  0  0
 41 42  1  0  0  0  0
 41 98  1  0  0  0  0
 41 99  1  0  0  0  0
 42 43  1  0  0  0  0
 42 29  1  0  0  0  0
 42100  1  0  0  0  0
 43101  1  0  0  0  0
 44 45  1  0  0  0  0
 45 46  1  0  0  0  0
 45102  1  0  0  0  0
 46 47  1  0  0  0  0
 46103  1  0  0  0  0
 46104  1  0  0  0  0
 47 48  1  0  0  0  0
 47105  1  0  0  0  0
 47106  1  0  0  0  0
 48 49  1  0  0  0  0
 48 50  1  0  0  0  0
 49107  1  0  0  0  0
 49108  1  0  0  0  0
 49109  1  0  0  0  0
 50110  1  0  0  0  0
 50111  1  0  0  0  0
 50112  1  0  0  0  0
 51 48  1  0  0  0  0
 51 52  1  0  0  0  0
 51 12  1  0  0  0  0
 51113  1  0  0  0  0
 52 53  1  0  0  0  0
 52 54  1  0  0  0  0
 52114  1  0  0  0  0
 53115  1  0  0  0  0
 54 55  1  0  0  0  0
 54 56  1  0  0  0  0
 54  5  1  0  0  0  0
 55116  1  0  0  0  0
 56 13  1  0  0  0  0
M  END
>  <IDENTIFIER>
CNP0324082.1

>  <Energy>
2401.44

$$$$
