
 OpenBabel09062507332D

 82 86  0  0  0  0  0  0  0  0999 V2000
   -7.0125   -5.8643    0.0000 C   0  0  0  0  0  0  0  0  0  0  0  0
   -5.5453   -5.5524    0.0000 C   0  0  0  0  0  0  0  0  0  0  0  0
   -5.0817   -4.1258    0.0000 C   0  0  0  0  0  0  0  0  0  0  0  0
   -6.0854   -3.0111    0.0000 C   0  0  1  0  0  0  0  0  0  0  0  0
   -7.0891   -1.8964   -0.0000 O   0  0  0  0  0  0  0  0  0  0  0  0
   -4.9707   -2.0074    0.0000 C   0  0  0  0  0  0  0  0  0  0  0  0
   -3.8560   -1.0037    0.0000 C   0  0  1  0  0  0  0  0  0  0  0  0
   -2.8523   -2.1184   -0.0000 C   0  0  0  0  0  0  0  0  0  0  0  0
   -2.7413    0.0000    0.0000 C   0  0  1  0  0  0  0  0  0  0  0  0
   -3.8560    1.0037    0.0000 C   0  0  0  0  0  0  0  0  0  0  0  0
   -1.6067    1.1352    0.0248 C   0  0  0  0  0  0  0  0  0  0  0  0
   -0.4347    0.6204   -0.7066 C   0  0  1  0  0  0  0  0  0  0  0  0
    0.3021    0.0449    0.2818 O   0  0  0  0  0  0  0  0  0  0  0  0
   -0.4225   -0.8616   -0.5402 C   0  0  2  0  0  0  0  0  0  0  0  0
   -1.8596   -1.2135    0.0000 C   0  0  1  0  0  0  0  0  0  0  0  0
   -3.3268   -1.5254    0.0000 C   0  0  0  0  0  0  0  0  0  0  0  0
   -1.2303   -1.4211    1.6473 C   0  0  0  0  0  0  0  0  0  0  0  0
   -0.3543   -2.7158    1.6386 C   0  0  0  0  0  0  0  0  0  0  0  0
   -0.0183   -3.0884    0.1629 C   0  0  0  0  0  0  0  0  0  0  0  0
   -0.4067   -4.1692   -0.2816 O   0  0  0  0  0  0  0  0  0  0  0  0
    0.6476   -2.0211   -0.7158 C   0  0  1  0  0  0  0  0  0  0  0  0
    1.3029   -1.3345   -1.9339 C   0  0  0  0  0  0  0  0  0  0  0  0
    2.4582   -0.5324   -1.1746 C   0  0  0  0  0  0  0  0  0  0  0  0
    2.9041   -1.4239    0.1724 C   0  0  1  0  0  0  0  0  0  0  0  0
    4.4791   -2.3638    0.0000 C   0  0  0  0  0  0  0  0  0  0  0  0
    5.9754   -2.4684    0.0000 C   0  0  0  0  0  0  0  0  0  0  0  0
    4.8420   -0.9084    0.0000 C   0  0  0  0  0  0  0  0  0  0  0  0
    4.7854   -3.3258   -1.9191 C   0  0  2  0  0  0  0  0  0  0  0  0
    6.0521   -3.8844   -2.1926 O   0  0  0  0  0  0  0  0  0  0  0  0
    3.5813   -4.6242   -1.9168 C   0  0  0  0  0  0  0  0  0  0  0  0
    2.0456   -4.3187   -1.0262 C   0  0  0  0  0  0  0  0  0  0  0  0
    1.8952   -2.6354    0.0000 C   0  0  2  0  0  0  0  0  0  0  0  0
    3.3218   -3.0989    0.0000 C   0  0  0  0  0  0  0  0  0  0  0  0
   -4.5606   -6.6817   -0.0237 C   0  0  0  0  0  0  0  0  0  0  0  0
   -3.3615   -6.4513   -0.0139 O   0  0  0  0  0  0  0  0  0  0  0  0
   -4.9665   -7.9712   -0.0631 O   0  0  0  0  0  0  0  0  0  0  0  0
   -7.4719   -4.8836    0.1544 H   0  0  0  0  0  0  0  0  0  0  0  0
   -7.0063   -6.3940    0.9765 H   0  0  0  0  0  0  0  0  0  0  0  0
   -8.0591   -6.0868    0.0000 H   0  0  0  0  0  0  0  0  0  0  0  0
   -4.0462   -4.1706    0.0024 H   0  0  0  0  0  0  0  0  0  0  0  0
   -6.3207   -3.3397   -1.0420 H   0  0  0  0  0  0  0  0  0  0  0  0
   -7.2653   -1.5626   -0.9254 H   0  0  0  0  0  0  0  0  0  0  0  0
   -5.2491   -2.3208    1.3345 H   0  0  0  0  0  0  0  0  0  0  0  0
   -5.6041   -0.9676    0.8175 H   0  0  0  0  0  0  0  0  0  0  0  0
   -4.7425   -0.4781   -1.1277 H   0  0  0  0  0  0  0  0  0  0  0  0
   -2.8318   -3.0807    1.0990 H   0  0  0  0  0  0  0  0  0  0  0  0
   -2.6664   -3.1555   -0.9580 H   0  0  0  0  0  0  0  0  0  0  0  0
   -2.1363   -2.9136    0.0000 H   0  0  0  0  0  0  0  0  0  0  0  0
   -3.7412    1.4763   -1.0128 H   0  0  0  0  0  0  0  0  0  0  0  0
   -3.7072    1.5091    0.9908 H   0  0  0  0  0  0  0  0  0  0  0  0
   -4.6512    1.7197    0.0000 H   0  0  0  0  0  0  0  0  0  0  0  0
   -1.3729    1.4725    1.0637 H   0  0  0  0  0  0  0  0  0  0  0  0
   -1.8158    2.0802   -0.5367 H   0  0  0  0  0  0  0  0  0  0  0  0
    0.2615    1.2865   -1.2540 H   0  0  0  0  0  0  0  0  0  0  0  0
   -3.2002   -1.4348   -1.8028 H   0  0  0  0  0  0  0  0  0  0  0  0
   -3.2002   -1.4348   -1.8028 H   0  0  0  0  0  0  0  0  0  0  0  0
   -4.3734   -1.7479    0.0000 H   0  0  0  0  0  0  0  0  0  0  0  0
   -2.0283   -1.5261    2.4184 H   0  0  0  0  0  0  0  0  0  0  0  0
   -0.6789   -0.5770    2.1071 H   0  0  0  0  0  0  0  0  0  0  0  0
    0.5441   -2.5662    2.2745 H   0  0  0  0  0  0  0  0  0  0  0  0
   -0.9161   -3.5658    2.0822 H   0  0  0  0  0  0  0  0  0  0  0  0
    0.7054   -0.7172   -2.6475 H   0  0  0  0  0  0  0  0  0  0  0  0
    1.6663   -2.0937   -2.6584 H   0  0  0  0  0  0  0  0  0  0  0  0
    2.2181    0.4842   -0.8270 H   0  0  0  0  0  0  0  0  0  0  0  0
    3.2249   -0.3375   -1.9472 H   0  0  0  0  0  0  0  0  0  0  0  0
    2.6574   -0.8839    1.1303 H   0  0  0  0  0  0  0  0  0  0  0  0
    6.5338   -2.0174   -0.8966 H   0  0  0  0  0  0  0  0  0  0  0  0
    6.2398   -2.4156    1.0979 H   0  0  0  0  0  0  0  0  0  0  0  0
    7.0428   -2.5430    0.0000 H   0  0  0  0  0  0  0  0  0  0  0  0
    5.0619   -0.6000   -1.0654 H   0  0  0  0  0  0  0  0  0  0  0  0
    4.9919   -0.6135    1.0893 H   0  0  0  0  0  0  0  0  0  0  0  0
    5.1009    0.1298    0.0000 H   0  0  0  0  0  0  0  0  0  0  0  0
    4.5625   -2.5927   -2.7308 H   0  0  0  0  0  0  0  0  0  0  0  0
    6.1894   -4.6181   -1.5402 H   0  0  0  0  0  0  0  0  0  0  0  0
    3.4360   -5.1219   -2.8977 H   0  0  0  0  0  0  0  0  0  0  0  0
    4.0552   -5.4023   -1.2796 H   0  0  0  0  0  0  0  0  0  0  0  0
    1.7523   -5.2348   -0.4628 H   0  0  0  0  0  0  0  0  0  0  0  0
    1.3223   -4.2522   -1.8693 H   0  0  0  0  0  0  0  0  0  0  0  0
    3.0957   -3.8601    0.8956 H   0  0  0  0  0  0  0  0  0  0  0  0
    2.9947   -2.6473   -1.3655 H   0  0  0  0  0  0  0  0  0  0  0  0
    4.3394   -3.4295   -0.0000 H   0  0  0  0  0  0  0  0  0  0  0  0
   -5.8966   -8.2326   -0.0868 H   0  0  0  0  0  0  0  0  0  0  0  0
  1  2  1  0  0  0  0
  1 37  1  0  0  0  0
  1 38  1  0  0  0  0
  1 39  1  0  0  0  0
  2  3  2  0  0  0  0
  2 34  1  0  0  0  0
  3  4  1  0  0  0  0
  3 40  1  0  0  0  0
  4  5  1  0  0  0  0
  4  6  1  0  0  0  0
  4 41  1  6  0  0  0
  5 42  1  0  0  0  0
  6  7  1  0  0  0  0
  6 43  1  0  0  0  0
  6 44  1  0  0  0  0
  7  8  1  0  0  0  0
  7  9  1  0  0  0  0
  7 45  1  1  0  0  0
  8 46  1  0  0  0  0
  8 47  1  0  0  0  0
  8 48  1  0  0  0  0
  9 10  1  6  0  0  0
  9 11  1  0  0  0  0
 10 49  1  0  0  0  0
 10 50  1  0  0  0  0
 10 51  1  0  0  0  0
 11 52  1  0  0  0  0
 11 53  1  0  0  0  0
 12 11  1  0  0  0  0
 12 13  1  0  0  0  0
 12 54  1  6  0  0  0
 14 13  1  6  0  0  0
 14 15  1  0  0  0  0
 14 12  1  0  0  0  0
 15 16  1  1  0  0  0
 15 17  1  0  0  0  0
 15  9  1  0  0  0  0
 16 55  1  0  0  0  0
 16 56  1  0  0  0  0
 16 57  1  0  0  0  0
 17 18  1  0  0  0  0
 17 58  1  0  0  0  0
 17 59  1  0  0  0  0
 18 19  1  0  0  0  0
 18 60  1  0  0  0  0
 18 61  1  0  0  0  0
 19 20  2  0  0  0  0
 21 19  1  6  0  0  0
 21 22  1  0  0  0  0
 21 14  1  0  0  0  0
 22 23  1  0  0  0  0
 22 62  1  0  0  0  0
 22 63  1  0  0  0  0
 23 64  1  0  0  0  0
 23 65  1  0  0  0  0
 24 23  1  0  0  0  0
 24 25  1  0  0  0  0
 24 66  1  6  0  0  0
 25 26  1  0  0  0  0
 25 27  1  0  0  0  0
 25 28  1  0  0  0  0
 26 67  1  0  0  0  0
 26 68  1  0  0  0  0
 26 69  1  0  0  0  0
 27 70  1  0  0  0  0
 27 71  1  0  0  0  0
 27 72  1  0  0  0  0
 28 29  1  0  0  0  0
 28 30  1  0  0  0  0
 28 73  1  1  0  0  0
 29 74  1  0  0  0  0
 30 31  1  0  0  0  0
 30 75  1  0  0  0  0
 30 76  1  0  0  0  0
 31 32  1  0  0  0  0
 31 77  1  0  0  0  0
 31 78  1  0  0  0  0
 32 33  1  1  0  0  0
 32 21  1  0  0  0  0
 32 24  1  0  0  0  0
 33 79  1  0  0  0  0
 33 80  1  0  0  0  0
 33 81  1  0  0  0  0
 34 35  2  0  0  0  0
 34 36  1  0  0  0  0
 36 82  1  0  0  0  0
M  END
>  <IDENTIFIER>
CNP0343053.1

>  <Energy>
3.86291e+08

$$$$
