
 OpenBabel09062523493D

 29 31  0  0  0  0  0  0  0  0999 V2000
    6.3170    0.3129    0.8239 Cl  0  0  0  0  0  0  0  0  0  0  0  0
    4.5902    0.0859    0.6157 C   0  0  0  0  0  0  0  0  0  0  0  0
    3.9335    0.6677   -0.4711 C   0  0  0  0  0  0  0  0  0  0  0  0
    2.5576    0.4872   -0.6425 C   0  0  0  0  0  0  0  0  0  0  0  0
    1.8155   -0.2858    0.2797 C   0  0  0  0  0  0  0  0  0  0  0  0
    0.3186   -0.5365    0.1637 C   0  0  2  0  0  0  0  0  0  0  0  0
    0.0830   -1.3112   -1.1310 C   0  0  0  0  0  0  0  0  0  0  0  0
   -0.5555    0.0642   -0.9486 C   0  0  1  0  0  0  0  0  0  0  0  0
   -1.9658    0.2475   -0.4021 C   0  0  0  0  0  0  0  0  0  0  0  0
   -2.4947    1.5513   -0.3779 C   0  0  0  0  0  0  0  0  0  0  0  0
   -3.7858    1.7911    0.1019 C   0  0  0  0  0  0  0  0  0  0  0  0
   -4.5682    0.7334    0.5663 C   0  0  0  0  0  0  0  0  0  0  0  0
   -4.0608   -0.5663    0.5528 C   0  0  0  0  0  0  0  0  0  0  0  0
   -2.7710   -0.8141    0.0729 C   0  0  0  0  0  0  0  0  0  0  0  0
    2.4934   -0.8622    1.3692 C   0  0  0  0  0  0  0  0  0  0  0  0
    3.8687   -0.6778    1.5356 C   0  0  0  0  0  0  0  0  0  0  0  0
    4.4897    1.2597   -1.1872 H   0  0  0  0  0  0  0  0  0  0  0  0
    2.0951    0.9504   -1.5004 H   0  0  0  0  0  0  0  0  0  0  0  0
   -0.1389   -1.1732    0.9529 H   0  0  0  0  0  0  0  0  0  0  0  0
   -0.7385   -2.0436   -1.2307 H   0  0  0  0  0  0  0  0  0  0  0  0
    0.7602   -1.1801   -2.0023 H   0  0  0  0  0  0  0  0  0  0  0  0
   -0.0463    0.9818   -1.3003 H   0  0  0  0  0  0  0  0  0  0  0  0
   -1.9072    2.3882   -0.7348 H   0  0  0  0  0  0  0  0  0  0  0  0
   -4.1802    2.7990    0.1123 H   0  0  0  0  0  0  0  0  0  0  0  0
   -5.5677    0.9207    0.9373 H   0  0  0  0  0  0  0  0  0  0  0  0
   -4.6686   -1.3855    0.9153 H   0  0  0  0  0  0  0  0  0  0  0  0
   -2.4213   -1.8348    0.0866 H   0  0  0  0  0  0  0  0  0  0  0  0
    1.9557   -1.4608    2.0948 H   0  0  0  0  0  0  0  0  0  0  0  0
    4.3729   -1.1319    2.3793 H   0  0  0  0  0  0  0  0  0  0  0  0
  1  2  1  0  0  0  0
  2  3  2  0  0  0  0
  3  4  1  0  0  0  0
  3 17  1  0  0  0  0
  4  5  2  0  0  0  0
  4 18  1  0  0  0  0
  5 15  1  0  0  0  0
  6  5  1  0  0  0  0
  6  7  1  0  0  0  0
  6 19  1  1  0  0  0
  7  8  1  0  0  0  0
  7 20  1  0  0  0  0
  7 21  1  0  0  0  0
  8  9  1  0  0  0  0
  8  6  1  0  0  0  0
  8 22  1  6  0  0  0
  9 10  2  0  0  0  0
 10 11  1  0  0  0  0
 10 23  1  0  0  0  0
 11 12  2  0  0  0  0
 11 24  1  0  0  0  0
 12 13  1  0  0  0  0
 12 25  1  0  0  0  0
 13 14  2  0  0  0  0
 13 26  1  0  0  0  0
 14  9  1  0  0  0  0
 14 27  1  0  0  0  0
 15 16  2  0  0  0  0
 15 28  1  0  0  0  0
 16  2  1  0  0  0  0
 16 29  1  0  0  0  0
M  END
>  <IDENTIFIER>
CNP0218756.3

>  <Energy>
1416.07

$$$$
