
 OpenBabel09072513523D

 52 53  0  0  0  0  0  0  0  0999 V2000
   -3.4603    4.4908    2.7535 C   0  0  0  0  0  0  0  0  0  0  0  0
   -2.4911    4.0121    1.8979 O   0  0  0  0  0  0  0  0  0  0  0  0
   -1.9056    2.7957    2.0002 C   0  0  0  0  0  0  0  0  0  0  0  0
   -2.2161    2.0716    2.9368 O   0  0  0  0  0  0  0  0  0  0  0  0
   -0.8961    2.2957    0.9891 C   0  0  0  0  0  0  0  0  0  0  0  0
   -0.3985    3.0349   -0.0518 C   0  0  0  0  0  0  0  0  0  0  0  0
   -0.7453    4.4746   -0.3855 C   0  0  0  0  0  0  0  0  0  0  0  0
    0.5563    2.4598   -0.9342 N   0  0  0  0  0  0  0  0  0  0  0  0
    1.0882    1.1514   -0.7906 C   0  0  0  0  0  0  0  0  0  0  0  0
    2.1444    0.7374   -1.7881 C   0  0  0  0  0  0  0  0  0  0  0  0
    0.6569    0.3435    0.2148 C   0  0  0  0  0  0  0  0  0  0  0  0
    1.1925   -1.0531    0.4324 C   0  0  0  0  0  0  0  0  0  0  0  0
    0.7801   -1.7129    1.3767 O   0  0  0  0  0  0  0  0  0  0  0  0
    2.1174   -1.5967   -0.4012 O   0  0  0  0  0  0  0  0  0  0  0  0
    2.5702   -2.9004   -0.3293 C   0  0  0  0  0  0  0  0  0  0  0  0
    3.6137   -3.1593   -1.4310 C   0  0  0  0  0  0  0  0  0  0  0  0
    4.8484   -2.2658   -1.2476 C   0  0  0  0  0  0  0  0  0  0  0  0
    4.0372   -4.6327   -1.4296 C   0  0  0  0  0  0  0  0  0  0  0  0
   -0.4176    0.8450    1.1870 C   0  0  2  0  0  0  0  0  0  0  0  0
   -1.6168   -0.0937    1.1316 C   0  0  0  0  0  0  0  0  0  0  0  0
   -1.9790   -0.8391    2.2673 C   0  0  0  0  0  0  0  0  0  0  0  0
   -3.0753   -1.6998    2.2294 C   0  0  0  0  0  0  0  0  0  0  0  0
   -3.8257   -1.8303    1.0605 C   0  0  0  0  0  0  0  0  0  0  0  0
   -3.4868   -1.0976   -0.0918 C   0  0  0  0  0  0  0  0  0  0  0  0
   -4.2582   -1.2356   -1.2845 N   0  3  0  0  0  0  0  0  0  0  0  0
   -3.9747   -0.6157   -2.2658 O   0  0  0  0  0  0  0  0  0  0  0  0
   -5.2932   -2.0478   -1.3191 O   0  5  0  0  0  0  0  0  0  0  0  0
   -2.3765   -0.2288   -0.0451 C   0  0  0  0  0  0  0  0  0  0  0  0
   -3.7457    5.5159    2.4389 H   0  0  0  0  0  0  0  0  0  0  0  0
   -3.0709    4.5303    3.7928 H   0  0  0  0  0  0  0  0  0  0  0  0
   -4.3603    3.8410    2.7104 H   0  0  0  0  0  0  0  0  0  0  0  0
   -1.4529    5.0098    0.2513 H   0  0  0  0  0  0  0  0  0  0  0  0
   -1.1559    4.5109   -1.4162 H   0  0  0  0  0  0  0  0  0  0  0  0
    0.1905    5.0724   -0.3645 H   0  0  0  0  0  0  0  0  0  0  0  0
    0.9092    3.0457   -1.7067 H   0  0  0  0  0  0  0  0  0  0  0  0
    2.3532    1.5437   -2.5213 H   0  0  0  0  0  0  0  0  0  0  0  0
    1.8093   -0.1503   -2.3640 H   0  0  0  0  0  0  0  0  0  0  0  0
    3.0936    0.5331   -1.2557 H   0  0  0  0  0  0  0  0  0  0  0  0
    1.7063   -3.5866   -0.4759 H   0  0  0  0  0  0  0  0  0  0  0  0
    3.0170   -3.0952    0.6711 H   0  0  0  0  0  0  0  0  0  0  0  0
    3.1522   -2.9331   -2.4182 H   0  0  0  0  0  0  0  0  0  0  0  0
    5.3377   -2.4684   -0.2708 H   0  0  0  0  0  0  0  0  0  0  0  0
    4.5685   -1.1959   -1.2870 H   0  0  0  0  0  0  0  0  0  0  0  0
    5.5811   -2.4528   -2.0613 H   0  0  0  0  0  0  0  0  0  0  0  0
    4.5064   -4.9063   -0.4602 H   0  0  0  0  0  0  0  0  0  0  0  0
    4.7673   -4.8210   -2.2460 H   0  0  0  0  0  0  0  0  0  0  0  0
    3.1551   -5.2862   -1.5993 H   0  0  0  0  0  0  0  0  0  0  0  0
    0.0446    0.8076    2.1987 H   0  0  0  0  0  0  0  0  0  0  0  0
   -1.4110   -0.7537    3.1857 H   0  0  0  0  0  0  0  0  0  0  0  0
   -3.3446   -2.2680    3.1106 H   0  0  0  0  0  0  0  0  0  0  0  0
   -4.6718   -2.5055    1.0599 H   0  0  0  0  0  0  0  0  0  0  0  0
   -2.0985    0.3451   -0.9203 H   0  0  0  0  0  0  0  0  0  0  0  0
  1  2  1  0  0  0  0
  1 29  1  0  0  0  0
  1 30  1  0  0  0  0
  1 31  1  0  0  0  0
  2  3  1  0  0  0  0
  3  4  2  0  0  0  0
  3  5  1  0  0  0  0
  5  6  2  0  0  0  0
  6  7  1  0  0  0  0
  6  8  1  0  0  0  0
  7 32  1  0  0  0  0
  7 33  1  0  0  0  0
  7 34  1  0  0  0  0
  8  9  1  0  0  0  0
  8 35  1  0  0  0  0
  9 10  1  0  0  0  0
  9 11  2  0  0  0  0
 10 36  1  0  0  0  0
 10 37  1  0  0  0  0
 10 38  1  0  0  0  0
 11 12  1  0  0  0  0
 11 19  1  0  0  0  0
 12 13  2  0  0  0  0
 12 14  1  0  0  0  0
 14 15  1  0  0  0  0
 15 16  1  0  0  0  0
 15 39  1  0  0  0  0
 15 40  1  0  0  0  0
 16 17  1  0  0  0  0
 16 18  1  0  0  0  0
 16 41  1  0  0  0  0
 17 42  1  0  0  0  0
 17 43  1  0  0  0  0
 17 44  1  0  0  0  0
 18 45  1  0  0  0  0
 18 46  1  0  0  0  0
 18 47  1  0  0  0  0
 19 20  1  0  0  0  0
 19  5  1  0  0  0  0
 19 48  1  1  0  0  0
 20 21  2  0  0  0  0
 21 22  1  0  0  0  0
 21 49  1  0  0  0  0
 22 23  2  0  0  0  0
 22 50  1  0  0  0  0
 23 24  1  0  0  0  0
 23 51  1  0  0  0  0
 24 25  1  0  0  0  0
 24 28  2  0  0  0  0
 25 26  2  0  0  0  0
 25 27  1  0  0  0  0
 28 20  1  0  0  0  0
 28 52  1  0  0  0  0
M  CHG  2  25   1  27  -1
M  END
>  <IDENTIFIER>
CNP0492424.0

>  <Energy>
249.86

$$$$
