
 OpenBabel09092514553D

 41 42  0  0  0  0  0  0  0  0999 V2000
    2.7943   -1.7715   -0.6598 C   0  0  0  0  0  0  0  0  0  0  0  0
    2.3656   -0.9925    0.3554 C   0  0  0  0  0  0  0  0  0  0  0  0
    3.3628   -0.1269    1.0562 C   0  0  0  0  0  0  0  0  0  0  0  0
    3.0184    0.5497    2.0153 O   0  0  0  0  0  0  0  0  0  0  0  0
    4.6567   -0.1031    0.6386 O   0  0  0  0  0  0  0  0  0  0  0  0
    5.6398    0.6672    1.2221 C   0  0  0  0  0  0  0  0  0  0  0  0
    0.8990   -0.9693    0.8210 C   0  0  2  0  0  0  0  0  0  0  0  0
   -0.0394   -2.0756    0.2225 C   0  0  0  0  0  0  0  0  0  0  0  0
   -0.6737   -1.5918   -1.0764 C   0  0  0  0  0  0  0  0  0  0  0  0
   -1.6166   -0.3608   -0.8305 C   0  0  1  0  0  0  0  0  0  0  0  0
   -1.5619    0.4933   -2.1294 C   0  0  0  0  0  0  0  0  0  0  0  0
   -3.0752   -0.8049   -0.5264 C   0  0  0  0  0  0  0  0  0  0  0  0
   -4.0152    0.4074   -0.3198 C   0  0  0  0  0  0  0  0  0  0  0  0
   -3.3554    1.6350    0.2946 C   0  0  0  0  0  0  0  0  0  0  0  0
   -2.0366    1.7068    0.6019 C   0  0  0  0  0  0  0  0  0  0  0  0
   -1.4992    3.0285    1.0306 C   0  0  0  0  0  0  0  0  0  0  0  0
   -0.3205    3.2017    1.2862 O   0  0  0  0  0  0  0  0  0  0  0  0
   -1.2042    0.4321    0.4700 C   0  0  2  0  0  0  0  0  0  0  0  0
    0.3222    0.4773    0.6191 C   0  0  0  0  0  0  0  0  0  0  0  0
    3.8347   -1.7741   -0.9691 H   0  0  0  0  0  0  0  0  0  0  0  0
    2.1417   -2.4256   -1.2207 H   0  0  0  0  0  0  0  0  0  0  0  0
    6.5979    0.4983    0.6897 H   0  0  0  0  0  0  0  0  0  0  0  0
    5.7672    0.3826    2.2885 H   0  0  0  0  0  0  0  0  0  0  0  0
    5.3749    1.7440    1.1498 H   0  0  0  0  0  0  0  0  0  0  0  0
    0.9120   -1.2211    1.9053 H   0  0  0  0  0  0  0  0  0  0  0  0
   -0.8771   -2.2878    0.9215 H   0  0  0  0  0  0  0  0  0  0  0  0
    0.4986   -3.0407    0.1215 H   0  0  0  0  0  0  0  0  0  0  0  0
   -1.2249   -2.3963   -1.6096 H   0  0  0  0  0  0  0  0  0  0  0  0
    0.1807   -1.3077   -1.7281 H   0  0  0  0  0  0  0  0  0  0  0  0
   -1.9024   -0.1106   -2.9979 H   0  0  0  0  0  0  0  0  0  0  0  0
   -0.5260    0.8387   -2.3304 H   0  0  0  0  0  0  0  0  0  0  0  0
   -2.1954    1.4003   -2.0843 H   0  0  0  0  0  0  0  0  0  0  0  0
   -3.0687   -1.4049    0.4102 H   0  0  0  0  0  0  0  0  0  0  0  0
   -3.4965   -1.4657   -1.3151 H   0  0  0  0  0  0  0  0  0  0  0  0
   -4.9165    0.0921    0.2474 H   0  0  0  0  0  0  0  0  0  0  0  0
   -4.3559    0.7434   -1.3223 H   0  0  0  0  0  0  0  0  0  0  0  0
   -3.9779    2.5214    0.3862 H   0  0  0  0  0  0  0  0  0  0  0  0
   -2.1685    3.8807    1.1031 H   0  0  0  0  0  0  0  0  0  0  0  0
   -1.5188   -0.1510    1.3663 H   0  0  0  0  0  0  0  0  0  0  0  0
    0.6497    1.0777    1.4884 H   0  0  0  0  0  0  0  0  0  0  0  0
    0.7195    0.9438   -0.3084 H   0  0  0  0  0  0  0  0  0  0  0  0
  1  2  2  0  0  0  0
  1 20  1  0  0  0  0
  1 21  1  0  0  0  0
  2  3  1  0  0  0  0
  3  4  2  0  0  0  0
  3  5  1  0  0  0  0
  5  6  1  0  0  0  0
  6 22  1  0  0  0  0
  6 23  1  0  0  0  0
  6 24  1  0  0  0  0
  7  2  1  0  0  0  0
  7  8  1  0  0  0  0
  7 25  1  1  0  0  0
  8  9  1  0  0  0  0
  8 26  1  0  0  0  0
  8 27  1  0  0  0  0
  9 10  1  0  0  0  0
  9 28  1  0  0  0  0
  9 29  1  0  0  0  0
 10 11  1  6  0  0  0
 10 12  1  0  0  0  0
 11 30  1  0  0  0  0
 11 31  1  0  0  0  0
 11 32  1  0  0  0  0
 12 13  1  0  0  0  0
 12 33  1  0  0  0  0
 12 34  1  0  0  0  0
 13 14  1  0  0  0  0
 13 35  1  0  0  0  0
 13 36  1  0  0  0  0
 14 15  2  0  0  0  0
 14 37  1  0  0  0  0
 15 16  1  0  0  0  0
 15 18  1  0  0  0  0
 16 17  2  0  0  0  0
 16 38  1  0  0  0  0
 18 19  1  0  0  0  0
 18 10  1  0  0  0  0
 18 39  1  1  0  0  0
 19  7  1  0  0  0  0
 19 40  1  0  0  0  0
 19 41  1  0  0  0  0
M  END
>  <IDENTIFIER>
CNP0159141.1

>  <Energy>
416.844

$$$$
