
 OpenBabel09132510193D

 78 83  0  0  0  0  0  0  0  0999 V2000
   -0.9404    4.7772    2.5255 C   0  0  0  0  0  0  0  0  0  0  0  0
   -0.4183    4.4784    1.1568 C   0  0  0  0  0  0  0  0  0  0  0  0
   -0.1505    5.3908    0.3902 O   0  0  0  0  0  0  0  0  0  0  0  0
   -0.2490    3.1820    0.7958 O   0  0  0  0  0  0  0  0  0  0  0  0
    0.2476    2.7130   -0.4081 C   0  0  1  0  0  0  0  0  0  0  0  0
    1.4854    1.8525   -0.2077 C   0  0  2  0  0  0  0  0  0  0  0  0
    2.2718    1.9872   -1.3702 O   0  0  0  0  0  0  0  0  0  0  0  0
    1.5263    0.8057   -1.2981 C   0  0  1  0  0  0  0  0  0  0  0  0
    2.5042   -0.4099   -1.1175 C   0  0  2  0  0  0  0  0  0  0  0  0
    2.6385   -1.3003   -2.3693 C   0  0  0  0  0  0  0  0  0  0  0  0
    2.2161   -1.1860    0.2114 C   0  0  1  0  0  0  0  0  0  0  0  0
    3.0599   -2.4603    0.4040 C   0  0  0  0  0  0  0  0  0  0  0  0
    4.5349   -2.1012    0.4934 C   0  0  0  0  0  0  0  0  0  0  0  0
    5.5433   -3.0319   -0.1332 C   0  0  0  0  0  0  0  0  0  0  0  0
    4.8897   -0.9582    1.1464 C   0  0  0  0  0  0  0  0  0  0  0  0
    6.3234   -0.5098    1.3226 C   0  0  0  0  0  0  0  0  0  0  0  0
    3.7844   -0.0925    1.6635 C   0  0  0  0  0  0  0  0  0  0  0  0
    4.0265    0.8644    2.3840 O   0  0  0  0  0  0  0  0  0  0  0  0
    2.4966   -0.3609    1.2962 O   0  0  0  0  0  0  0  0  0  0  0  0
    0.1761    0.9419   -2.1051 C   0  0  1  0  0  0  0  0  0  0  0  0
    0.4709    1.7582   -3.4075 C   0  0  0  0  0  0  0  0  0  0  0  0
   -0.4972   -0.3904   -2.5808 C   0  0  0  0  0  0  0  0  0  0  0  0
   -2.0140   -0.4938   -2.2888 C   0  0  0  0  0  0  0  0  0  0  0  0
   -2.1308   -0.5459   -0.7551 C   0  0  1  0  0  0  0  0  0  0  0  0
   -1.6173    0.8171   -0.1616 C   0  0  1  0  0  0  0  0  0  0  0  0
   -1.5296    0.8139    1.4054 C   0  0  0  0  0  0  0  0  0  0  0  0
   -1.9180   -0.5492    2.0290 C   0  0  1  0  0  0  0  0  0  0  0  0
   -1.9241   -0.5204    3.4315 O   0  0  0  0  0  0  0  0  0  0  0  0
   -3.1270   -1.3768    1.4276 C   0  0  1  0  0  0  0  0  0  0  0  0
   -2.4752   -3.0910    1.4769 Cl  0  0  0  0  0  0  0  0  0  0  0  0
   -4.4424   -1.4492    2.2553 C   0  0  0  0  0  0  0  0  0  0  0  0
   -5.4841   -2.3264    1.5451 C   0  0  0  0  0  0  0  0  0  0  0  0
   -5.3707   -2.6954    0.2428 C   0  0  0  0  0  0  0  0  0  0  0  0
   -4.2599   -2.1657   -0.6038 C   0  0  0  0  0  0  0  0  0  0  0  0
   -4.0119   -2.6810   -1.6803 O   0  0  0  0  0  0  0  0  0  0  0  0
   -3.4933   -0.9618   -0.0561 C   0  0  2  0  0  0  0  0  0  0  0  0
   -4.5522    0.2052   -0.1408 C   0  0  0  0  0  0  0  0  0  0  0  0
   -0.7483    1.7680   -1.1299 C   0  0  1  0  0  0  0  0  0  0  0  0
   -1.6421    2.5397   -1.9194 O   0  0  0  0  0  0  0  0  0  0  0  0
   -1.0256    5.8726    2.6865 H   0  0  0  0  0  0  0  0  0  0  0  0
   -0.2491    4.3541    3.2841 H   0  0  0  0  0  0  0  0  0  0  0  0
   -1.9415    4.3138    2.6500 H   0  0  0  0  0  0  0  0  0  0  0  0
    0.5317    3.5649   -1.0703 H   0  0  0  0  0  0  0  0  0  0  0  0
    2.2193    2.1042    0.5834 H   0  0  0  0  0  0  0  0  0  0  0  0
    3.5255    0.0205   -1.0143 H   0  0  0  0  0  0  0  0  0  0  0  0
    1.7809   -1.9638   -2.5555 H   0  0  0  0  0  0  0  0  0  0  0  0
    3.5120   -1.9753   -2.2572 H   0  0  0  0  0  0  0  0  0  0  0  0
    2.8241   -0.6732   -3.2656 H   0  0  0  0  0  0  0  0  0  0  0  0
    1.1419   -1.4732    0.2240 H   0  0  0  0  0  0  0  0  0  0  0  0
    2.8529   -3.2373   -0.3602 H   0  0  0  0  0  0  0  0  0  0  0  0
    2.7634   -2.8886    1.3876 H   0  0  0  0  0  0  0  0  0  0  0  0
    5.0475   -3.9104   -0.5967 H   0  0  0  0  0  0  0  0  0  0  0  0
    6.2400   -3.4112    0.6443 H   0  0  0  0  0  0  0  0  0  0  0  0
    6.1140   -2.5003   -0.9229 H   0  0  0  0  0  0  0  0  0  0  0  0
    7.0630   -1.2110    0.8886 H   0  0  0  0  0  0  0  0  0  0  0  0
    6.5501   -0.3997    2.4021 H   0  0  0  0  0  0  0  0  0  0  0  0
    6.4621    0.4715    0.8219 H   0  0  0  0  0  0  0  0  0  0  0  0
    1.2042    1.2181   -4.0412 H   0  0  0  0  0  0  0  0  0  0  0  0
    0.8812    2.7684   -3.2036 H   0  0  0  0  0  0  0  0  0  0  0  0
   -0.4556    1.8985   -4.0060 H   0  0  0  0  0  0  0  0  0  0  0  0
   -0.0537   -1.2342   -2.0367 H   0  0  0  0  0  0  0  0  0  0  0  0
   -0.2841   -0.6011   -3.6526 H   0  0  0  0  0  0  0  0  0  0  0  0
   -2.3449   -1.4484   -2.7352 H   0  0  0  0  0  0  0  0  0  0  0  0
   -2.6055    0.3250   -2.7493 H   0  0  0  0  0  0  0  0  0  0  0  0
   -1.4287   -1.3592   -0.4733 H   0  0  0  0  0  0  0  0  0  0  0  0
   -2.5007    1.4454   -0.2260 H   0  0  0  0  0  0  0  0  0  0  0  0
   -2.1638    1.6249    1.8343 H   0  0  0  0  0  0  0  0  0  0  0  0
   -0.4865    1.0045    1.7367 H   0  0  0  0  0  0  0  0  0  0  0  0
   -1.0035   -1.1168    1.7419 H   0  0  0  0  0  0  0  0  0  0  0  0
   -2.6291    0.1250    3.6970 H   0  0  0  0  0  0  0  0  0  0  0  0
   -4.8785   -0.4503    2.4639 H   0  0  0  0  0  0  0  0  0  0  0  0
   -4.2034   -1.9131    3.2361 H   0  0  0  0  0  0  0  0  0  0  0  0
   -6.3359   -2.6798    2.1171 H   0  0  0  0  0  0  0  0  0  0  0  0
   -6.1006   -3.3718   -0.1920 H   0  0  0  0  0  0  0  0  0  0  0  0
   -4.6728    0.5340   -1.1954 H   0  0  0  0  0  0  0  0  0  0  0  0
   -4.3303    1.0717    0.5106 H   0  0  0  0  0  0  0  0  0  0  0  0
   -5.5658   -0.0852    0.2005 H   0  0  0  0  0  0  0  0  0  0  0  0
   -1.9861    3.2880   -1.3626 H   0  0  0  0  0  0  0  0  0  0  0  0
  1  2  1  0  0  0  0
  1 40  1  0  0  0  0
  1 41  1  0  0  0  0
  1 42  1  0  0  0  0
  2  3  2  0  0  0  0
  2  4  1  0  0  0  0
  5  4  1  0  0  0  0
  5  6  1  0  0  0  0
  5 43  1  6  0  0  0
  6  7  1  0  0  0  0
  6 44  1  1  0  0  0
  8  7  1  0  0  0  0
  8  9  1  1  0  0  0
  8 20  1  0  0  0  0
  8  6  1  0  0  0  0
  9 10  1  0  0  0  0
  9 11  1  0  0  0  0
  9 45  1  1  0  0  0
 10 46  1  0  0  0  0
 10 47  1  0  0  0  0
 10 48  1  0  0  0  0
 11 12  1  0  0  0  0
 11 49  1  1  0  0  0
 12 13  1  0  0  0  0
 12 50  1  0  0  0  0
 12 51  1  0  0  0  0
 13 14  1  0  0  0  0
 13 15  2  0  0  0  0
 14 52  1  0  0  0  0
 14 53  1  0  0  0  0
 14 54  1  0  0  0  0
 15 16  1  0  0  0  0
 15 17  1  0  0  0  0
 16 55  1  0  0  0  0
 16 56  1  0  0  0  0
 16 57  1  0  0  0  0
 17 18  2  0  0  0  0
 17 19  1  0  0  0  0
 19 11  1  0  0  0  0
 20 21  1  6  0  0  0
 20 22  1  0  0  0  0
 21 58  1  0  0  0  0
 21 59  1  0  0  0  0
 21 60  1  0  0  0  0
 22 23  1  0  0  0  0
 22 61  1  0  0  0  0
 22 62  1  0  0  0  0
 23 63  1  0  0  0  0
 23 64  1  0  0  0  0
 24 23  1  0  0  0  0
 24 25  1  0  0  0  0
 24 65  1  1  0  0  0
 25 26  1  0  0  0  0
 25 38  1  0  0  0  0
 25 66  1  6  0  0  0
 26 27  1  0  0  0  0
 26 67  1  0  0  0  0
 26 68  1  0  0  0  0
 27 28  1  0  0  0  0
 27 29  1  0  0  0  0
 27 69  1  6  0  0  0
 28 70  1  0  0  0  0
 29 30  1  6  0  0  0
 29 31  1  0  0  0  0
 31 32  1  0  0  0  0
 31 71  1  0  0  0  0
 31 72  1  0  0  0  0
 32 33  2  0  0  0  0
 32 73  1  0  0  0  0
 33 34  1  0  0  0  0
 33 74  1  0  0  0  0
 34 35  2  0  0  0  0
 34 36  1  0  0  0  0
 36 37  1  1  0  0  0
 36 24  1  0  0  0  0
 36 29  1  0  0  0  0
 37 75  1  0  0  0  0
 37 76  1  0  0  0  0
 37 77  1  0  0  0  0
 38 39  1  6  0  0  0
 38  5  1  0  0  0  0
 38 20  1  0  0  0  0
 39 78  1  0  0  0  0
M  END
>  <IDENTIFIER>
CNP0263459.1

>  <Energy>
2790.44

$$$$
