
 OpenBabel09052518403D

135143  0  0  0  0  0  0  0  0999 V2000
   -2.2194   -5.4511   -1.5147 C   0  0  0  0  0  0  0  0  0  0  0  0
   -2.1752   -4.3283   -2.3641 O   0  0  0  0  0  0  0  0  0  0  0  0
   -0.8371   -3.9034   -2.5359 C   0  0  0  0  0  0  0  0  0  0  0  0
   -0.8677   -2.5102   -3.1766 C   0  0  0  0  0  0  0  0  0  0  0  0
    0.5267   -1.8896   -3.4795 C   0  0  0  0  0  0  0  0  0  0  0  0
    1.4623   -1.5831   -2.2788 C   0  0  1  0  0  0  0  0  0  0  0  0
    2.7754   -1.6143   -2.7749 O   0  0  0  0  0  0  0  0  0  0  0  0
    3.7637   -0.7306   -2.4442 C   0  0  0  0  0  0  0  0  0  0  0  0
    3.6551   -0.0056   -1.2448 C   0  0  0  0  0  0  0  0  0  0  0  0
    4.5847    0.9891   -0.9280 C   0  0  0  0  0  0  0  0  0  0  0  0
    5.6559    1.2764   -1.7965 C   0  0  0  0  0  0  0  0  0  0  0  0
    6.5584    2.2668   -1.5417 O   0  0  0  0  0  0  0  0  0  0  0  0
    6.7384    3.0160   -0.3888 C   0  0  0  0  0  0  0  0  0  0  0  0
    8.2445    3.0093    0.0004 C   0  0  0  0  0  0  0  0  0  0  0  0
    8.6810    4.2679    0.8010 C   0  0  0  0  0  0  0  0  0  0  0  0
    7.5201    4.7711    1.6506 C   0  0  0  0  0  0  0  0  0  0  0  0
    6.3613    5.2426    0.7307 C   0  0  0  0  0  0  0  0  0  0  0  0
    6.2733    4.4540   -0.6045 C   0  0  0  0  0  0  0  0  0  0  0  0
    5.7666    0.5539   -3.0079 C   0  0  0  0  0  0  0  0  0  0  0  0
    6.7857    0.8578   -3.9328 C   0  0  0  0  0  0  0  0  0  0  0  0
    6.8649    0.1809   -5.1569 C   0  0  0  0  0  0  0  0  0  0  0  0
    7.8226    0.4903   -6.0546 O   0  0  0  0  0  0  0  0  0  0  0  0
    5.9357   -0.8155   -5.4617 C   0  0  0  0  0  0  0  0  0  0  0  0
    4.9215   -1.1364   -4.5577 C   0  0  0  0  0  0  0  0  0  0  0  0
    4.8215   -0.4599   -3.3287 C   0  0  0  0  0  0  0  0  0  0  0  0
    2.4199   -0.2238   -0.4003 C   0  0  2  0  0  0  0  0  0  0  0  0
    2.4503   -1.4977    0.2548 O   0  0  0  0  0  0  0  0  0  0  0  0
    3.1075   -1.5155    1.5178 C   0  0  2  0  0  0  0  0  0  0  0  0
    4.6141   -1.8352    1.3196 C   0  0  0  0  0  0  0  0  0  0  0  0
    5.4253   -1.9122    2.6225 C   0  0  0  0  0  0  0  0  0  0  0  0
    6.7814   -2.1192    2.3325 O   0  0  0  0  0  0  0  0  0  0  0  0
    2.4432   -2.6133    2.3881 C   0  0  0  0  0  0  0  0  0  0  0  0
    0.9990   -2.4002    2.5137 N   0  0  0  0  0  0  0  0  0  0  0  0
    0.3804   -3.3806    3.4131 C   0  0  0  0  0  0  0  0  0  0  0  0
    0.8031   -3.1720    4.7354 O   0  0  0  0  0  0  0  0  0  0  0  0
    1.2761   -0.2171   -1.4686 C   0  0  2  0  0  0  0  0  0  0  0  0
   -0.0824    0.3250   -0.9221 C   0  0  1  0  0  0  0  0  0  0  0  0
   -1.0178    0.7878   -2.0703 C   0  0  0  0  0  0  0  0  0  0  0  0
   -2.2633    1.1724   -1.6278 O   0  0  0  0  0  0  0  0  0  0  0  0
   -2.7727    0.9783   -0.3885 C   0  0  0  0  0  0  0  0  0  0  0  0
   -4.0372    1.5069   -0.0977 C   0  0  0  0  0  0  0  0  0  0  0  0
   -4.8004    2.1828   -1.2220 C   0  0  0  0  0  0  0  0  0  0  0  0
   -6.2256    2.5648   -0.8910 C   0  0  0  0  0  0  0  0  0  0  0  0
   -6.4013    3.7915   -0.2273 C   0  0  0  0  0  0  0  0  0  0  0  0
   -7.6790    4.2811    0.0566 C   0  0  0  0  0  0  0  0  0  0  0  0
   -7.8424    5.4582    0.6923 O   0  0  0  0  0  0  0  0  0  0  0  0
   -8.7957    3.5471   -0.3285 C   0  0  0  0  0  0  0  0  0  0  0  0
   -8.6479    2.3276   -0.9882 C   0  0  0  0  0  0  0  0  0  0  0  0
   -7.3722    1.7937   -1.2791 C   0  0  0  0  0  0  0  0  0  0  0  0
   -7.3161    0.4390   -1.9465 C   0  0  0  0  0  0  0  0  0  0  0  0
   -8.3008    0.0641   -2.8862 C   0  0  0  0  0  0  0  0  0  0  0  0
   -8.2730   -1.1938   -3.4983 C   0  0  0  0  0  0  0  0  0  0  0  0
   -7.2741   -2.1111   -3.1784 C   0  0  0  0  0  0  0  0  0  0  0  0
   -6.2957   -1.7745   -2.2367 C   0  0  0  0  0  0  0  0  0  0  0  0
   -5.3308   -2.6554   -1.8989 O   0  0  0  0  0  0  0  0  0  0  0  0
   -6.3195   -0.5145   -1.6309 C   0  0  0  0  0  0  0  0  0  0  0  0
   -4.5805    1.3173    1.1846 C   0  0  0  0  0  0  0  0  0  0  0  0
   -3.8905    0.5968    2.1613 C   0  0  0  0  0  0  0  0  0  0  0  0
   -4.5055    0.4535    3.3627 O   0  0  0  0  0  0  0  0  0  0  0  0
   -4.0047   -0.0789    4.5347 C   0  0  0  0  0  0  0  0  0  0  0  0
   -4.7667   -1.3348    4.9360 C   0  0  0  0  0  0  0  0  0  0  0  0
   -4.2727   -1.5303    6.3602 C   0  0  0  0  0  0  0  0  0  0  0  0
   -4.1595   -0.1073    6.9368 C   0  0  0  0  0  0  0  0  0  0  0  0
   -4.3034    0.8220    5.7238 C   0  0  0  0  0  0  0  0  0  0  0  0
   -2.6407    0.0259    1.8430 C   0  0  0  0  0  0  0  0  0  0  0  0
   -2.0794    0.2163    0.5722 C   0  0  0  0  0  0  0  0  0  0  0  0
   -0.7780   -0.4720    0.1889 C   0  0  1  0  0  0  0  0  0  0  0  0
   -0.9783   -1.8153   -0.1764 O   0  0  0  0  0  0  0  0  0  0  0  0
   -3.2817   -5.7454   -1.3851 H   0  0  0  0  0  0  0  0  0  0  0  0
   -1.8306   -5.2103   -0.5000 H   0  0  0  0  0  0  0  0  0  0  0  0
   -1.6871   -6.3160   -1.9665 H   0  0  0  0  0  0  0  0  0  0  0  0
   -0.2970   -4.6062   -3.2076 H   0  0  0  0  0  0  0  0  0  0  0  0
   -0.3141   -3.8414   -1.5577 H   0  0  0  0  0  0  0  0  0  0  0  0
   -1.4928   -1.8845   -2.5302 H   0  0  0  0  0  0  0  0  0  0  0  0
   -1.4026   -2.6067   -4.1466 H   0  0  0  0  0  0  0  0  0  0  0  0
    0.4432   -0.9792   -4.1089 H   0  0  0  0  0  0  0  0  0  0  0  0
    1.0290   -2.6580   -4.1094 H   0  0  0  0  0  0  0  0  0  0  0  0
    1.3666   -2.4533   -1.6046 H   0  0  0  0  0  0  0  0  0  0  0  0
    4.4289    1.5450   -0.0177 H   0  0  0  0  0  0  0  0  0  0  0  0
    6.1520    2.6259    0.4659 H   0  0  0  0  0  0  0  0  0  0  0  0
    8.9013    2.9706   -0.8962 H   0  0  0  0  0  0  0  0  0  0  0  0
    8.4171    2.0787    0.5837 H   0  0  0  0  0  0  0  0  0  0  0  0
    8.9439    5.0942    0.1030 H   0  0  0  0  0  0  0  0  0  0  0  0
    9.5865    4.0318    1.3994 H   0  0  0  0  0  0  0  0  0  0  0  0
    7.8079    5.5967    2.3358 H   0  0  0  0  0  0  0  0  0  0  0  0
    7.1888    3.9126    2.2766 H   0  0  0  0  0  0  0  0  0  0  0  0
    6.4716    6.3145    0.4576 H   0  0  0  0  0  0  0  0  0  0  0  0
    5.4260    5.1406    1.3231 H   0  0  0  0  0  0  0  0  0  0  0  0
    6.9551    4.9042   -1.3607 H   0  0  0  0  0  0  0  0  0  0  0  0
    5.2374    4.5214   -1.0015 H   0  0  0  0  0  0  0  0  0  0  0  0
    7.5104    1.6348   -3.7208 H   0  0  0  0  0  0  0  0  0  0  0  0
    8.4702    1.1919   -5.8950 H   0  0  0  0  0  0  0  0  0  0  0  0
    5.9911   -1.3347   -6.4104 H   0  0  0  0  0  0  0  0  0  0  0  0
    4.2059   -1.9019   -4.8322 H   0  0  0  0  0  0  0  0  0  0  0  0
    2.2941    0.6190    0.3152 H   0  0  0  0  0  0  0  0  0  0  0  0
    2.9830   -0.5475    2.0567 H   0  0  0  0  0  0  0  0  0  0  0  0
    5.0771   -1.0457    0.7021 H   0  0  0  0  0  0  0  0  0  0  0  0
    4.7165   -2.7997    0.7751 H   0  0  0  0  0  0  0  0  0  0  0  0
    5.0680   -2.7246    3.2925 H   0  0  0  0  0  0  0  0  0  0  0  0
    5.3293   -0.9563    3.1788 H   0  0  0  0  0  0  0  0  0  0  0  0
    6.8875   -3.0878    2.1389 H   0  0  0  0  0  0  0  0  0  0  0  0
    2.8974   -2.5949    3.4004 H   0  0  0  0  0  0  0  0  0  0  0  0
    2.6312   -3.6132    1.9308 H   0  0  0  0  0  0  0  0  0  0  0  0
    0.5822   -2.5693    1.5718 H   0  0  0  0  0  0  0  0  0  0  0  0
    0.5854   -4.4244    3.0710 H   0  0  0  0  0  0  0  0  0  0  0  0
   -0.7229   -3.2540    3.3846 H   0  0  0  0  0  0  0  0  0  0  0  0
    1.4749   -3.8736    4.9397 H   0  0  0  0  0  0  0  0  0  0  0  0
    1.5124    0.6038   -2.1909 H   0  0  0  0  0  0  0  0  0  0  0  0
    0.1537    1.2925   -0.4166 H   0  0  0  0  0  0  0  0  0  0  0  0
   -1.1700    0.0750   -2.8765 H   0  0  0  0  0  0  0  0  0  0  0  0
   -0.5388    1.6575   -2.5708 H   0  0  0  0  0  0  0  0  0  0  0  0
   -4.8173    1.4960   -2.0917 H   0  0  0  0  0  0  0  0  0  0  0  0
   -4.2462    3.0724   -1.5953 H   0  0  0  0  0  0  0  0  0  0  0  0
   -5.5369    4.3796    0.0587 H   0  0  0  0  0  0  0  0  0  0  0  0
   -7.0904    5.9996    0.9733 H   0  0  0  0  0  0  0  0  0  0  0  0
   -9.7888    3.9209   -0.1108 H   0  0  0  0  0  0  0  0  0  0  0  0
   -9.5508    1.7881   -1.2423 H   0  0  0  0  0  0  0  0  0  0  0  0
   -9.0900    0.7469   -3.1698 H   0  0  0  0  0  0  0  0  0  0  0  0
   -9.0325   -1.4574   -4.2232 H   0  0  0  0  0  0  0  0  0  0  0  0
   -7.2643   -3.0833   -3.6538 H   0  0  0  0  0  0  0  0  0  0  0  0
   -5.2799   -3.5405   -2.2865 H   0  0  0  0  0  0  0  0  0  0  0  0
   -5.5711   -0.3175   -0.8910 H   0  0  0  0  0  0  0  0  0  0  0  0
   -5.5561    1.7085    1.4367 H   0  0  0  0  0  0  0  0  0  0  0  0
   -2.9142   -0.2856    4.4984 H   0  0  0  0  0  0  0  0  0  0  0  0
   -4.5817   -2.2085    4.2752 H   0  0  0  0  0  0  0  0  0  0  0  0
   -5.8605   -1.1194    4.9497 H   0  0  0  0  0  0  0  0  0  0  0  0
   -3.2355   -1.9269    6.2610 H   0  0  0  0  0  0  0  0  0  0  0  0
   -4.8494   -2.2485    6.9795 H   0  0  0  0  0  0  0  0  0  0  0  0
   -3.1621   -0.0127    7.4190 H   0  0  0  0  0  0  0  0  0  0  0  0
   -4.9531    0.1399    7.6749 H   0  0  0  0  0  0  0  0  0  0  0  0
   -3.7291    1.7704    5.7886 H   0  0  0  0  0  0  0  0  0  0  0  0
   -5.3831    1.0939    5.6473 H   0  0  0  0  0  0  0  0  0  0  0  0
   -2.0980   -0.5790    2.5542 H   0  0  0  0  0  0  0  0  0  0  0  0
   -0.1016   -0.4462    1.0682 H   0  0  0  0  0  0  0  0  0  0  0  0
   -1.9472   -2.0326   -0.1805 H   0  0  0  0  0  0  0  0  0  0  0  0
  1  2  1  0  0  0  0
  1 69  1  0  0  0  0
  1 70  1  0  0  0  0
  1 71  1  0  0  0  0
  2  3  1  0  0  0  0
  3  4  1  0  0  0  0
  3 72  1  0  0  0  0
  3 73  1  0  0  0  0
  4  5  1  0  0  0  0
  4 74  1  0  0  0  0
  4 75  1  0  0  0  0
  5 76  1  0  0  0  0
  5 77  1  0  0  0  0
  6  5  1  0  0  0  0
  6  7  1  0  0  0  0
  6 78  1  1  0  0  0
  7  8  1  0  0  0  0
  8  9  2  0  0  0  0
  9 10  1  0  0  0  0
  9 26  1  0  0  0  0
 10 11  2  0  0  0  0
 10 79  1  0  0  0  0
 11 12  1  0  0  0  0
 11 19  1  0  0  0  0
 12 13  1  0  0  0  0
 13 14  1  0  0  0  0
 13 80  1  0  0  0  0
 14 15  1  0  0  0  0
 14 81  1  0  0  0  0
 14 82  1  0  0  0  0
 15 16  1  0  0  0  0
 15 83  1  0  0  0  0
 15 84  1  0  0  0  0
 16 17  1  0  0  0  0
 16 85  1  0  0  0  0
 16 86  1  0  0  0  0
 17 18  1  0  0  0  0
 17 87  1  0  0  0  0
 17 88  1  0  0  0  0
 18 13  1  0  0  0  0
 18 89  1  0  0  0  0
 18 90  1  0  0  0  0
 19 20  2  0  0  0  0
 20 21  1  0  0  0  0
 20 91  1  0  0  0  0
 21 22  1  0  0  0  0
 21 23  2  0  0  0  0
 22 92  1  0  0  0  0
 23 24  1  0  0  0  0
 23 93  1  0  0  0  0
 24 25  2  0  0  0  0
 24 94  1  0  0  0  0
 25  8  1  0  0  0  0
 25 19  1  0  0  0  0
 26 27  1  0  0  0  0
 26 95  1  1  0  0  0
 27 28  1  0  0  0  0
 28 29  1  0  0  0  0
 28 32  1  0  0  0  0
 28 96  1  1  0  0  0
 29 30  1  0  0  0  0
 29 97  1  0  0  0  0
 29 98  1  0  0  0  0
 30 31  1  0  0  0  0
 30 99  1  0  0  0  0
 30100  1  0  0  0  0
 31101  1  0  0  0  0
 32 33  1  0  0  0  0
 32102  1  0  0  0  0
 32103  1  0  0  0  0
 33 34  1  0  0  0  0
 33104  1  0  0  0  0
 34 35  1  0  0  0  0
 34105  1  0  0  0  0
 34106  1  0  0  0  0
 35107  1  0  0  0  0
 36 26  1  0  0  0  0
 36 37  1  0  0  0  0
 36  6  1  0  0  0  0
 36108  1  6  0  0  0
 37 38  1  0  0  0  0
 37109  1  1  0  0  0
 38 39  1  0  0  0  0
 38110  1  0  0  0  0
 38111  1  0  0  0  0
 39 40  1  0  0  0  0
 40 41  2  0  0  0  0
 41 42  1  0  0  0  0
 41 57  1  0  0  0  0
 42 43  1  0  0  0  0
 42112  1  0  0  0  0
 42113  1  0  0  0  0
 43 44  2  0  0  0  0
 44 45  1  0  0  0  0
 44114  1  0  0  0  0
 45 46  1  0  0  0  0
 45 47  2  0  0  0  0
 46115  1  0  0  0  0
 47 48  1  0  0  0  0
 47116  1  0  0  0  0
 48 49  2  0  0  0  0
 48117  1  0  0  0  0
 49 50  1  0  0  0  0
 49 43  1  0  0  0  0
 50 51  2  0  0  0  0
 51 52  1  0  0  0  0
 51118  1  0  0  0  0
 52 53  2  0  0  0  0
 52119  1  0  0  0  0
 53 54  1  0  0  0  0
 53120  1  0  0  0  0
 54 55  1  0  0  0  0
 54 56  2  0  0  0  0
 55121  1  0  0  0  0
 56 50  1  0  0  0  0
 56122  1  0  0  0  0
 57 58  2  0  0  0  0
 57123  1  0  0  0  0
 58 59  1  0  0  0  0
 58 65  1  0  0  0  0
 59 60  1  0  0  0  0
 60 61  1  0  0  0  0
 60124  1  0  0  0  0
 61 62  1  0  0  0  0
 61125  1  0  0  0  0
 61126  1  0  0  0  0
 62 63  1  0  0  0  0
 62127  1  0  0  0  0
 62128  1  0  0  0  0
 63 64  1  0  0  0  0
 63129  1  0  0  0  0
 63130  1  0  0  0  0
 64 60  1  0  0  0  0
 64131  1  0  0  0  0
 64132  1  0  0  0  0
 65 66  2  0  0  0  0
 65133  1  0  0  0  0
 66 67  1  0  0  0  0
 66 40  1  0  0  0  0
 67 68  1  0  0  0  0
 67 37  1  0  0  0  0
 67134  1  1  0  0  0
 68135  1  0  0  0  0
M  END
>  <IDENTIFIER>
CNP0284464.1

>  <Energy>
1461.83

$$$$
