
 OpenBabel09082517393D

 43 45  0  0  0  0  0  0  0  0999 V2000
   -2.2895    2.4583    1.1257 C   0  0  0  0  0  0  0  0  0  0  0  0
   -1.3053    1.4950    0.4333 C   0  0  1  0  0  0  0  0  0  0  0  0
   -0.2149    1.0262    1.3878 C   0  0  0  0  0  0  0  0  0  0  0  0
    0.1489    1.7749    2.2853 O   0  0  0  0  0  0  0  0  0  0  0  0
    0.4672   -0.3223    1.2739 C   0  0  2  0  0  0  0  0  0  0  0  0
    1.9986   -0.2230    1.2078 C   0  0  0  0  0  0  0  0  0  0  0  0
    2.3693   -0.0098   -0.2848 C   0  0  2  0  0  0  0  0  0  0  0  0
    3.4887   -0.9904   -0.7051 C   0  0  0  0  0  0  0  0  0  0  0  0
    2.8214    1.4448   -0.5761 C   0  0  0  0  0  0  0  0  0  0  0  0
    4.0200    1.7497    0.0907 O   0  0  0  0  0  0  0  0  0  0  0  0
    1.0571   -0.3212   -1.0483 C   0  0  0  0  0  0  0  0  0  0  0  0
    0.1487   -1.0681   -0.0397 C   0  0  1  0  0  0  0  0  0  0  0  0
    0.5686   -2.4076    0.1138 O   0  0  0  0  0  0  0  0  0  0  0  0
   -1.3602   -1.0220   -0.4236 C   0  0  1  0  0  0  0  0  0  0  0  0
   -1.6541   -1.7905   -1.7431 C   0  0  0  0  0  0  0  0  0  0  0  0
   -2.3141   -1.4955    0.6935 C   0  0  0  0  0  0  0  0  0  0  0  0
   -3.2376   -0.3438    0.3390 C   0  0  0  0  0  0  0  0  0  0  0  0
   -2.0604    0.3761   -0.3811 C   0  0  1  0  0  0  0  0  0  0  0  0
   -2.4407    0.8633   -1.6477 O   0  0  0  0  0  0  0  0  0  0  0  0
   -1.7496    3.3280    1.5556 H   0  0  0  0  0  0  0  0  0  0  0  0
   -2.8176    1.9504    1.9599 H   0  0  0  0  0  0  0  0  0  0  0  0
   -3.0372    2.8479    0.4047 H   0  0  0  0  0  0  0  0  0  0  0  0
   -0.7593    2.1226   -0.3042 H   0  0  0  0  0  0  0  0  0  0  0  0
    0.1774   -0.8789    2.1918 H   0  0  0  0  0  0  0  0  0  0  0  0
    2.3372   -1.2460    1.4932 H   0  0  0  0  0  0  0  0  0  0  0  0
    2.4893    0.4444    1.9472 H   0  0  0  0  0  0  0  0  0  0  0  0
    4.4136   -0.8096   -0.1164 H   0  0  0  0  0  0  0  0  0  0  0  0
    3.7263   -0.8672   -1.7837 H   0  0  0  0  0  0  0  0  0  0  0  0
    3.1799   -2.0457   -0.5443 H   0  0  0  0  0  0  0  0  0  0  0  0
    2.0256    2.1735   -0.2955 H   0  0  0  0  0  0  0  0  0  0  0  0
    2.9932    1.5727   -1.6663 H   0  0  0  0  0  0  0  0  0  0  0  0
    3.7753    2.1735    0.9544 H   0  0  0  0  0  0  0  0  0  0  0  0
    1.1928   -0.7988   -2.0424 H   0  0  0  0  0  0  0  0  0  0  0  0
    0.5571    0.6394   -1.2700 H   0  0  0  0  0  0  0  0  0  0  0  0
    0.7658   -2.7829   -0.7829 H   0  0  0  0  0  0  0  0  0  0  0  0
   -1.3603   -2.8560   -1.6495 H   0  0  0  0  0  0  0  0  0  0  0  0
   -1.0926   -1.3392   -2.5872 H   0  0  0  0  0  0  0  0  0  0  0  0
   -2.7306   -1.7768   -2.0138 H   0  0  0  0  0  0  0  0  0  0  0  0
   -1.9262   -1.2581    1.7030 H   0  0  0  0  0  0  0  0  0  0  0  0
   -2.7216   -2.5287    0.6616 H   0  0  0  0  0  0  0  0  0  0  0  0
   -3.8179    0.1422    1.1463 H   0  0  0  0  0  0  0  0  0  0  0  0
   -3.9468   -0.7227   -0.4320 H   0  0  0  0  0  0  0  0  0  0  0  0
   -3.2279    1.4507   -1.5115 H   0  0  0  0  0  0  0  0  0  0  0  0
  1 20  1  0  0  0  0
  1 21  1  0  0  0  0
  1 22  1  0  0  0  0
  2  1  1  0  0  0  0
  2  3  1  0  0  0  0
  2 23  1  6  0  0  0
  3  4  2  0  0  0  0
  3  5  1  0  0  0  0
  5  6  1  0  0  0  0
  5 24  1  1  0  0  0
  6  7  1  0  0  0  0
  6 25  1  0  0  0  0
  6 26  1  0  0  0  0
  7  8  1  6  0  0  0
  7  9  1  0  0  0  0
  7 11  1  0  0  0  0
  8 27  1  0  0  0  0
  8 28  1  0  0  0  0
  8 29  1  0  0  0  0
  9 10  1  0  0  0  0
  9 30  1  0  0  0  0
  9 31  1  0  0  0  0
 10 32  1  0  0  0  0
 11 12  1  0  0  0  0
 11 33  1  0  0  0  0
 11 34  1  0  0  0  0
 12 13  1  1  0  0  0
 12 14  1  0  0  0  0
 12  5  1  0  0  0  0
 13 35  1  0  0  0  0
 14 15  1  6  0  0  0
 14 16  1  0  0  0  0
 15 36  1  0  0  0  0
 15 37  1  0  0  0  0
 15 38  1  0  0  0  0
 16 17  1  0  0  0  0
 16 39  1  0  0  0  0
 16 40  1  0  0  0  0
 17 18  1  0  0  0  0
 17 41  1  0  0  0  0
 17 42  1  0  0  0  0
 18 19  1  6  0  0  0
 18  2  1  0  0  0  0
 18 14  1  0  0  0  0
 19 43  1  0  0  0  0
M  END
>  <IDENTIFIER>
CNP0139459.1

>  <Energy>
1014.86

$$$$
