
 OpenBabel09062517333D

120125  0  0  0  0  0  0  0  0999 V2000
  -11.6559    3.6509    1.9559 C   0  0  0  0  0  0  0  0  0  0  0  0
  -10.7908    2.6703    2.3917 O   0  0  0  0  0  0  0  0  0  0  0  0
   -9.9493    1.9418    1.6112 C   0  0  0  0  0  0  0  0  0  0  0  0
   -9.8353    2.1469    0.2283 C   0  0  0  0  0  0  0  0  0  0  0  0
   -8.9366    1.3936   -0.5419 C   0  0  0  0  0  0  0  0  0  0  0  0
   -8.1337    0.3906    0.0614 C   0  0  0  0  0  0  0  0  0  0  0  0
   -7.0710   -0.3337   -0.7485 C   0  0  0  0  0  0  0  0  0  0  0  0
   -5.8389   -0.3913   -0.0916 C   0  0  0  0  0  0  0  0  0  0  0  0
   -4.6278   -0.9264   -0.4519 C   0  0  0  0  0  0  0  0  0  0  0  0
   -4.2130   -1.5888   -1.6103 C   0  0  0  0  0  0  0  0  0  0  0  0
   -2.8307   -1.9851   -1.6921 N   0  0  0  0  0  0  0  0  0  0  0  0
   -1.7707   -1.2703   -1.0020 C   0  0  0  0  0  0  0  0  0  0  0  0
   -1.0579   -2.1540    0.0290 C   0  0  0  0  0  0  0  0  0  0  0  0
   -0.2441   -1.3158    1.0455 C   0  0  0  0  0  0  0  0  0  0  0  0
    0.5991   -0.1878    0.4291 C   0  0  0  0  0  0  0  0  0  0  0  0
    1.6405   -0.6852   -0.5727 C   0  0  0  0  0  0  0  0  0  0  0  0
    2.2037    0.4922   -1.3850 C   0  0  0  0  0  0  0  0  0  0  0  0
    2.8543    1.4999   -0.5611 N   0  0  0  0  0  0  0  0  0  0  0  0
    4.2340    1.4376   -0.1432 C   0  0  0  0  0  0  0  0  0  0  0  0
    4.9040    0.2333   -0.2771 C   0  0  0  0  0  0  0  0  0  0  0  0
    6.2231   -0.0942   -0.0763 C   0  0  0  0  0  0  0  0  0  0  0  0
    7.3641    0.6270    0.3247 C   0  0  0  0  0  0  0  0  0  0  0  0
    7.3081    1.9728    0.8050 C   0  0  0  0  0  0  0  0  0  0  0  0
    6.1476    2.7958    0.7720 C   0  0  0  0  0  0  0  0  0  0  0  0
    4.8221    2.6081    0.3512 C   0  0  0  0  0  0  0  0  0  0  0  0
    4.1044    3.5952    0.4369 O   0  0  0  0  0  0  0  0  0  0  0  0
    8.5836    2.5888    1.4207 C   0  0  1  0  0  0  0  0  0  0  0  0
    8.4663    3.9846    1.8724 N   0  0  0  0  0  0  0  0  0  0  0  0
    7.7255    4.4128    2.9434 C   0  0  0  0  0  0  0  0  0  0  0  0
    7.7036    5.8641    3.3258 C   0  0  0  0  0  0  0  0  0  0  0  0
    7.0626    3.6249    3.6025 O   0  0  0  0  0  0  0  0  0  0  0  0
    8.9940    1.7201    2.6242 C   0  0  0  0  0  0  0  0  0  0  0  0
   10.0098    0.6666    2.2611 C   0  0  0  0  0  0  0  0  0  0  0  0
    9.7897   -0.1885    1.0404 C   0  0  0  0  0  0  0  0  0  0  0  0
   10.8818   -1.0457    0.7958 C   0  0  0  0  0  0  0  0  0  0  0  0
   10.9321   -1.8899   -0.3124 C   0  0  0  0  0  0  0  0  0  0  0  0
   11.9867   -2.7169   -0.5553 O   0  0  0  0  0  0  0  0  0  0  0  0
   13.1077   -2.8597    0.2330 C   0  0  0  0  0  0  0  0  0  0  0  0
    9.8934   -1.8722   -1.2259 C   0  0  0  0  0  0  0  0  0  0  0  0
    9.9985   -2.6476   -2.3292 O   0  0  0  0  0  0  0  0  0  0  0  0
   10.4926   -2.1673   -3.5222 C   0  0  0  0  0  0  0  0  0  0  0  0
    8.7676   -1.0422   -1.0197 C   0  0  0  0  0  0  0  0  0  0  0  0
    7.7932   -0.9868   -1.9773 O   0  0  0  0  0  0  0  0  0  0  0  0
    7.2802   -2.0199   -2.7439 C   0  0  0  0  0  0  0  0  0  0  0  0
    8.6628   -0.1939    0.1564 C   0  0  0  0  0  0  0  0  0  0  0  0
   -5.0428   -1.8840   -2.7026 C   0  0  0  0  0  0  0  0  0  0  0  0
   -4.5344   -2.4828   -3.6381 O   0  0  0  0  0  0  0  0  0  0  0  0
   -6.3941   -1.5540   -2.8660 C   0  0  0  0  0  0  0  0  0  0  0  0
   -7.3247   -0.8669   -2.0515 C   0  0  0  0  0  0  0  0  0  0  0  0
   -8.7345   -0.7736   -2.6554 C   0  0  1  0  0  0  0  0  0  0  0  0
   -9.6991   -1.4802   -1.8116 N   0  0  0  0  0  0  0  0  0  0  0  0
  -10.3819   -2.5855   -2.2355 C   0  0  0  0  0  0  0  0  0  0  0  0
  -11.3586   -3.2760   -1.3337 C   0  0  0  0  0  0  0  0  0  0  0  0
  -10.2107   -3.0399   -3.3586 O   0  0  0  0  0  0  0  0  0  0  0  0
   -9.1928    0.6648   -2.9628 C   0  0  0  0  0  0  0  0  0  0  0  0
   -8.7511    1.7503   -1.9859 C   0  0  0  0  0  0  0  0  0  0  0  0
   -8.2783    0.1766    1.4734 C   0  0  0  0  0  0  0  0  0  0  0  0
   -7.5823   -0.7667    2.1626 O   0  0  0  0  0  0  0  0  0  0  0  0
   -7.5969   -2.1207    1.8872 C   0  0  0  0  0  0  0  0  0  0  0  0
   -9.1625    0.9649    2.2228 C   0  0  0  0  0  0  0  0  0  0  0  0
   -9.2367    0.7924    3.5627 O   0  0  0  0  0  0  0  0  0  0  0  0
  -10.1109   -0.0876    4.1564 C   0  0  0  0  0  0  0  0  0  0  0  0
  -12.2074    4.0579    2.8280 H   0  0  0  0  0  0  0  0  0  0  0  0
  -12.3895    3.2211    1.2412 H   0  0  0  0  0  0  0  0  0  0  0  0
  -11.0906    4.4780    1.4766 H   0  0  0  0  0  0  0  0  0  0  0  0
  -10.4220    2.9183   -0.2523 H   0  0  0  0  0  0  0  0  0  0  0  0
   -5.7811    0.0818    0.8818 H   0  0  0  0  0  0  0  0  0  0  0  0
   -3.9107   -0.8060    0.3438 H   0  0  0  0  0  0  0  0  0  0  0  0
   -2.5329   -2.7079   -2.3660 H   0  0  0  0  0  0  0  0  0  0  0  0
   -2.1481   -0.3580   -0.5121 H   0  0  0  0  0  0  0  0  0  0  0  0
   -1.0503   -0.8864   -1.7537 H   0  0  0  0  0  0  0  0  0  0  0  0
   -0.4190   -2.8832   -0.5137 H   0  0  0  0  0  0  0  0  0  0  0  0
   -1.8014   -2.7317    0.6212 H   0  0  0  0  0  0  0  0  0  0  0  0
    0.3818   -1.9942    1.6638 H   0  0  0  0  0  0  0  0  0  0  0  0
   -0.9693   -0.8149    1.7252 H   0  0  0  0  0  0  0  0  0  0  0  0
    1.1049    0.3836    1.2375 H   0  0  0  0  0  0  0  0  0  0  0  0
   -0.0879    0.5226   -0.0763 H   0  0  0  0  0  0  0  0  0  0  0  0
    1.1704   -1.3613   -1.3143 H   0  0  0  0  0  0  0  0  0  0  0  0
    2.4063   -1.2728   -0.0304 H   0  0  0  0  0  0  0  0  0  0  0  0
    1.3453    0.9663   -1.9120 H   0  0  0  0  0  0  0  0  0  0  0  0
    2.8909    0.1460   -2.1864 H   0  0  0  0  0  0  0  0  0  0  0  0
    2.3506    2.3976   -0.4960 H   0  0  0  0  0  0  0  0  0  0  0  0
    4.3429   -0.6095   -0.6362 H   0  0  0  0  0  0  0  0  0  0  0  0
    6.3639   -1.1473   -0.2759 H   0  0  0  0  0  0  0  0  0  0  0  0
    6.2699    3.8071    1.1045 H   0  0  0  0  0  0  0  0  0  0  0  0
    9.3827    2.5907    0.6445 H   0  0  0  0  0  0  0  0  0  0  0  0
    9.0316    4.6839    1.3666 H   0  0  0  0  0  0  0  0  0  0  0  0
    8.3369    6.4735    2.6477 H   0  0  0  0  0  0  0  0  0  0  0  0
    8.0795    5.9817    4.3637 H   0  0  0  0  0  0  0  0  0  0  0  0
    6.6619    6.2450    3.2718 H   0  0  0  0  0  0  0  0  0  0  0  0
    8.0983    1.2835    3.1200 H   0  0  0  0  0  0  0  0  0  0  0  0
    9.5125    2.3388    3.3923 H   0  0  0  0  0  0  0  0  0  0  0  0
   10.1799    0.0252    3.1545 H   0  0  0  0  0  0  0  0  0  0  0  0
   10.9554    1.2234    2.0624 H   0  0  0  0  0  0  0  0  0  0  0  0
   11.7161   -1.0404    1.4845 H   0  0  0  0  0  0  0  0  0  0  0  0
   13.7783   -3.6124   -0.2297 H   0  0  0  0  0  0  0  0  0  0  0  0
   12.8213   -3.2147    1.2458 H   0  0  0  0  0  0  0  0  0  0  0  0
   13.6531   -1.8942    0.3028 H   0  0  0  0  0  0  0  0  0  0  0  0
   10.4562   -2.9766   -4.2802 H   0  0  0  0  0  0  0  0  0  0  0  0
   11.5458   -1.8395   -3.3939 H   0  0  0  0  0  0  0  0  0  0  0  0
    9.8828   -1.3119   -3.8818 H   0  0  0  0  0  0  0  0  0  0  0  0
    7.5069   -1.8434   -3.8145 H   0  0  0  0  0  0  0  0  0  0  0  0
    6.1766   -2.0347   -2.6240 H   0  0  0  0  0  0  0  0  0  0  0  0
    7.6485   -3.0141   -2.4201 H   0  0  0  0  0  0  0  0  0  0  0  0
   -6.7782   -1.9047   -3.8191 H   0  0  0  0  0  0  0  0  0  0  0  0
   -8.7635   -1.2526   -3.6572 H   0  0  0  0  0  0  0  0  0  0  0  0
   -9.8827   -1.1427   -0.8589 H   0  0  0  0  0  0  0  0  0  0  0  0
  -11.4235   -2.7760   -0.3453 H   0  0  0  0  0  0  0  0  0  0  0  0
  -11.0369   -4.3277   -1.1819 H   0  0  0  0  0  0  0  0  0  0  0  0
  -12.3633   -3.2682   -1.8061 H   0  0  0  0  0  0  0  0  0  0  0  0
  -10.2990    0.6583   -3.0779 H   0  0  0  0  0  0  0  0  0  0  0  0
   -8.7691    0.9805   -3.9430 H   0  0  0  0  0  0  0  0  0  0  0  0
   -9.2922    2.6826   -2.2604 H   0  0  0  0  0  0  0  0  0  0  0  0
   -7.6688    1.9659   -2.1284 H   0  0  0  0  0  0  0  0  0  0  0  0
   -6.9240   -2.6372    2.6024 H   0  0  0  0  0  0  0  0  0  0  0  0
   -7.2554   -2.3536    0.8626 H   0  0  0  0  0  0  0  0  0  0  0  0
   -8.6251   -2.5164    2.0189 H   0  0  0  0  0  0  0  0  0  0  0  0
   -9.9692   -0.0459    5.2563 H   0  0  0  0  0  0  0  0  0  0  0  0
   -9.9089   -1.1225    3.8096 H   0  0  0  0  0  0  0  0  0  0  0  0
  -11.1574    0.1947    3.9174 H   0  0  0  0  0  0  0  0  0  0  0  0
  1  2  1  0  0  0  0
  1 63  1  0  0  0  0
  1 64  1  0  0  0  0
  1 65  1  0  0  0  0
  2  3  1  0  0  0  0
  3  4  2  0  0  0  0
  4  5  1  0  0  0  0
  4 66  1  0  0  0  0
  5  6  2  0  0  0  0
  6  7  1  0  0  0  0
  6 57  1  0  0  0  0
  7  8  2  0  0  0  0
  8  9  1  0  0  0  0
  8 67  1  0  0  0  0
  9 10  2  0  0  0  0
  9 68  1  0  0  0  0
 10 11  1  0  0  0  0
 10 46  1  0  0  0  0
 11 12  1  0  0  0  0
 11 69  1  0  0  0  0
 12 13  1  0  0  0  0
 12 70  1  0  0  0  0
 12 71  1  0  0  0  0
 13 14  1  0  0  0  0
 13 72  1  0  0  0  0
 13 73  1  0  0  0  0
 14 15  1  0  0  0  0
 14 74  1  0  0  0  0
 14 75  1  0  0  0  0
 15 16  1  0  0  0  0
 15 76  1  0  0  0  0
 15 77  1  0  0  0  0
 16 17  1  0  0  0  0
 16 78  1  0  0  0  0
 16 79  1  0  0  0  0
 17 18  1  0  0  0  0
 17 80  1  0  0  0  0
 17 81  1  0  0  0  0
 18 19  1  0  0  0  0
 18 82  1  0  0  0  0
 19 20  2  0  0  0  0
 20 21  1  0  0  0  0
 20 83  1  0  0  0  0
 21 22  2  0  0  0  0
 21 84  1  0  0  0  0
 22 23  1  0  0  0  0
 23 24  2  0  0  0  0
 23 27  1  0  0  0  0
 24 25  1  0  0  0  0
 24 85  1  0  0  0  0
 25 26  2  0  0  0  0
 25 19  1  0  0  0  0
 27 28  1  0  0  0  0
 27 32  1  0  0  0  0
 27 86  1  6  0  0  0
 28 29  1  0  0  0  0
 28 87  1  0  0  0  0
 29 30  1  0  0  0  0
 29 31  2  0  0  0  0
 30 88  1  0  0  0  0
 30 89  1  0  0  0  0
 30 90  1  0  0  0  0
 32 33  1  0  0  0  0
 32 91  1  0  0  0  0
 32 92  1  0  0  0  0
 33 34  1  0  0  0  0
 33 93  1  0  0  0  0
 33 94  1  0  0  0  0
 34 35  2  0  0  0  0
 35 36  1  0  0  0  0
 35 95  1  0  0  0  0
 36 37  1  0  0  0  0
 36 39  2  0  0  0  0
 37 38  1  0  0  0  0
 38 96  1  0  0  0  0
 38 97  1  0  0  0  0
 38 98  1  0  0  0  0
 39 40  1  0  0  0  0
 39 42  1  0  0  0  0
 40 41  1  0  0  0  0
 41 99  1  0  0  0  0
 41100  1  0  0  0  0
 41101  1  0  0  0  0
 42 43  1  0  0  0  0
 42 45  2  0  0  0  0
 43 44  1  0  0  0  0
 44102  1  0  0  0  0
 44103  1  0  0  0  0
 44104  1  0  0  0  0
 45 34  1  0  0  0  0
 45 22  1  0  0  0  0
 46 47  2  0  0  0  0
 46 48  1  0  0  0  0
 48 49  2  0  0  0  0
 48105  1  0  0  0  0
 49 50  1  0  0  0  0
 49  7  1  0  0  0  0
 50 51  1  0  0  0  0
 50 55  1  0  0  0  0
 50106  1  6  0  0  0
 51 52  1  0  0  0  0
 51107  1  0  0  0  0
 52 53  1  0  0  0  0
 52 54  2  0  0  0  0
 53108  1  0  0  0  0
 53109  1  0  0  0  0
 53110  1  0  0  0  0
 55 56  1  0  0  0  0
 55111  1  0  0  0  0
 55112  1  0  0  0  0
 56  5  1  0  0  0  0
 56113  1  0  0  0  0
 56114  1  0  0  0  0
 57 58  1  0  0  0  0
 57 60  2  0  0  0  0
 58 59  1  0  0  0  0
 59115  1  0  0  0  0
 59116  1  0  0  0  0
 59117  1  0  0  0  0
 60 61  1  0  0  0  0
 60  3  1  0  0  0  0
 61 62  1  0  0  0  0
 62118  1  0  0  0  0
 62119  1  0  0  0  0
 62120  1  0  0  0  0
M  END
>  <IDENTIFIER>
CNP0362781.2

>  <Energy>
1604.19

$$$$
