
 OpenBabel09092506303D

 88 94  0  0  0  0  0  0  0  0999 V2000
   -7.0536    2.0510   -0.6113 C   0  0  0  0  0  0  0  0  0  0  0  0
   -5.5971    2.3768   -0.2713 C   0  0  1  0  0  0  0  0  0  0  0  0
   -5.3130    3.7892   -0.7634 C   0  0  0  0  0  0  0  0  0  0  0  0
   -5.0427    4.6760    0.0317 O   0  0  0  0  0  0  0  0  0  0  0  0
   -5.3604    4.0847   -2.0812 O   0  0  0  0  0  0  0  0  0  0  0  0
   -5.4995    2.2821    1.1576 O   0  0  0  0  0  0  0  0  0  0  0  0
   -4.2225    1.9579    1.6930 C   0  0  0  0  0  0  0  0  0  0  0  0
   -3.0935    2.1221    0.6929 C   0  0  1  0  0  0  0  0  0  0  0  0
   -1.8169    1.8472    1.2843 O   0  0  0  0  0  0  0  0  0  0  0  0
   -1.0820    0.7918    0.6723 C   0  0  1  0  0  0  0  0  0  0  0  0
    0.0386    0.5001    1.4999 O   0  0  0  0  0  0  0  0  0  0  0  0
    1.2958    0.6501    0.8397 C   0  0  1  0  0  0  0  0  0  0  0  0
    2.1723    1.6397    1.6102 C   0  0  1  0  0  0  0  0  0  0  0  0
    2.5443    0.9942    2.8217 O   0  0  0  0  0  0  0  0  0  0  0  0
    2.4058   -0.3993    2.5743 C   0  0  0  0  0  0  0  0  0  0  0  0
    2.1573   -0.5585    1.0670 C   0  0  2  0  0  0  0  0  0  0  0  0
    3.3457   -0.4777    0.2581 O   0  0  0  0  0  0  0  0  0  0  0  0
    4.2215    0.5914    0.6077 C   0  0  1  0  0  0  0  0  0  0  0  0
    5.1647    0.7684   -0.4384 O   0  0  0  0  0  0  0  0  0  0  0  0
    6.5108    0.4941   -0.0834 C   0  0  2  0  0  0  0  0  0  0  0  0
    7.3898    1.7170   -0.4460 C   0  0  1  0  0  0  0  0  0  0  0  0
    7.4217    2.6055    0.6435 O   0  0  0  0  0  0  0  0  0  0  0  0
    8.8225    1.3191   -0.9087 C   0  0  2  0  0  0  0  0  0  0  0  0
    8.8597    1.0746   -2.2924 O   0  0  0  0  0  0  0  0  0  0  0  0
    9.3134    0.1932   -0.2043 O   0  0  0  0  0  0  0  0  0  0  0  0
    8.4982   -0.9822   -0.3300 C   0  0  2  0  0  0  0  0  0  0  0  0
    9.2268   -2.0450   -1.1655 C   0  0  0  0  0  0  0  0  0  0  0  0
    8.5114   -3.2511   -1.1803 O   0  0  0  0  0  0  0  0  0  0  0  0
    7.0215   -0.7517   -0.8074 C   0  0  2  0  0  0  0  0  0  0  0  0
    6.9390   -0.5889   -2.2018 O   0  0  0  0  0  0  0  0  0  0  0  0
    3.4483    1.9250    0.7934 C   0  0  1  0  0  0  0  0  0  0  0  0
    3.1093    2.5449   -0.4294 O   0  0  0  0  0  0  0  0  0  0  0  0
   -1.9659   -0.4627    0.5968 C   0  0  2  0  0  0  0  0  0  0  0  0
   -1.2521   -1.6163    0.2321 O   0  0  0  0  0  0  0  0  0  0  0  0
   -3.1718   -0.2393   -0.3417 C   0  0  1  0  0  0  0  0  0  0  0  0
   -4.2954   -0.9470    0.1740 O   0  0  0  0  0  0  0  0  0  0  0  0
   -4.5166   -2.1759   -0.5159 C   0  0  2  0  0  0  0  0  0  0  0  0
   -5.5845   -1.9912   -1.4337 O   0  0  0  0  0  0  0  0  0  0  0  0
   -6.8992   -2.0309   -0.8456 C   0  0  1  0  0  0  0  0  0  0  0  0
   -7.4796   -3.3849   -1.1920 C   0  0  0  0  0  0  0  0  0  0  0  0
   -6.8725   -4.2972   -0.2996 O   0  0  0  0  0  0  0  0  0  0  0  0
   -6.2966   -3.5203    0.7494 C   0  0  1  0  0  0  0  0  0  0  0  0
   -4.7837   -3.3524    0.4665 C   0  0  2  0  0  0  0  0  0  0  0  0
   -4.0287   -3.1874    1.6428 O   0  0  0  0  0  0  0  0  0  0  0  0
   -6.9541   -2.1478    0.6822 C   0  0  2  0  0  0  0  0  0  0  0  0
   -8.2927   -2.2028    1.1206 O   0  0  0  0  0  0  0  0  0  0  0  0
   -3.4683    1.2701   -0.5309 C   0  0  1  0  0  0  0  0  0  0  0  0
   -4.8029    1.4281   -0.9834 O   0  0  0  0  0  0  0  0  0  0  0  0
   -7.7392    2.7746   -0.1188 H   0  0  0  0  0  0  0  0  0  0  0  0
   -7.3042    1.0323   -0.2488 H   0  0  0  0  0  0  0  0  0  0  0  0
   -7.2298    2.0821   -1.7078 H   0  0  0  0  0  0  0  0  0  0  0  0
   -5.5499    3.4130   -2.7512 H   0  0  0  0  0  0  0  0  0  0  0  0
   -4.2517    0.9164    2.0753 H   0  0  0  0  0  0  0  0  0  0  0  0
   -4.0223    2.6333    2.5518 H   0  0  0  0  0  0  0  0  0  0  0  0
   -3.0668    3.1845    0.3797 H   0  0  0  0  0  0  0  0  0  0  0  0
   -0.8023    1.0988   -0.3603 H   0  0  0  0  0  0  0  0  0  0  0  0
    1.2076    0.8679   -0.2451 H   0  0  0  0  0  0  0  0  0  0  0  0
    1.6228    2.5868    1.8005 H   0  0  0  0  0  0  0  0  0  0  0  0
    1.5127   -0.7477    3.1395 H   0  0  0  0  0  0  0  0  0  0  0  0
    3.2842   -0.9892    2.9115 H   0  0  0  0  0  0  0  0  0  0  0  0
    1.6553   -1.5189    0.8227 H   0  0  0  0  0  0  0  0  0  0  0  0
    4.6888    0.3311    1.5833 H   0  0  0  0  0  0  0  0  0  0  0  0
    6.6677    0.2719    0.9982 H   0  0  0  0  0  0  0  0  0  0  0  0
    6.9525    2.2730   -1.3050 H   0  0  0  0  0  0  0  0  0  0  0  0
    7.9789    2.1881    1.3521 H   0  0  0  0  0  0  0  0  0  0  0  0
    9.4801    2.1997   -0.7250 H   0  0  0  0  0  0  0  0  0  0  0  0
    9.8171    0.9923   -2.5417 H   0  0  0  0  0  0  0  0  0  0  0  0
    8.4148   -1.3735    0.7084 H   0  0  0  0  0  0  0  0  0  0  0  0
   10.2513   -2.2161   -0.7632 H   0  0  0  0  0  0  0  0  0  0  0  0
    9.3488   -1.6905   -2.2105 H   0  0  0  0  0  0  0  0  0  0  0  0
    8.6642   -3.6816   -0.2987 H   0  0  0  0  0  0  0  0  0  0  0  0
    6.4272   -1.6523   -0.5226 H   0  0  0  0  0  0  0  0  0  0  0  0
    5.9915   -0.7415   -2.4560 H   0  0  0  0  0  0  0  0  0  0  0  0
    4.1168    2.6290    1.3352 H   0  0  0  0  0  0  0  0  0  0  0  0
    3.0019    1.8541   -1.1331 H   0  0  0  0  0  0  0  0  0  0  0  0
   -2.3338   -0.6047    1.6380 H   0  0  0  0  0  0  0  0  0  0  0  0
   -0.8025   -1.4234   -0.6299 H   0  0  0  0  0  0  0  0  0  0  0  0
   -2.9223   -0.5417   -1.3883 H   0  0  0  0  0  0  0  0  0  0  0  0
   -3.6080   -2.5098   -1.0699 H   0  0  0  0  0  0  0  0  0  0  0  0
   -7.4922   -1.1807   -1.2449 H   0  0  0  0  0  0  0  0  0  0  0  0
   -7.2867   -3.6463   -2.2549 H   0  0  0  0  0  0  0  0  0  0  0  0
   -8.5788   -3.4069   -1.0181 H   0  0  0  0  0  0  0  0  0  0  0  0
   -6.4443   -4.0449    1.7183 H   0  0  0  0  0  0  0  0  0  0  0  0
   -4.4650   -4.3178    0.0134 H   0  0  0  0  0  0  0  0  0  0  0  0
   -4.4689   -2.4891    2.1923 H   0  0  0  0  0  0  0  0  0  0  0  0
   -6.4418   -1.3372    1.2426 H   0  0  0  0  0  0  0  0  0  0  0  0
   -8.2730   -2.5084    2.0650 H   0  0  0  0  0  0  0  0  0  0  0  0
   -2.7825    1.6403   -1.3271 H   0  0  0  0  0  0  0  0  0  0  0  0
  1 49  1  0  0  0  0
  1 50  1  0  0  0  0
  1 51  1  0  0  0  0
  2  1  1  0  0  0  0
  2  3  1  6  0  0  0
  2  6  1  0  0  0  0
  3  4  2  0  0  0  0
  3  5  1  0  0  0  0
  5 52  1  0  0  0  0
  6  7  1  0  0  0  0
  7 53  1  0  0  0  0
  7 54  1  0  0  0  0
  8  7  1  0  0  0  0
  8  9  1  0  0  0  0
  8 55  1  6  0  0  0
  9 10  1  0  0  0  0
 10 11  1  0  0  0  0
 10 33  1  0  0  0  0
 10 56  1  6  0  0  0
 12 11  1  0  0  0  0
 12 13  1  0  0  0  0
 12 57  1  6  0  0  0
 13 14  1  0  0  0  0
 13 58  1  1  0  0  0
 14 15  1  0  0  0  0
 15 59  1  0  0  0  0
 15 60  1  0  0  0  0
 16 15  1  0  0  0  0
 16 17  1  0  0  0  0
 16 12  1  0  0  0  0
 16 61  1  6  0  0  0
 17 18  1  0  0  0  0
 18 19  1  0  0  0  0
 18 31  1  0  0  0  0
 18 62  1  1  0  0  0
 20 19  1  0  0  0  0
 20 21  1  0  0  0  0
 20 63  1  1  0  0  0
 21 22  1  0  0  0  0
 21 23  1  0  0  0  0
 21 64  1  6  0  0  0
 22 65  1  0  0  0  0
 23 24  1  0  0  0  0
 23 25  1  0  0  0  0
 23 66  1  1  0  0  0
 24 67  1  0  0  0  0
 25 26  1  0  0  0  0
 26 27  1  0  0  0  0
 26 29  1  0  0  0  0
 26 68  1  1  0  0  0
 27 28  1  0  0  0  0
 27 69  1  0  0  0  0
 27 70  1  0  0  0  0
 28 71  1  0  0  0  0
 29 30  1  0  0  0  0
 29 20  1  0  0  0  0
 29 72  1  1  0  0  0
 30 73  1  0  0  0  0
 31 32  1  0  0  0  0
 31 13  1  0  0  0  0
 31 74  1  1  0  0  0
 32 75  1  0  0  0  0
 33 34  1  0  0  0  0
 33 35  1  0  0  0  0
 33 76  1  1  0  0  0
 34 77  1  0  0  0  0
 35 36  1  0  0  0  0
 35 47  1  0  0  0  0
 35 78  1  6  0  0  0
 37 36  1  0  0  0  0
 37 38  1  0  0  0  0
 37 79  1  6  0  0  0
 38 39  1  0  0  0  0
 39 40  1  0  0  0  0
 39 80  1  6  0  0  0
 40 41  1  0  0  0  0
 40 81  1  0  0  0  0
 40 82  1  0  0  0  0
 42 41  1  0  0  0  0
 42 43  1  0  0  0  0
 42 45  1  0  0  0  0
 42 83  1  1  0  0  0
 43 44  1  0  0  0  0
 43 37  1  0  0  0  0
 43 84  1  6  0  0  0
 44 85  1  0  0  0  0
 45 46  1  0  0  0  0
 45 39  1  0  0  0  0
 45 86  1  1  0  0  0
 46 87  1  0  0  0  0
 47 48  1  0  0  0  0
 47  8  1  0  0  0  0
 47 88  1  6  0  0  0
 48  2  1  0  0  0  0
M  END
>  <IDENTIFIER>
CNP0213383.2

>  <Energy>
1562.58

$$$$
