
 OpenBabel09062500413D

 46 48  0  0  0  0  0  0  0  0999 V2000
   -4.3395    1.8005    0.3613 C   0  0  0  0  0  0  0  0  0  0  0  0
   -3.7499    0.3844    0.0719 C   0  0  0  0  0  0  0  0  0  0  0  0
   -4.8587   -0.3620   -0.7327 C   0  0  0  0  0  0  0  0  0  0  0  0
   -3.2501   -0.3619    1.3314 C   0  0  1  0  0  0  0  0  0  0  0  0
   -2.6176   -1.6486    0.7545 C   0  0  0  0  0  0  0  0  0  0  0  0
   -1.9805   -1.1607   -0.5561 C   0  0  0  0  0  0  0  0  0  0  0  0
   -2.3303    0.3516   -0.5632 C   0  0  1  0  0  0  0  0  0  0  0  0
   -2.1612    0.9870   -1.9490 C   0  0  0  0  0  0  0  0  0  0  0  0
   -1.4598    1.0441    0.5212 C   0  0  2  0  0  0  0  0  0  0  0  0
   -0.1081    0.7491    0.4033 O   0  0  0  0  0  0  0  0  0  0  0  0
    0.8810    1.6730    0.2500 C   0  0  0  0  0  0  0  0  0  0  0  0
    0.6203    2.8669    0.2117 O   0  0  0  0  0  0  0  0  0  0  0  0
    2.2944    1.2584    0.1307 C   0  0  0  0  0  0  0  0  0  0  0  0
    2.6766   -0.0320    0.1536 C   0  0  0  0  0  0  0  0  0  0  0  0
    4.0921   -0.4937    0.0379 C   0  0  0  0  0  0  0  0  0  0  0  0
    4.3471   -1.8766    0.0640 C   0  0  0  0  0  0  0  0  0  0  0  0
    5.6529   -2.3660   -0.0395 C   0  0  0  0  0  0  0  0  0  0  0  0
    6.7294   -1.4795   -0.1703 C   0  0  0  0  0  0  0  0  0  0  0  0
    7.9941   -1.9364   -0.2706 O   0  0  0  0  0  0  0  0  0  0  0  0
    6.4904   -0.1040   -0.1974 C   0  0  0  0  0  0  0  0  0  0  0  0
    5.1865    0.3899   -0.0949 C   0  0  0  0  0  0  0  0  0  0  0  0
   -2.0685    0.5082    1.8301 C   0  0  0  0  0  0  0  0  0  0  0  0
   -5.2914    1.7031    0.9261 H   0  0  0  0  0  0  0  0  0  0  0  0
   -4.5543    2.3264   -0.5929 H   0  0  0  0  0  0  0  0  0  0  0  0
   -3.7001    2.4713    0.9612 H   0  0  0  0  0  0  0  0  0  0  0  0
   -5.7916   -0.4131   -0.1311 H   0  0  0  0  0  0  0  0  0  0  0  0
   -4.6163   -1.3981   -1.0259 H   0  0  0  0  0  0  0  0  0  0  0  0
   -5.0823    0.1889   -1.6712 H   0  0  0  0  0  0  0  0  0  0  0  0
   -3.9776   -0.5850    2.1411 H   0  0  0  0  0  0  0  0  0  0  0  0
   -3.4077   -2.3961    0.5282 H   0  0  0  0  0  0  0  0  0  0  0  0
   -1.8992   -2.1301    1.4528 H   0  0  0  0  0  0  0  0  0  0  0  0
   -2.4659   -1.6836   -1.4084 H   0  0  0  0  0  0  0  0  0  0  0  0
   -0.8916   -1.3681   -0.6305 H   0  0  0  0  0  0  0  0  0  0  0  0
   -1.1058    0.8950   -2.2832 H   0  0  0  0  0  0  0  0  0  0  0  0
   -2.4314    2.0629   -1.9182 H   0  0  0  0  0  0  0  0  0  0  0  0
   -2.8121    0.4784   -2.6906 H   0  0  0  0  0  0  0  0  0  0  0  0
   -1.6332    2.1408    0.4739 H   0  0  0  0  0  0  0  0  0  0  0  0
    3.0187    2.0543    0.0221 H   0  0  0  0  0  0  0  0  0  0  0  0
    1.9104   -0.7957    0.2616 H   0  0  0  0  0  0  0  0  0  0  0  0
    3.5316   -2.5831    0.1644 H   0  0  0  0  0  0  0  0  0  0  0  0
    5.8262   -3.4346   -0.0175 H   0  0  0  0  0  0  0  0  0  0  0  0
    8.2028   -2.8811   -0.2560 H   0  0  0  0  0  0  0  0  0  0  0  0
    7.3183    0.5871   -0.2978 H   0  0  0  0  0  0  0  0  0  0  0  0
    5.0602    1.4606   -0.1205 H   0  0  0  0  0  0  0  0  0  0  0  0
   -2.4381    1.3628    2.4361 H   0  0  0  0  0  0  0  0  0  0  0  0
   -1.3612   -0.0681    2.4663 H   0  0  0  0  0  0  0  0  0  0  0  0
  1  2  1  0  0  0  0
  1 23  1  0  0  0  0
  1 24  1  0  0  0  0
  1 25  1  0  0  0  0
  2  3  1  0  0  0  0
  2  4  1  0  0  0  0
  3 26  1  0  0  0  0
  3 27  1  0  0  0  0
  3 28  1  0  0  0  0
  4  5  1  0  0  0  0
  4 29  1  1  0  0  0
  5  6  1  0  0  0  0
  5 30  1  0  0  0  0
  5 31  1  0  0  0  0
  6  7  1  0  0  0  0
  6 32  1  0  0  0  0
  6 33  1  0  0  0  0
  7  8  1  6  0  0  0
  7  9  1  0  0  0  0
  7  2  1  0  0  0  0
  8 34  1  0  0  0  0
  8 35  1  0  0  0  0
  8 36  1  0  0  0  0
  9 10  1  0  0  0  0
  9 22  1  0  0  0  0
  9 37  1  6  0  0  0
 10 11  1  0  0  0  0
 11 12  2  0  0  0  0
 11 13  1  0  0  0  0
 13 14  2  0  0  0  0
 13 38  1  0  0  0  0
 14 15  1  0  0  0  0
 14 39  1  0  0  0  0
 15 16  2  0  0  0  0
 16 17  1  0  0  0  0
 16 40  1  0  0  0  0
 17 18  2  0  0  0  0
 17 41  1  0  0  0  0
 18 19  1  0  0  0  0
 18 20  1  0  0  0  0
 19 42  1  0  0  0  0
 20 21  2  0  0  0  0
 20 43  1  0  0  0  0
 21 15  1  0  0  0  0
 21 44  1  0  0  0  0
 22  4  1  0  0  0  0
 22 45  1  0  0  0  0
 22 46  1  0  0  0  0
M  END
>  <IDENTIFIER>
CNP0172068.4

>  <Energy>
543.45

$$$$
