
 OpenBabel09122503573D

 35 37  0  0  0  0  0  0  0  0999 V2000
    1.3760   -3.6712    2.3037 N   0  0  0  0  0  0  0  0  0  0  0  0
    0.5418   -2.8952    2.0995 C   0  0  0  0  0  0  0  0  0  0  0  0
   -0.5223   -1.9090    1.8354 C   0  0  1  0  0  0  0  0  0  0  0  0
   -0.6986   -0.8793    2.9487 C   0  0  0  0  0  0  0  0  0  0  0  0
    0.0803   -0.8892    4.1293 C   0  0  0  0  0  0  0  0  0  0  0  0
   -0.1272    0.0663    5.1275 C   0  0  0  0  0  0  0  0  0  0  0  0
   -1.1070    1.0478    4.9674 C   0  0  0  0  0  0  0  0  0  0  0  0
   -1.3608    2.2459    6.2234 Cl  0  0  0  0  0  0  0  0  0  0  0  0
   -1.8852    1.0715    3.8075 C   0  0  0  0  0  0  0  0  0  0  0  0
   -1.6870    0.1134    2.8080 C   0  0  0  0  0  0  0  0  0  0  0  0
   -0.2678   -1.2579    0.4738 C   0  0  0  0  0  0  0  0  0  0  0  0
    0.8523   -0.4222    0.2519 C   0  0  0  0  0  0  0  0  0  0  0  0
    2.0269   -0.0577    1.5153 Cl  0  0  0  0  0  0  0  0  0  0  0  0
    1.0702    0.1547   -1.0037 C   0  0  0  0  0  0  0  0  0  0  0  0
    0.2021   -0.0694   -2.0957 C   0  0  0  0  0  0  0  0  0  0  0  0
    0.5004    0.5592   -3.3905 N   0  0  0  0  0  0  0  0  0  0  0  0
    1.6097    1.3082   -3.4546 N   0  0  0  0  0  0  0  0  0  0  0  0
    2.0138    1.9430   -4.5817 C   0  0  0  0  0  0  0  0  0  0  0  0
    1.2476    1.8182   -5.7320 C   0  0  0  0  0  0  0  0  0  0  0  0
    1.6028    2.4262   -6.8809 O   0  0  0  0  0  0  0  0  0  0  0  0
    0.1243    1.0690   -5.6879 N   0  0  0  0  0  0  0  0  0  0  0  0
   -0.2672    0.4390   -4.5507 C   0  0  0  0  0  0  0  0  0  0  0  0
   -1.2882   -0.2157   -4.5867 O   0  0  0  0  0  0  0  0  0  0  0  0
   -0.9128   -0.9069   -1.8612 C   0  0  0  0  0  0  0  0  0  0  0  0
   -1.1490   -1.4873   -0.6098 C   0  0  0  0  0  0  0  0  0  0  0  0
   -2.5769   -2.5177   -0.4751 Cl  0  0  0  0  0  0  0  0  0  0  0  0
   -1.4627   -2.4898    1.8215 H   0  0  0  0  0  0  0  0  0  0  0  0
    0.8471   -1.6334    4.2942 H   0  0  0  0  0  0  0  0  0  0  0  0
    0.4755    0.0407    6.0268 H   0  0  0  0  0  0  0  0  0  0  0  0
   -2.6457    1.8312    3.6801 H   0  0  0  0  0  0  0  0  0  0  0  0
   -2.3033    0.1488    1.9181 H   0  0  0  0  0  0  0  0  0  0  0  0
    1.9414    0.7864   -1.1161 H   0  0  0  0  0  0  0  0  0  0  0  0
    2.9201    2.5344   -4.5752 H   0  0  0  0  0  0  0  0  0  0  0  0
    2.4011    2.9696   -6.9494 H   0  0  0  0  0  0  0  0  0  0  0  0
   -1.6320   -1.1495   -2.6169 H   0  0  0  0  0  0  0  0  0  0  0  0
  1  2  3  0  0  0  0
  3  2  1  0  0  0  0
  3  4  1  0  0  0  0
  3 11  1  0  0  0  0
  3 27  1  6  0  0  0
  4  5  2  0  0  0  0
  5  6  1  0  0  0  0
  5 28  1  0  0  0  0
  6  7  2  0  0  0  0
  6 29  1  0  0  0  0
  7  8  1  0  0  0  0
  7  9  1  0  0  0  0
  9 10  2  0  0  0  0
  9 30  1  0  0  0  0
 10  4  1  0  0  0  0
 10 31  1  0  0  0  0
 11 12  2  0  0  0  0
 12 13  1  0  0  0  0
 12 14  1  0  0  0  0
 14 15  2  0  0  0  0
 14 32  1  0  0  0  0
 15 16  1  0  0  0  0
 15 24  1  0  0  0  0
 16 17  1  0  0  0  0
 17 18  2  0  0  0  0
 18 19  1  0  0  0  0
 18 33  1  0  0  0  0
 19 20  1  0  0  0  0
 19 21  2  0  0  0  0
 20 34  1  0  0  0  0
 21 22  1  0  0  0  0
 22 23  2  0  0  0  0
 22 16  1  0  0  0  0
 24 25  2  0  0  0  0
 24 35  1  0  0  0  0
 25 26  1  0  0  0  0
 25 11  1  0  0  0  0
M  END
>  <IDENTIFIER>
CNP0521514.0

>  <Energy>
247.347

$$$$
