
 OpenBabel09082511223D

 98 99  0  0  0  0  0  0  0  0999 V2000
   11.1719   -0.5186   -1.7076 C   0  0  0  0  0  0  0  0  0  0  0  0
   12.1506   -0.3591   -0.5600 C   0  0  0  0  0  0  0  0  0  0  0  0
   11.8533    0.1749    0.6815 C   0  0  0  0  0  0  0  0  0  0  0  0
   10.4579    0.5219    1.1622 C   0  0  0  0  0  0  0  0  0  0  0  0
    9.2795   -0.0157    0.7700 C   0  0  0  0  0  0  0  0  0  0  0  0
    7.9422    0.3571    1.3521 C   0  0  0  0  0  0  0  0  0  0  0  0
    7.8073    1.1792    2.6255 C   0  0  0  0  0  0  0  0  0  0  0  0
    6.8231   -0.0728    0.7117 C   0  0  0  0  0  0  0  0  0  0  0  0
    5.4384    0.2064    1.1920 C   0  0  0  0  0  0  0  0  0  0  0  0
    4.3537   -0.1562    0.4804 C   0  0  0  0  0  0  0  0  0  0  0  0
    2.9302    0.0689    0.9107 C   0  0  0  0  0  0  0  0  0  0  0  0
    2.5660    0.6060    2.2847 C   0  0  0  0  0  0  0  0  0  0  0  0
    1.9465   -0.2310    0.0264 C   0  0  0  0  0  0  0  0  0  0  0  0
    0.4917   -0.0910    0.3209 C   0  0  0  0  0  0  0  0  0  0  0  0
   -0.4361   -0.3257   -0.6202 C   0  0  0  0  0  0  0  0  0  0  0  0
   -1.8873   -0.2134   -0.2965 C   0  0  0  0  0  0  0  0  0  0  0  0
   -2.9149   -0.3251   -1.1771 C   0  0  0  0  0  0  0  0  0  0  0  0
   -2.7141   -0.5546   -2.6634 C   0  0  0  0  0  0  0  0  0  0  0  0
   -4.3121   -0.2219   -0.6369 C   0  0  0  0  0  0  0  0  0  0  0  0
   -5.4122   -0.2126   -1.4149 C   0  0  0  0  0  0  0  0  0  0  0  0
   -6.7775   -0.1532   -0.8199 C   0  0  0  0  0  0  0  0  0  0  0  0
   -7.9400   -0.0047   -1.5101 C   0  0  0  0  0  0  0  0  0  0  0  0
   -7.9935    0.1719   -3.0181 C   0  0  0  0  0  0  0  0  0  0  0  0
   -9.2255   -0.0322   -0.7338 C   0  0  0  0  0  0  0  0  0  0  0  0
  -10.4368    0.1941   -1.2933 C   0  0  0  0  0  0  0  0  0  0  0  0
  -11.7936    0.0924   -0.6286 C   0  0  0  0  0  0  0  0  0  0  0  0
  -12.0493    0.3526    0.7091 C   0  0  0  0  0  0  0  0  0  0  0  0
  -11.0181    0.8635    1.7025 C   0  0  0  0  0  0  0  0  0  0  0  0
  -13.4523    0.1807    1.3139 C   0  0  1  0  0  0  0  0  0  0  0  0
  -13.7676    1.2072    2.2223 O   0  0  0  0  0  0  0  0  0  0  0  0
  -14.5840    0.0759    0.2885 C   0  0  0  0  0  0  0  0  0  0  0  0
  -14.1747   -0.8813   -0.8020 C   0  0  0  0  0  0  0  0  0  0  0  0
  -12.9386   -0.3548   -1.5827 C   0  0  0  0  0  0  0  0  0  0  0  0
  -13.3242    0.8408   -2.4878 C   0  0  0  0  0  0  0  0  0  0  0  0
  -12.4994   -1.5336   -2.4926 C   0  0  0  0  0  0  0  0  0  0  0  0
   13.0246    0.3387    1.7131 C   0  0  0  0  0  0  0  0  0  0  0  0
   13.9213    1.5678    1.4159 C   0  0  0  0  0  0  0  0  0  0  0  0
   12.5336    0.5200    3.1781 C   0  0  0  0  0  0  0  0  0  0  0  0
   13.8114   -0.9949    1.6788 C   0  0  0  0  0  0  0  0  0  0  0  0
   14.3779   -1.3620    0.2943 C   0  0  0  0  0  0  0  0  0  0  0  0
   13.5982   -0.7253   -0.8777 C   0  0  1  0  0  0  0  0  0  0  0  0
   13.7589   -1.4640   -2.0621 O   0  0  0  0  0  0  0  0  0  0  0  0
   10.2252    0.0289   -1.5932 H   0  0  0  0  0  0  0  0  0  0  0  0
   10.9990   -1.5934   -1.9261 H   0  0  0  0  0  0  0  0  0  0  0  0
   11.6138   -0.0442   -2.6093 H   0  0  0  0  0  0  0  0  0  0  0  0
   10.4244    1.2578    1.9369 H   0  0  0  0  0  0  0  0  0  0  0  0
    9.2618   -0.7934    0.0214 H   0  0  0  0  0  0  0  0  0  0  0  0
    8.7556    1.4510    3.1139 H   0  0  0  0  0  0  0  0  0  0  0  0
    7.2471    0.5915    3.3833 H   0  0  0  0  0  0  0  0  0  0  0  0
    7.2601    2.1207    2.4085 H   0  0  0  0  0  0  0  0  0  0  0  0
    6.9297   -0.6484   -0.2056 H   0  0  0  0  0  0  0  0  0  0  0  0
    5.3215    0.7176    2.1310 H   0  0  0  0  0  0  0  0  0  0  0  0
    4.5194   -0.6447   -0.4779 H   0  0  0  0  0  0  0  0  0  0  0  0
    3.4224    0.8057    2.9476 H   0  0  0  0  0  0  0  0  0  0  0  0
    1.9310   -0.1335    2.8161 H   0  0  0  0  0  0  0  0  0  0  0  0
    2.0070    1.5596    2.1753 H   0  0  0  0  0  0  0  0  0  0  0  0
    2.2215   -0.5990   -0.9596 H   0  0  0  0  0  0  0  0  0  0  0  0
    0.1631    0.2033    1.3124 H   0  0  0  0  0  0  0  0  0  0  0  0
   -0.0955   -0.6031   -1.6081 H   0  0  0  0  0  0  0  0  0  0  0  0
   -2.1316   -0.0274    0.7479 H   0  0  0  0  0  0  0  0  0  0  0  0
   -1.6642   -0.6238   -2.9884 H   0  0  0  0  0  0  0  0  0  0  0  0
   -3.1653    0.2856   -3.2311 H   0  0  0  0  0  0  0  0  0  0  0  0
   -3.2119   -1.5028   -2.9561 H   0  0  0  0  0  0  0  0  0  0  0  0
   -4.4436   -0.1540    0.4414 H   0  0  0  0  0  0  0  0  0  0  0  0
   -5.2881   -0.2619   -2.4829 H   0  0  0  0  0  0  0  0  0  0  0  0
   -6.8334   -0.2449    0.2627 H   0  0  0  0  0  0  0  0  0  0  0  0
   -7.0191    0.1850   -3.5300 H   0  0  0  0  0  0  0  0  0  0  0  0
   -8.4816    1.1391   -3.2589 H   0  0  0  0  0  0  0  0  0  0  0  0
   -8.5839   -0.6574   -3.4620 H   0  0  0  0  0  0  0  0  0  0  0  0
   -9.1492   -0.3148    0.3060 H   0  0  0  0  0  0  0  0  0  0  0  0
  -10.4562    0.3833   -2.3558 H   0  0  0  0  0  0  0  0  0  0  0  0
  -10.0785    1.2271    1.2678 H   0  0  0  0  0  0  0  0  0  0  0  0
  -10.8311    0.0984    2.4849 H   0  0  0  0  0  0  0  0  0  0  0  0
  -11.3989    1.7796    2.1972 H   0  0  0  0  0  0  0  0  0  0  0  0
  -13.4055   -0.7659    1.8952 H   0  0  0  0  0  0  0  0  0  0  0  0
  -13.7562    2.0639    1.7191 H   0  0  0  0  0  0  0  0  0  0  0  0
  -14.8126    1.0658   -0.1547 H   0  0  0  0  0  0  0  0  0  0  0  0
  -15.5063   -0.2788    0.7983 H   0  0  0  0  0  0  0  0  0  0  0  0
  -15.0240   -1.0530   -1.5004 H   0  0  0  0  0  0  0  0  0  0  0  0
  -13.9398   -1.8561   -0.3160 H   0  0  0  0  0  0  0  0  0  0  0  0
  -14.1593    0.5659   -3.1673 H   0  0  0  0  0  0  0  0  0  0  0  0
  -12.4699    1.1620   -3.1187 H   0  0  0  0  0  0  0  0  0  0  0  0
  -13.6341    1.7229   -1.8917 H   0  0  0  0  0  0  0  0  0  0  0  0
  -13.3390   -1.8541   -3.1477 H   0  0  0  0  0  0  0  0  0  0  0  0
  -12.1809   -2.4041   -1.8801 H   0  0  0  0  0  0  0  0  0  0  0  0
  -11.6632   -1.2649   -3.1686 H   0  0  0  0  0  0  0  0  0  0  0  0
   13.3132    2.4964    1.4731 H   0  0  0  0  0  0  0  0  0  0  0  0
   14.4145    1.5722    0.4363 H   0  0  0  0  0  0  0  0  0  0  0  0
   14.7349    1.6405    2.1697 H   0  0  0  0  0  0  0  0  0  0  0  0
   12.0176    1.4903    3.3331 H   0  0  0  0  0  0  0  0  0  0  0  0
   13.3955    0.5190    3.8808 H   0  0  0  0  0  0  0  0  0  0  0  0
   11.8539   -0.3075    3.4764 H   0  0  0  0  0  0  0  0  0  0  0  0
   13.0666   -1.7833    1.9379 H   0  0  0  0  0  0  0  0  0  0  0  0
   14.6191   -1.0603    2.4410 H   0  0  0  0  0  0  0  0  0  0  0  0
   14.3860   -2.4728    0.2395 H   0  0  0  0  0  0  0  0  0  0  0  0
   15.4339   -1.0265    0.1950 H   0  0  0  0  0  0  0  0  0  0  0  0
   14.0663    0.2506   -1.0821 H   0  0  0  0  0  0  0  0  0  0  0  0
   13.3574   -2.3576   -1.9016 H   0  0  0  0  0  0  0  0  0  0  0  0
  1  2  1  0  0  0  0
  1 43  1  0  0  0  0
  1 44  1  0  0  0  0
  1 45  1  0  0  0  0
  2  3  2  0  0  0  0
  3  4  1  0  0  0  0
  3 36  1  0  0  0  0
  4  5  2  0  0  0  0
  4 46  1  0  0  0  0
  5  6  1  0  0  0  0
  5 47  1  0  0  0  0
  6  7  1  0  0  0  0
  6  8  2  0  0  0  0
  7 48  1  0  0  0  0
  7 49  1  0  0  0  0
  7 50  1  0  0  0  0
  8  9  1  0  0  0  0
  8 51  1  0  0  0  0
  9 10  2  0  0  0  0
  9 52  1  0  0  0  0
 10 11  1  0  0  0  0
 10 53  1  0  0  0  0
 11 12  1  0  0  0  0
 11 13  2  0  0  0  0
 12 54  1  0  0  0  0
 12 55  1  0  0  0  0
 12 56  1  0  0  0  0
 13 14  1  0  0  0  0
 13 57  1  0  0  0  0
 14 15  2  0  0  0  0
 14 58  1  0  0  0  0
 15 16  1  0  0  0  0
 15 59  1  0  0  0  0
 16 17  2  0  0  0  0
 16 60  1  0  0  0  0
 17 18  1  0  0  0  0
 17 19  1  0  0  0  0
 18 61  1  0  0  0  0
 18 62  1  0  0  0  0
 18 63  1  0  0  0  0
 19 20  2  0  0  0  0
 19 64  1  0  0  0  0
 20 21  1  0  0  0  0
 20 65  1  0  0  0  0
 21 22  2  0  0  0  0
 21 66  1  0  0  0  0
 22 23  1  0  0  0  0
 22 24  1  0  0  0  0
 23 67  1  0  0  0  0
 23 68  1  0  0  0  0
 23 69  1  0  0  0  0
 24 25  2  0  0  0  0
 24 70  1  0  0  0  0
 25 26  1  0  0  0  0
 25 71  1  0  0  0  0
 26 27  2  0  0  0  0
 27 28  1  0  0  0  0
 27 29  1  0  0  0  0
 28 72  1  0  0  0  0
 28 73  1  0  0  0  0
 28 74  1  0  0  0  0
 29 30  1  0  0  0  0
 29 31  1  0  0  0  0
 29 75  1  1  0  0  0
 30 76  1  0  0  0  0
 31 32  1  0  0  0  0
 31 77  1  0  0  0  0
 31 78  1  0  0  0  0
 32 33  1  0  0  0  0
 32 79  1  0  0  0  0
 32 80  1  0  0  0  0
 33 34  1  0  0  0  0
 33 35  1  0  0  0  0
 33 26  1  0  0  0  0
 34 81  1  0  0  0  0
 34 82  1  0  0  0  0
 34 83  1  0  0  0  0
 35 84  1  0  0  0  0
 35 85  1  0  0  0  0
 35 86  1  0  0  0  0
 36 37  1  0  0  0  0
 36 38  1  0  0  0  0
 36 39  1  0  0  0  0
 37 87  1  0  0  0  0
 37 88  1  0  0  0  0
 37 89  1  0  0  0  0
 38 90  1  0  0  0  0
 38 91  1  0  0  0  0
 38 92  1  0  0  0  0
 39 40  1  0  0  0  0
 39 93  1  0  0  0  0
 39 94  1  0  0  0  0
 40 41  1  0  0  0  0
 40 95  1  0  0  0  0
 40 96  1  0  0  0  0
 41 42  1  0  0  0  0
 41  2  1  0  0  0  0
 41 97  1  6  0  0  0
 42 98  1  0  0  0  0
M  END
>  <IDENTIFIER>
CNP0315796.1

>  <Energy>
851.897

$$$$
