
 OpenBabel09122509103D

 56 60  0  0  0  0  0  0  0  0999 V2000
   -1.3421    4.0963    0.7660 C   0  0  0  0  0  0  0  0  0  0  0  0
   -1.2652    3.0180   -0.3165 C   0  0  1  0  0  0  0  0  0  0  0  0
   -0.6212    1.9191    0.2278 O   0  0  0  0  0  0  0  0  0  0  0  0
    0.6099    1.4077   -0.0603 C   0  0  0  0  0  0  0  0  0  0  0  0
    1.5161    1.9993   -0.9633 C   0  0  0  0  0  0  0  0  0  0  0  0
    2.7699    1.4247   -1.1919 C   0  0  0  0  0  0  0  0  0  0  0  0
    3.1620    0.2442   -0.5264 C   0  0  0  0  0  0  0  0  0  0  0  0
    4.5035   -0.3905   -0.7363 C   0  0  0  0  0  0  0  0  0  0  0  0
    5.4715    0.1297   -1.6249 C   0  0  0  0  0  0  0  0  0  0  0  0
    6.6726   -0.4916   -1.7600 N   0  0  0  0  0  0  0  0  0  0  0  0
    6.9734   -1.6112   -1.0565 C   0  0  0  0  0  0  0  0  0  0  0  0
    8.2163   -2.2364   -1.2054 C   0  0  0  0  0  0  0  0  0  0  0  0
    8.5071   -3.3897   -0.4687 C   0  0  0  0  0  0  0  0  0  0  0  0
    7.5581   -3.9179    0.4150 C   0  0  0  0  0  0  0  0  0  0  0  0
    6.3136   -3.2950    0.5660 C   0  0  0  0  0  0  0  0  0  0  0  0
    6.0194   -2.1410   -0.1691 C   0  0  0  0  0  0  0  0  0  0  0  0
    4.8192   -1.5189   -0.0363 N   0  0  0  0  0  0  0  0  0  0  0  0
    2.2473   -0.3399    0.3727 C   0  0  0  0  0  0  0  0  0  0  0  0
    0.9937    0.2357    0.5991 C   0  0  0  0  0  0  0  0  0  0  0  0
   -2.6747    2.7235   -0.8492 C   0  0  0  0  0  0  0  0  0  0  0  0
   -3.2430    3.6795   -1.3619 O   0  0  0  0  0  0  0  0  0  0  0  0
   -3.3310    1.5059   -0.7965 N   0  0  0  0  0  0  0  0  0  0  0  0
   -2.7355    0.3148   -0.1772 C   0  0  0  0  0  0  0  0  0  0  0  0
   -3.6810   -0.8918   -0.2458 C   0  0  0  0  0  0  0  0  0  0  0  0
   -5.0811   -0.5510    0.3214 C   0  0  0  0  0  0  0  0  0  0  0  0
   -5.5789    0.8437   -0.1648 C   0  0  0  0  0  0  0  0  0  0  0  0
   -4.7099    1.3905   -1.3018 C   0  0  0  0  0  0  0  0  0  0  0  0
   -5.0301   -0.5417    1.7413 O   0  0  0  0  0  0  0  0  0  0  0  0
   -5.6754   -1.7166    2.1104 C   0  0  0  0  0  0  0  0  0  0  0  0
   -6.6715   -1.9234    1.0242 C   0  0  0  0  0  0  0  0  0  0  0  0
   -5.9805   -1.5555   -0.1250 O   0  0  0  0  0  0  0  0  0  0  0  0
   -0.3187    4.3483    1.1173 H   0  0  0  0  0  0  0  0  0  0  0  0
   -1.9372    3.7318    1.6309 H   0  0  0  0  0  0  0  0  0  0  0  0
   -1.8091    5.0231    0.3694 H   0  0  0  0  0  0  0  0  0  0  0  0
   -0.6970    3.4359   -1.1662 H   0  0  0  0  0  0  0  0  0  0  0  0
    1.2910    2.9067   -1.4990 H   0  0  0  0  0  0  0  0  0  0  0  0
    3.4167    1.9295   -1.8904 H   0  0  0  0  0  0  0  0  0  0  0  0
    5.2997    1.0157   -2.2122 H   0  0  0  0  0  0  0  0  0  0  0  0
    8.9546   -1.8322   -1.8870 H   0  0  0  0  0  0  0  0  0  0  0  0
    9.4683   -3.8743   -0.5821 H   0  0  0  0  0  0  0  0  0  0  0  0
    7.7881   -4.8101    0.9829 H   0  0  0  0  0  0  0  0  0  0  0  0
    5.5844   -3.7085    1.2516 H   0  0  0  0  0  0  0  0  0  0  0  0
    2.4972   -1.2453    0.9111 H   0  0  0  0  0  0  0  0  0  0  0  0
    0.3138   -0.2338    1.2994 H   0  0  0  0  0  0  0  0  0  0  0  0
   -2.5250    0.5263    0.8938 H   0  0  0  0  0  0  0  0  0  0  0  0
   -1.8023    0.0305   -0.7076 H   0  0  0  0  0  0  0  0  0  0  0  0
   -3.2498   -1.7853    0.2547 H   0  0  0  0  0  0  0  0  0  0  0  0
   -3.7898   -1.1528   -1.3217 H   0  0  0  0  0  0  0  0  0  0  0  0
   -5.4736    1.5804    0.6636 H   0  0  0  0  0  0  0  0  0  0  0  0
   -6.6578    0.8109   -0.4304 H   0  0  0  0  0  0  0  0  0  0  0  0
   -5.1298    2.3606   -1.6419 H   0  0  0  0  0  0  0  0  0  0  0  0
   -4.7500    0.7034   -2.1739 H   0  0  0  0  0  0  0  0  0  0  0  0
   -6.1666   -1.6419    3.1035 H   0  0  0  0  0  0  0  0  0  0  0  0
   -4.9263   -2.5407    2.1158 H   0  0  0  0  0  0  0  0  0  0  0  0
   -7.5362   -1.2326    1.1500 H   0  0  0  0  0  0  0  0  0  0  0  0
   -7.0254   -2.9754    0.9929 H   0  0  0  0  0  0  0  0  0  0  0  0
  1 32  1  0  0  0  0
  1 33  1  0  0  0  0
  1 34  1  0  0  0  0
  2  1  1  0  0  0  0
  2  3  1  0  0  0  0
  2 20  1  0  0  0  0
  2 35  1  6  0  0  0
  3  4  1  0  0  0  0
  4  5  2  0  0  0  0
  5  6  1  0  0  0  0
  5 36  1  0  0  0  0
  6  7  2  0  0  0  0
  6 37  1  0  0  0  0
  7  8  1  0  0  0  0
  7 18  1  0  0  0  0
  8  9  2  0  0  0  0
  9 10  1  0  0  0  0
  9 38  1  0  0  0  0
 10 11  2  0  0  0  0
 11 12  1  0  0  0  0
 12 13  2  0  0  0  0
 12 39  1  0  0  0  0
 13 14  1  0  0  0  0
 13 40  1  0  0  0  0
 14 15  2  0  0  0  0
 14 41  1  0  0  0  0
 15 16  1  0  0  0  0
 15 42  1  0  0  0  0
 16 17  2  0  0  0  0
 16 11  1  0  0  0  0
 17  8  1  0  0  0  0
 18 19  2  0  0  0  0
 18 43  1  0  0  0  0
 19  4  1  0  0  0  0
 19 44  1  0  0  0  0
 20 21  2  0  0  0  0
 20 22  1  0  0  0  0
 22 23  1  0  0  0  0
 23 24  1  0  0  0  0
 23 45  1  0  0  0  0
 23 46  1  0  0  0  0
 24 25  1  0  0  0  0
 24 47  1  0  0  0  0
 24 48  1  0  0  0  0
 25 26  1  0  0  0  0
 25 28  1  0  0  0  0
 26 27  1  0  0  0  0
 26 49  1  0  0  0  0
 26 50  1  0  0  0  0
 27 22  1  0  0  0  0
 27 51  1  0  0  0  0
 27 52  1  0  0  0  0
 28 29  1  0  0  0  0
 29 30  1  0  0  0  0
 29 53  1  0  0  0  0
 29 54  1  0  0  0  0
 30 31  1  0  0  0  0
 30 55  1  0  0  0  0
 30 56  1  0  0  0  0
 31 25  1  0  0  0  0
M  END
>  <IDENTIFIER>
CNP0560317.2

>  <Energy>
488.952

$$$$
