
 OpenBabel09052505183D

 50 50  0  0  0  0  0  0  0  0999 V2000
    3.6091    2.0793   -2.0707 C   0  0  0  0  0  0  0  0  0  0  0  0
    3.5845    0.9891   -1.0054 C   0  0  0  0  0  0  0  0  0  0  0  0
    2.4565    0.5120   -0.3447 C   0  0  0  0  0  0  0  0  0  0  0  0
    1.0803    1.0085   -0.7857 C   0  0  0  0  0  0  0  0  0  0  0  0
   -0.1334    0.5987   -0.3495 C   0  0  0  0  0  0  0  0  0  0  0  0
   -1.4642    1.0967   -0.8549 C   0  0  0  0  0  0  0  0  0  0  0  0
   -1.5982    2.0565   -2.0277 C   0  0  0  0  0  0  0  0  0  0  0  0
   -2.5806    0.6350   -0.2282 C   0  0  0  0  0  0  0  0  0  0  0  0
   -3.9699    1.0194   -0.6174 C   0  0  0  0  0  0  0  0  0  0  0  0
   -5.1450    0.5680   -0.1177 C   0  0  0  0  0  0  0  0  0  0  0  0
   -5.4552   -0.4893    0.9074 C   0  0  0  0  0  0  0  0  0  0  0  0
   -4.5022   -1.5939    1.3125 C   0  0  0  0  0  0  0  0  0  0  0  0
   -6.6986   -0.4538    1.4498 C   0  0  0  0  0  0  0  0  0  0  0  0
   -7.2086   -1.4138    2.4551 C   0  0  0  0  0  0  0  0  0  0  0  0
   -8.3514   -1.3035    2.8687 O   0  0  0  0  0  0  0  0  0  0  0  0
    2.6214   -0.5447    0.8045 C   0  0  0  0  0  0  0  0  0  0  0  0
    1.9553   -0.0767    2.1297 C   0  0  0  0  0  0  0  0  0  0  0  0
    2.0315   -1.9067    0.3497 C   0  0  0  0  0  0  0  0  0  0  0  0
    4.1159   -0.7611    1.2071 C   0  0  0  0  0  0  0  0  0  0  0  0
    5.0117   -0.8767   -0.0072 C   0  0  2  0  0  0  0  0  0  0  0  0
    6.3287   -1.2193    0.3525 O   0  0  0  0  0  0  0  0  0  0  0  0
    4.9851    0.4577   -0.7428 C   0  0  0  0  0  0  0  0  0  0  0  0
    2.6722    2.5862   -2.3338 H   0  0  0  0  0  0  0  0  0  0  0  0
    4.0155    1.6586   -3.0145 H   0  0  0  0  0  0  0  0  0  0  0  0
    4.2901    2.8885   -1.7314 H   0  0  0  0  0  0  0  0  0  0  0  0
    1.0486    1.7484   -1.5413 H   0  0  0  0  0  0  0  0  0  0  0  0
   -0.2084   -0.1559    0.4032 H   0  0  0  0  0  0  0  0  0  0  0  0
   -0.6531    2.3596   -2.5039 H   0  0  0  0  0  0  0  0  0  0  0  0
   -2.1000    2.9884   -1.6916 H   0  0  0  0  0  0  0  0  0  0  0  0
   -2.2045    1.5799   -2.8270 H   0  0  0  0  0  0  0  0  0  0  0  0
   -2.4339   -0.0190    0.6123 H   0  0  0  0  0  0  0  0  0  0  0  0
   -4.0751    1.7874   -1.3758 H   0  0  0  0  0  0  0  0  0  0  0  0
   -6.0165    1.0771   -0.5254 H   0  0  0  0  0  0  0  0  0  0  0  0
   -3.6080   -1.6676    0.6816 H   0  0  0  0  0  0  0  0  0  0  0  0
   -4.9978   -2.5762    1.1636 H   0  0  0  0  0  0  0  0  0  0  0  0
   -4.2214   -1.4877    2.3822 H   0  0  0  0  0  0  0  0  0  0  0  0
   -7.3924    0.3254    1.1412 H   0  0  0  0  0  0  0  0  0  0  0  0
   -6.5933   -2.2187    2.8397 H   0  0  0  0  0  0  0  0  0  0  0  0
    0.8712    0.0806    2.1022 H   0  0  0  0  0  0  0  0  0  0  0  0
    2.3986    0.8875    2.4606 H   0  0  0  0  0  0  0  0  0  0  0  0
    2.1266   -0.8276    2.9325 H   0  0  0  0  0  0  0  0  0  0  0  0
    0.9535   -1.8745    0.1292 H   0  0  0  0  0  0  0  0  0  0  0  0
    2.1710   -2.6747    1.1405 H   0  0  0  0  0  0  0  0  0  0  0  0
    2.5211   -2.2701   -0.5753 H   0  0  0  0  0  0  0  0  0  0  0  0
    4.2116   -1.6608    1.8555 H   0  0  0  0  0  0  0  0  0  0  0  0
    4.4950    0.1058    1.7978 H   0  0  0  0  0  0  0  0  0  0  0  0
    4.6319   -1.6787   -0.6710 H   0  0  0  0  0  0  0  0  0  0  0  0
    6.6679   -0.5243    0.9751 H   0  0  0  0  0  0  0  0  0  0  0  0
    5.5165    0.2852   -1.7047 H   0  0  0  0  0  0  0  0  0  0  0  0
    5.5410    1.2430   -0.1842 H   0  0  0  0  0  0  0  0  0  0  0  0
  1  2  1  0  0  0  0
  1 23  1  0  0  0  0
  1 24  1  0  0  0  0
  1 25  1  0  0  0  0
  2  3  2  0  0  0  0
  3  4  1  0  0  0  0
  3 16  1  0  0  0  0
  4  5  2  0  0  0  0
  4 26  1  0  0  0  0
  5  6  1  0  0  0  0
  5 27  1  0  0  0  0
  6  7  1  0  0  0  0
  6  8  2  0  0  0  0
  7 28  1  0  0  0  0
  7 29  1  0  0  0  0
  7 30  1  0  0  0  0
  8  9  1  0  0  0  0
  8 31  1  0  0  0  0
  9 10  2  0  0  0  0
  9 32  1  0  0  0  0
 10 11  1  0  0  0  0
 10 33  1  0  0  0  0
 11 12  1  0  0  0  0
 11 13  2  0  0  0  0
 12 34  1  0  0  0  0
 12 35  1  0  0  0  0
 12 36  1  0  0  0  0
 13 14  1  0  0  0  0
 13 37  1  0  0  0  0
 14 15  2  0  0  0  0
 14 38  1  0  0  0  0
 16 17  1  0  0  0  0
 16 18  1  0  0  0  0
 16 19  1  0  0  0  0
 17 39  1  0  0  0  0
 17 40  1  0  0  0  0
 17 41  1  0  0  0  0
 18 42  1  0  0  0  0
 18 43  1  0  0  0  0
 18 44  1  0  0  0  0
 19 20  1  0  0  0  0
 19 45  1  0  0  0  0
 19 46  1  0  0  0  0
 20 21  1  0  0  0  0
 20 22  1  0  0  0  0
 20 47  1  6  0  0  0
 21 48  1  0  0  0  0
 22  2  1  0  0  0  0
 22 49  1  0  0  0  0
 22 50  1  0  0  0  0
M  END
>  <IDENTIFIER>
CNP0138573.2

>  <Energy>
408.711

$$$$
