
 OpenBabel09062506543D

 62 69  0  0  0  0  0  0  0  0999 V2000
   -8.1927   -1.3118    0.3886 O   0  0  0  0  0  0  0  0  0  0  0  0
   -6.9834   -0.7879    0.1036 C   0  0  0  0  0  0  0  0  0  0  0  0
   -6.7650   -0.0955   -1.0956 C   0  0  0  0  0  0  0  0  0  0  0  0
   -5.5068    0.4455   -1.3766 C   0  0  0  0  0  0  0  0  0  0  0  0
   -4.4471    0.2995   -0.4635 C   0  0  0  0  0  0  0  0  0  0  0  0
   -3.0911    0.9050   -0.7691 C   0  0  1  0  0  0  0  0  0  0  0  0
   -2.7755    1.8323    0.2225 O   0  0  0  0  0  0  0  0  0  0  0  0
   -1.5332    2.0284    0.7335 C   0  0  0  0  0  0  0  0  0  0  0  0
   -1.3586    2.8218    1.8727 C   0  0  0  0  0  0  0  0  0  0  0  0
   -0.0794    2.9811    2.4328 C   0  0  0  0  0  0  0  0  0  0  0  0
    0.1012    3.7383    3.5338 O   0  0  0  0  0  0  0  0  0  0  0  0
    1.0215    2.3384    1.8525 C   0  0  0  0  0  0  0  0  0  0  0  0
    0.8554    1.5556    0.7067 C   0  0  0  0  0  0  0  0  0  0  0  0
   -0.4224    1.4135    0.1396 C   0  0  0  0  0  0  0  0  0  0  0  0
   -0.6233    0.5747   -1.0999 C   0  0  1  0  0  0  0  0  0  0  0  0
    0.5469   -0.4264   -1.2609 C   0  0  2  0  0  0  0  0  0  0  0  0
    0.4425   -1.5101   -0.2175 C   0  0  0  0  0  0  0  0  0  0  0  0
    1.5934   -2.2347    0.1208 C   0  0  0  0  0  0  0  0  0  0  0  0
    1.5135   -3.2544    1.0739 C   0  0  0  0  0  0  0  0  0  0  0  0
    0.2911   -3.5333    1.7088 C   0  0  0  0  0  0  0  0  0  0  0  0
    0.2050   -4.5078    2.6368 O   0  0  0  0  0  0  0  0  0  0  0  0
   -0.8510   -2.7867    1.3862 C   0  0  0  0  0  0  0  0  0  0  0  0
   -0.7831   -1.7762    0.4216 C   0  0  0  0  0  0  0  0  0  0  0  0
   -1.8900   -1.0463    0.1177 O   0  0  0  0  0  0  0  0  0  0  0  0
   -1.9675   -0.1729   -0.9675 C   0  0  1  0  0  0  0  0  0  0  0  0
   -2.2059   -0.9071   -2.1442 O   0  0  0  0  0  0  0  0  0  0  0  0
    2.7853   -1.9305   -0.4550 O   0  0  0  0  0  0  0  0  0  0  0  0
    3.0452   -0.7789   -1.1980 C   0  0  2  0  0  0  0  0  0  0  0  0
    4.3888   -0.2172   -0.7739 C   0  0  0  0  0  0  0  0  0  0  0  0
    4.6330    0.1140    0.5736 C   0  0  0  0  0  0  0  0  0  0  0  0
    5.8686    0.6309    0.9661 C   0  0  0  0  0  0  0  0  0  0  0  0
    6.8835    0.8229    0.0200 C   0  0  0  0  0  0  0  0  0  0  0  0
    8.0805    1.3238    0.3865 O   0  0  0  0  0  0  0  0  0  0  0  0
    6.6533    0.4891   -1.3187 C   0  0  0  0  0  0  0  0  0  0  0  0
    5.4162   -0.0309   -1.7154 C   0  0  0  0  0  0  0  0  0  0  0  0
    1.9024    0.2920   -1.0837 C   0  0  1  0  0  0  0  0  0  0  0  0
    2.0472    1.2590   -2.0966 O   0  0  0  0  0  0  0  0  0  0  0  0
    1.9218    0.9206    0.1591 O   0  0  0  0  0  0  0  0  0  0  0  0
   -4.6775   -0.3934    0.7403 C   0  0  0  0  0  0  0  0  0  0  0  0
   -5.9362   -0.9339    1.0179 C   0  0  0  0  0  0  0  0  0  0  0  0
   -8.9444   -1.2282   -0.2153 H   0  0  0  0  0  0  0  0  0  0  0  0
   -7.5698    0.0266   -1.8095 H   0  0  0  0  0  0  0  0  0  0  0  0
   -5.3623    0.9792   -2.3076 H   0  0  0  0  0  0  0  0  0  0  0  0
   -3.1610    1.4753   -1.7226 H   0  0  0  0  0  0  0  0  0  0  0  0
   -2.2158    3.3005    2.3288 H   0  0  0  0  0  0  0  0  0  0  0  0
   -0.6314    4.1985    3.9667 H   0  0  0  0  0  0  0  0  0  0  0  0
    2.0063    2.4493    2.2898 H   0  0  0  0  0  0  0  0  0  0  0  0
   -0.6620    1.2658   -1.9720 H   0  0  0  0  0  0  0  0  0  0  0  0
    0.5094   -0.9155   -2.2598 H   0  0  0  0  0  0  0  0  0  0  0  0
    2.4022   -3.8167    1.3326 H   0  0  0  0  0  0  0  0  0  0  0  0
    0.9698   -5.0438    2.8912 H   0  0  0  0  0  0  0  0  0  0  0  0
   -1.7910   -2.9945    1.8824 H   0  0  0  0  0  0  0  0  0  0  0  0
   -2.9835   -1.4994   -1.9711 H   0  0  0  0  0  0  0  0  0  0  0  0
    3.0945   -1.0921   -2.2651 H   0  0  0  0  0  0  0  0  0  0  0  0
    3.8698   -0.0339    1.3266 H   0  0  0  0  0  0  0  0  0  0  0  0
    6.0357    0.8800    2.0068 H   0  0  0  0  0  0  0  0  0  0  0  0
    8.2763    1.5670    1.3026 H   0  0  0  0  0  0  0  0  0  0  0  0
    7.4348    0.6332   -2.0545 H   0  0  0  0  0  0  0  0  0  0  0  0
    5.2594   -0.2810   -2.7572 H   0  0  0  0  0  0  0  0  0  0  0  0
    2.8499    1.8007   -1.8781 H   0  0  0  0  0  0  0  0  0  0  0  0
   -3.8892   -0.5100    1.4721 H   0  0  0  0  0  0  0  0  0  0  0  0
   -6.0987   -1.4634    1.9485 H   0  0  0  0  0  0  0  0  0  0  0  0
  1  2  1  0  0  0  0
  1 41  1  0  0  0  0
  2  3  2  0  0  0  0
  3  4  1  0  0  0  0
  3 42  1  0  0  0  0
  4  5  2  0  0  0  0
  4 43  1  0  0  0  0
  5 39  1  0  0  0  0
  6  5  1  0  0  0  0
  6  7  1  0  0  0  0
  6 44  1  6  0  0  0
  7  8  1  0  0  0  0
  8  9  2  0  0  0  0
  9 10  1  0  0  0  0
  9 45  1  0  0  0  0
 10 11  1  0  0  0  0
 10 12  2  0  0  0  0
 11 46  1  0  0  0  0
 12 13  1  0  0  0  0
 12 47  1  0  0  0  0
 13 14  2  0  0  0  0
 14  8  1  0  0  0  0
 15 14  1  0  0  0  0
 15 16  1  0  0  0  0
 15 48  1  6  0  0  0
 16 17  1  0  0  0  0
 16 49  1  6  0  0  0
 17 18  2  0  0  0  0
 18 19  1  0  0  0  0
 18 27  1  0  0  0  0
 19 20  2  0  0  0  0
 19 50  1  0  0  0  0
 20 21  1  0  0  0  0
 20 22  1  0  0  0  0
 21 51  1  0  0  0  0
 22 23  2  0  0  0  0
 22 52  1  0  0  0  0
 23 24  1  0  0  0  0
 23 17  1  0  0  0  0
 24 25  1  0  0  0  0
 25 26  1  6  0  0  0
 25  6  1  0  0  0  0
 25 15  1  0  0  0  0
 26 53  1  0  0  0  0
 27 28  1  0  0  0  0
 28 29  1  0  0  0  0
 28 36  1  0  0  0  0
 28 54  1  6  0  0  0
 29 30  2  0  0  0  0
 30 31  1  0  0  0  0
 30 55  1  0  0  0  0
 31 32  2  0  0  0  0
 31 56  1  0  0  0  0
 32 33  1  0  0  0  0
 32 34  1  0  0  0  0
 33 57  1  0  0  0  0
 34 35  2  0  0  0  0
 34 58  1  0  0  0  0
 35 29  1  0  0  0  0
 35 59  1  0  0  0  0
 36 37  1  6  0  0  0
 36 38  1  0  0  0  0
 36 16  1  0  0  0  0
 37 60  1  0  0  0  0
 38 13  1  0  0  0  0
 39 40  2  0  0  0  0
 39 61  1  0  0  0  0
 40  2  1  0  0  0  0
 40 62  1  0  0  0  0
M  END
>  <IDENTIFIER>
CNP0215087.1

>  <Energy>
504.995

$$$$
