
 OpenBabel09082521452D

156155  0  0  0  0  0  0  0  0999 V2000
   25.9808   15.0000    0.0000 C   0  0  0  0  0  0  0  0  0  0  0  0
   24.6817   14.2500    0.0000 C   0  0  0  0  0  0  0  0  0  0  0  0
   23.7670   12.8374    0.3561 C   0  0  0  0  0  0  0  0  0  0  0  0
   22.0836   12.7500    0.0000 C   0  0  0  0  0  0  0  0  0  0  0  0
   20.7846   12.0000    0.0000 C   0  0  0  0  0  2  0  0  0  0  0  0
   19.4856   11.2500    0.0000 C   0  0  0  0  0  0  0  0  0  0  0  0
   18.1865   10.5000    0.0000 C   0  0  0  0  0  0  0  0  0  0  0  0
   16.8875    9.7500    0.0000 C   0  0  0  0  0  2  0  0  0  0  0  0
   15.5885    9.0000    0.0000 C   0  0  0  0  0  0  0  0  0  0  0  0
   13.9442    8.6533    0.0380 C   0  0  0  0  0  0  0  0  0  0  0  0
   13.3416    7.0632   -0.0226 C   0  0  0  0  0  0  0  0  0  0  0  0
   11.6913    6.7500    0.0000 C   0  0  0  0  0  0  0  0  0  0  0  0
   10.3923    6.0000    0.0000 C   0  0  0  0  0  0  0  0  0  0  0  0
    9.0933    5.2500    0.0000 C   0  0  0  0  0  0  0  0  0  0  0  0
    7.7942    4.5000    0.0000 C   0  0  0  0  0  0  0  0  0  0  0  0
    6.4952    3.7500    0.0000 C   0  0  0  0  0  0  0  0  0  0  0  0
    5.1962    3.0000    0.0000 C   0  0  0  0  0  0  0  0  0  0  0  0
    3.5739    2.7560   -0.1217 C   0  0  0  0  0  0  0  0  0  0  0  0
    3.0136    1.2047    0.1451 C   0  0  0  0  0  0  0  0  0  0  0  0
    1.4324    0.7891   -0.0746 C   0  0  0  0  0  0  0  0  0  0  0  0
    0.7532   -0.5932    0.4518 C   0  0  0  0  0  0  0  0  0  0  0  0
    0.8364   -0.8136    1.6516 O   0  0  0  0  0  0  0  0  0  0  0  0
   -0.0772   -1.4733   -0.3223 O   0  0  0  0  0  0  0  0  0  0  0  0
   -1.2990   -2.2500    0.0000 C   0  0  2  0  0  0  0  0  0  0  0  0
   -2.0490   -0.9510   -0.0000 C   0  0  0  0  0  0  0  0  0  0  0  0
   -2.6097    0.1875    0.7533 O   0  0  0  0  0  0  0  0  0  0  0  0
   -3.7490    0.9592    0.2460 C   0  0  0  0  0  0  0  0  0  0  0  0
   -4.2161    0.5995   -0.8251 O   0  0  0  0  0  0  0  0  0  0  0  0
   -4.5200    2.2783    0.8711 C   0  0  0  0  0  0  0  0  0  0  0  0
   -5.7990    2.9462    0.0000 C   0  0  0  0  0  0  0  0  0  0  0  0
   -6.5490    4.2452    0.0000 C   0  0  0  0  0  0  0  0  0  0  0  0
   -7.2990    5.5442    0.0000 C   0  0  0  0  0  0  0  0  0  0  0  0
   -8.0490    6.8433    0.0000 C   0  0  0  0  0  0  0  0  0  0  0  0
   -8.7990    8.1423    0.0000 C   0  0  0  0  0  0  0  0  0  0  0  0
   -9.5490    9.4413    0.0000 C   0  0  0  0  0  0  0  0  0  0  0  0
  -10.2990   10.7404    0.0000 C   0  0  0  0  0  0  0  0  0  0  0  0
  -11.0490   12.0394   -0.0000 C   0  0  0  0  0  0  0  0  0  0  0  0
   -0.5490   -3.5490    0.0000 C   0  0  0  0  0  0  0  0  0  0  0  0
    0.7423   -4.0041    0.5604 O   0  0  0  0  0  0  0  0  0  0  0  0
    1.4007   -5.2389    0.1401 C   0  0  0  0  0  0  0  0  0  0  0  0
    0.9034   -5.8160   -0.8157 O   0  0  0  0  0  0  0  0  0  0  0  0
    2.7267   -6.0232    0.7592 C   0  0  0  0  0  0  0  0  0  0  0  0
    3.2010   -7.4462    0.0000 C   0  0  0  0  0  0  0  0  0  0  0  0
    3.9510   -8.7452    0.0000 C   0  0  0  0  0  0  0  0  0  0  0  0
    4.7010  -10.0442    0.0000 C   0  0  0  0  0  0  0  0  0  0  0  0
    5.4510  -11.3433    0.0000 C   0  0  0  0  0  0  0  0  0  0  0  0
    6.2010  -12.6423    0.0000 C   0  0  0  0  0  0  0  0  0  0  0  0
    6.9510  -13.9413    0.0000 C   0  0  0  0  0  0  0  0  0  0  0  0
    7.3113  -15.5644   -0.2407 C   0  0  0  0  0  0  0  0  0  0  0  0
    8.8249  -16.2113    0.1903 C   0  0  0  0  0  0  0  0  0  0  0  0
    9.2010  -17.8385    0.0000 C   0  0  0  0  0  0  0  0  0  0  0  0
    9.9510  -19.1375    0.0000 C   0  0  0  0  0  2  0  0  0  0  0  0
   10.7010  -20.4365    0.0000 C   0  0  0  0  0  0  0  0  0  0  0  0
   11.4510  -21.7356    0.0000 C   0  0  0  0  0  0  0  0  0  0  0  0
   12.2010  -23.0346    0.0000 C   0  0  0  0  0  2  0  0  0  0  0  0
   12.9510  -24.3336    0.0000 C   0  0  0  0  0  0  0  0  0  0  0  0
   13.2378  -25.8936   -0.6568 C   0  0  0  0  0  0  0  0  0  0  0  0
   14.4510  -26.9317    0.0000 C   0  0  0  0  0  0  0  0  0  0  0  0
   15.2010  -28.2308    0.0000 C   0  0  0  0  0  0  0  0  0  0  0  0
   15.7500  -26.1817    0.0000 C   0  0  0  0  0  0  0  0  0  0  0  0
   26.5196   14.2914   -0.6678 H   0  0  0  0  0  0  0  0  0  0  0  0
   25.6415   15.9166   -0.5426 H   0  0  0  0  0  0  0  0  0  0  0  0
   26.9075   15.5350    0.0000 H   0  0  0  0  0  0  0  0  0  0  0  0
   24.0349   14.9859    0.5301 H   0  0  0  0  0  0  0  0  0  0  0  0
   24.3891   14.3094   -1.0784 H   0  0  0  0  0  0  0  0  0  0  0  0
   23.8842   12.6331    1.4402 H   0  0  0  0  0  0  0  0  0  0  0  0
   24.2505   12.0009   -0.1921 H   0  0  0  0  0  0  0  0  0  0  0  0
   22.1050   13.0497   -1.0682 H   0  0  0  0  0  0  0  0  0  0  0  0
   21.7453   13.6576    0.5415 H   0  0  0  0  0  0  0  0  0  0  0  0
   19.8547   10.6943    0.8959 H   0  0  0  0  0  0  0  0  0  0  0  0
   19.8547   10.6944   -0.8960 H   0  0  0  0  0  0  0  0  0  0  0  0
   17.8174   11.0556    0.8960 H   0  0  0  0  0  0  0  0  0  0  0  0
   17.8174   11.0557   -0.8960 H   0  0  0  0  0  0  0  0  0  0  0  0
   15.8023    8.4334   -0.9302 H   0  0  0  0  0  0  0  0  0  0  0  0
   15.8663    8.3243    0.8357 H   0  0  0  0  0  0  0  0  0  0  0  0
   13.5468    9.1046    0.9714 H   0  0  0  0  0  0  0  0  0  0  0  0
   13.4851    9.2012   -0.8114 H   0  0  0  0  0  0  0  0  0  0  0  0
   13.7858    6.5198    0.8375 H   0  0  0  0  0  0  0  0  0  0  0  0
   13.7436    6.5996   -0.9481 H   0  0  0  0  0  0  0  0  0  0  0  0
   11.4612    7.4245   -0.8610 H   0  0  0  0  0  0  0  0  0  0  0  0
   11.4921    7.4081    0.8865 H   0  0  0  0  0  0  0  0  0  0  0  0
   10.8569    5.4830    0.9037 H   0  0  0  0  0  0  0  0  0  0  0  0
   10.6951    5.4906   -0.9534 H   0  0  0  0  0  0  0  0  0  0  0  0
    8.8381    5.7271    0.9933 H   0  0  0  0  0  0  0  0  0  0  0  0
    9.5695    4.2355    0.2292 H   0  0  0  0  0  0  0  0  0  0  0  0
    7.3268    5.5069   -0.2680 H   0  0  0  0  0  0  0  0  0  0  0  0
    8.0625    3.9967   -0.9815 H   0  0  0  0  0  0  0  0  0  0  0  0
    6.0765    4.1874   -0.9653 H   0  0  0  0  0  0  0  0  0  0  0  0
    6.1368    4.3435    0.8847 H   0  0  0  0  0  0  0  0  0  0  0  0
    5.4725    2.2264   -0.7617 H   0  0  0  0  0  0  0  0  0  0  0  0
    5.3273    2.4492    0.9646 H   0  0  0  0  0  0  0  0  0  0  0  0
    3.2699    3.0624   -1.1443 H   0  0  0  0  0  0  0  0  0  0  0  0
    3.0600    3.4262    0.5994 H   0  0  0  0  0  0  0  0  0  0  0  0
    3.6067    0.5116   -0.4885 H   0  0  0  0  0  0  0  0  0  0  0  0
    3.2605    0.9764    1.2038 H   0  0  0  0  0  0  0  0  0  0  0  0
    1.1964    0.9069   -1.1532 H   0  0  0  0  0  0  0  0  0  0  0  0
    0.8715    1.5802    0.4649 H   0  0  0  0  0  0  0  0  0  0  0  0
   -1.8167   -2.5760   -0.9570 H   0  0  0  0  0  0  0  0  0  0  0  0
   -3.0603   -1.4473   -0.0443 H   0  0  0  0  0  0  0  0  0  0  0  0
   -1.9277   -0.5034   -1.0299 H   0  0  0  0  0  0  0  0  0  0  0  0
   -3.7489    3.0667    0.9852 H   0  0  0  0  0  0  0  0  0  0  0  0
   -4.8994    2.0215    1.8829 H   0  0  0  0  0  0  0  0  0  0  0  0
   -6.5465    2.1201   -0.1011 H   0  0  0  0  0  0  0  0  0  0  0  0
   -5.3362    2.9866   -1.0141 H   0  0  0  0  0  0  0  0  0  0  0  0
   -5.5779    4.7931    0.1079 H   0  0  0  0  0  0  0  0  0  0  0  0
   -6.9365    3.8481    0.9916 H   0  0  0  0  0  0  0  0  0  0  0  0
   -7.1163    5.7576    1.1108 H   0  0  0  0  0  0  0  0  0  0  0  0
   -8.2636    4.9624   -0.0722 H   0  0  0  0  0  0  0  0  0  0  0  0
   -7.0066    7.3219   -0.0488 H   0  0  0  0  0  0  0  0  0  0  0  0
   -8.3766    6.6740   -1.0673 H   0  0  0  0  0  0  0  0  0  0  0  0
   -8.1649    8.6655   -0.7947 H   0  0  0  0  0  0  0  0  0  0  0  0
   -8.3695    8.3790    1.0164 H   0  0  0  0  0  0  0  0  0  0  0  0
  -10.2399    9.0574    0.8102 H   0  0  0  0  0  0  0  0  0  0  0  0
  -10.1164    9.1110   -0.9235 H   0  0  0  0  0  0  0  0  0  0  0  0
   -9.7169   11.0882   -0.8979 H   0  0  0  0  0  0  0  0  0  0  0  0
   -9.7255   11.0071    0.9390 H   0  0  0  0  0  0  0  0  0  0  0  0
  -10.2204   12.7884    0.1527 H   0  0  0  0  0  0  0  0  0  0  0  0
  -11.6454   11.8468    0.9231 H   0  0  0  0  0  0  0  0  0  0  0  0
  -11.5840   12.9660    0.0000 H   0  0  0  0  0  0  0  0  0  0  0  0
   -0.3769   -3.8245   -1.0825 H   0  0  0  0  0  0  0  0  0  0  0  0
   -1.2965   -4.2992    0.3444 H   0  0  0  0  0  0  0  0  0  0  0  0
    2.4722   -6.2746    1.8099 H   0  0  0  0  0  0  0  0  0  0  0  0
    3.5942   -5.3307    0.7740 H   0  0  0  0  0  0  0  0  0  0  0  0
    3.4493   -7.0405   -1.0089 H   0  0  0  0  0  0  0  0  0  0  0  0
    2.1339   -7.8065   -0.0539 H   0  0  0  0  0  0  0  0  0  0  0  0
    3.3265   -9.1617   -0.8485 H   0  0  0  0  0  0  0  0  0  0  0  0
    3.4788   -9.0183    0.9818 H   0  0  0  0  0  0  0  0  0  0  0  0
    5.4474   -9.5639    0.7005 H   0  0  0  0  0  0  0  0  0  0  0  0
    5.1948   -9.8029   -0.9907 H   0  0  0  0  0  0  0  0  0  0  0  0
    4.5616  -11.7211   -0.6023 H   0  0  0  0  0  0  0  0  0  0  0  0
    5.2190  -11.4844    1.0973 H   0  0  0  0  0  0  0  0  0  0  0  0
    5.3288  -13.3056    0.3009 H   0  0  0  0  0  0  0  0  0  0  0  0
    6.2906  -12.5962   -1.1212 H   0  0  0  0  0  0  0  0  0  0  0  0
    7.1828  -13.9511    1.0931 H   0  0  0  0  0  0  0  0  0  0  0  0
    7.9155  -13.5798   -0.4408 H   0  0  0  0  0  0  0  0  0  0  0  0
    7.1736  -15.7714   -1.3224 H   0  0  0  0  0  0  0  0  0  0  0  0
    6.5401  -16.1468    0.3066 H   0  0  0  0  0  0  0  0  0  0  0  0
    9.5828  -15.6413   -0.3877 H   0  0  0  0  0  0  0  0  0  0  0  0
    8.9840  -15.9726    1.2625 H   0  0  0  0  0  0  0  0  0  0  0  0
    8.3365  -18.2233    0.5802 H   0  0  0  0  0  0  0  0  0  0  0  0
    8.9002  -17.9006   -1.0667 H   0  0  0  0  0  0  0  0  0  0  0  0
   11.2565  -20.0675   -0.8961 H   0  0  0  0  0  0  0  0  0  0  0  0
   11.2568  -20.0673    0.8958 H   0  0  0  0  0  0  0  0  0  0  0  0
   10.8952  -22.1048   -0.8958 H   0  0  0  0  0  0  0  0  0  0  0  0
   10.8955  -22.1046    0.8961 H   0  0  0  0  0  0  0  0  0  0  0  0
   12.8432  -24.5973    1.0725 H   0  0  0  0  0  0  0  0  0  0  0  0
   13.9599  -23.8932   -0.1041 H   0  0  0  0  0  0  0  0  0  0  0  0
   12.2788  -26.4485   -0.5910 H   0  0  0  0  0  0  0  0  0  0  0  0
   13.4615  -25.7558   -1.7355 H   0  0  0  0  0  0  0  0  0  0  0  0
   14.0911  -26.9381    1.0588 H   0  0  0  0  0  0  0  0  0  0  0  0
   14.3108  -28.8742    0.1863 H   0  0  0  0  0  0  0  0  0  0  0  0
   15.3885  -28.2848   -1.1029 H   0  0  0  0  0  0  0  0  0  0  0  0
   15.7360  -29.1575    0.0000 H   0  0  0  0  0  0  0  0  0  0  0  0
   15.7954  -25.9828   -1.0971 H   0  0  0  0  0  0  0  0  0  0  0  0
   15.4280  -25.2954    0.5786 H   0  0  0  0  0  0  0  0  0  0  0  0
   16.6766  -25.6467    0.0000 H   0  0  0  0  0  0  0  0  0  0  0  0
  1  2  1  0  0  0  0
  1 61  1  0  0  0  0
  1 62  1  0  0  0  0
  1 63  1  0  0  0  0
  2  3  1  0  0  0  0
  2 64  1  0  0  0  0
  2 65  1  0  0  0  0
  3  4  1  0  0  0  0
  3 66  1  0  0  0  0
  3 67  1  0  0  0  0
  4  5  1  0  0  0  0
  4 68  1  0  0  0  0
  4 69  1  0  0  0  0
  5  6  1  0  0  0  0
  6  7  1  0  0  0  0
  6 70  1  0  0  0  0
  6 71  1  0  0  0  0
  7  8  1  0  0  0  0
  7 72  1  0  0  0  0
  7 73  1  0  0  0  0
  8  9  1  0  0  0  0
  9 10  1  0  0  0  0
  9 74  1  0  0  0  0
  9 75  1  0  0  0  0
 10 11  1  0  0  0  0
 10 76  1  0  0  0  0
 10 77  1  0  0  0  0
 11 12  1  0  0  0  0
 11 78  1  0  0  0  0
 11 79  1  0  0  0  0
 12 13  1  0  0  0  0
 12 80  1  0  0  0  0
 12 81  1  0  0  0  0
 13 14  1  0  0  0  0
 13 82  1  0  0  0  0
 13 83  1  0  0  0  0
 14 15  1  0  0  0  0
 14 84  1  0  0  0  0
 14 85  1  0  0  0  0
 15 16  1  0  0  0  0
 15 86  1  0  0  0  0
 15 87  1  0  0  0  0
 16 17  1  0  0  0  0
 16 88  1  0  0  0  0
 16 89  1  0  0  0  0
 17 18  1  0  0  0  0
 17 90  1  0  0  0  0
 17 91  1  0  0  0  0
 18 19  1  0  0  0  0
 18 92  1  0  0  0  0
 18 93  1  0  0  0  0
 19 20  1  0  0  0  0
 19 94  1  0  0  0  0
 19 95  1  0  0  0  0
 20 21  1  0  0  0  0
 20 96  1  0  0  0  0
 20 97  1  0  0  0  0
 21 22  2  0  0  0  0
 21 23  1  0  0  0  0
 23 24  1  0  0  0  0
 24 25  1  0  0  0  0
 24 38  1  0  0  0  0
 24 98  1  6  0  0  0
 25 26  1  0  0  0  0
 25 99  1  0  0  0  0
 25100  1  0  0  0  0
 26 27  1  0  0  0  0
 27 28  2  0  0  0  0
 27 29  1  0  0  0  0
 29 30  1  0  0  0  0
 29101  1  0  0  0  0
 29102  1  0  0  0  0
 30 31  1  0  0  0  0
 30103  1  0  0  0  0
 30104  1  0  0  0  0
 31 32  1  0  0  0  0
 31105  1  0  0  0  0
 31106  1  0  0  0  0
 32 33  1  0  0  0  0
 32107  1  0  0  0  0
 32108  1  0  0  0  0
 33 34  1  0  0  0  0
 33109  1  0  0  0  0
 33110  1  0  0  0  0
 34 35  1  0  0  0  0
 34111  1  0  0  0  0
 34112  1  0  0  0  0
 35 36  1  0  0  0  0
 35113  1  0  0  0  0
 35114  1  0  0  0  0
 36 37  1  0  0  0  0
 36115  1  0  0  0  0
 36116  1  0  0  0  0
 37117  1  0  0  0  0
 37118  1  0  0  0  0
 37119  1  0  0  0  0
 38 39  1  0  0  0  0
 38120  1  0  0  0  0
 38121  1  0  0  0  0
 39 40  1  0  0  0  0
 40 41  2  0  0  0  0
 40 42  1  0  0  0  0
 42 43  1  0  0  0  0
 42122  1  0  0  0  0
 42123  1  0  0  0  0
 43 44  1  0  0  0  0
 43124  1  0  0  0  0
 43125  1  0  0  0  0
 44 45  1  0  0  0  0
 44126  1  0  0  0  0
 44127  1  0  0  0  0
 45 46  1  0  0  0  0
 45128  1  0  0  0  0
 45129  1  0  0  0  0
 46 47  1  0  0  0  0
 46130  1  0  0  0  0
 46131  1  0  0  0  0
 47 48  1  0  0  0  0
 47132  1  0  0  0  0
 47133  1  0  0  0  0
 48 49  1  0  0  0  0
 48134  1  0  0  0  0
 48135  1  0  0  0  0
 49 50  1  0  0  0  0
 49136  1  0  0  0  0
 49137  1  0  0  0  0
 50 51  1  0  0  0  0
 50138  1  0  0  0  0
 50139  1  0  0  0  0
 51 52  1  0  0  0  0
 51140  1  0  0  0  0
 51141  1  0  0  0  0
 52 53  1  0  0  0  0
 53 54  1  0  0  0  0
 53142  1  0  0  0  0
 53143  1  0  0  0  0
 54 55  1  0  0  0  0
 54144  1  0  0  0  0
 54145  1  0  0  0  0
 55 56  1  0  0  0  0
 56 57  1  0  0  0  0
 56146  1  0  0  0  0
 56147  1  0  0  0  0
 57 58  1  0  0  0  0
 57148  1  0  0  0  0
 57149  1  0  0  0  0
 58 59  1  0  0  0  0
 58 60  1  0  0  0  0
 58150  1  0  0  0  0
 59151  1  0  0  0  0
 59152  1  0  0  0  0
 59153  1  0  0  0  0
 60154  1  0  0  0  0
 60155  1  0  0  0  0
 60156  1  0  0  0  0
M  END
>  <IDENTIFIER>
CNP0542704.1

>  <Energy>
14222.7

$$$$
