
 OpenBabel09102523563D

 66 69  0  0  0  0  0  0  0  0999 V2000
   -4.8064   -1.0658   -1.1878 C   0  0  0  0  0  0  0  0  0  0  0  0
   -4.0417    0.1474   -0.6071 C   0  0  1  0  0  0  0  0  0  0  0  0
   -4.3168    0.3298    0.9121 C   0  0  0  0  0  0  0  0  0  0  0  0
   -5.8177    0.4072    1.2941 C   0  0  0  0  0  0  0  0  0  0  0  0
   -6.5618    1.5988    0.7190 C   0  0  0  0  0  0  0  0  0  0  0  0
   -5.9870    2.4506    0.0620 O   0  0  0  0  0  0  0  0  0  0  0  0
   -7.8835    1.7395    0.9532 O   0  0  0  0  0  0  0  0  0  0  0  0
   -2.5392    0.1626   -1.0989 C   0  0  1  0  0  0  0  0  0  0  0  0
   -1.7763    1.4518   -0.7537 C   0  0  0  0  0  0  0  0  0  0  0  0
   -1.0854    1.1617    0.5781 C   0  0  0  0  0  0  0  0  0  0  0  0
   -0.7234   -0.3419    0.5423 C   0  0  2  0  0  0  0  0  0  0  0  0
    0.8004   -0.6819    0.5313 C   0  0  2  0  0  0  0  0  0  0  0  0
    1.5202   -0.2792    1.8000 C   0  0  0  0  0  0  0  0  0  0  0  0
    2.9507   -0.8627    1.7941 C   0  0  0  0  0  0  0  0  0  0  0  0
    3.6339   -0.9651    0.3776 C   0  0  2  0  0  0  0  0  0  0  0  0
    5.1862   -0.9080    0.4942 C   0  0  0  0  0  0  0  0  0  0  0  0
    5.7168    0.5048    0.8647 C   0  0  2  0  0  0  0  0  0  0  0  0
    5.4299    0.8102    2.2017 O   0  0  0  0  0  0  0  0  0  0  0  0
    5.1236    1.5881   -0.0619 C   0  0  0  0  0  0  0  0  0  0  0  0
    3.5761    1.4930   -0.1508 C   0  0  0  0  0  0  0  0  0  0  0  0
    3.0912    0.0802   -0.6438 C   0  0  1  0  0  0  0  0  0  0  0  0
    3.6841   -0.1372   -2.0811 C   0  0  0  0  0  0  0  0  0  0  0  0
    1.4838   -0.0364   -0.7132 C   0  0  1  0  0  0  0  0  0  0  0  0
    0.9337   -0.8153   -1.9315 C   0  0  0  0  0  0  0  0  0  0  0  0
   -0.5477   -1.0952   -1.9199 C   0  0  0  0  0  0  0  0  0  0  0  0
   -1.0208   -1.5744   -2.9418 O   0  0  0  0  0  0  0  0  0  0  0  0
   -1.4751   -0.9230   -0.7001 C   0  0  2  0  0  0  0  0  0  0  0  0
   -2.0062   -2.3358   -0.3772 C   0  0  0  0  0  0  0  0  0  0  0  0
   -5.9018   -0.9167   -1.1142 H   0  0  0  0  0  0  0  0  0  0  0  0
   -4.5766   -2.0073   -0.6605 H   0  0  0  0  0  0  0  0  0  0  0  0
   -4.5890   -1.1867   -2.2701 H   0  0  0  0  0  0  0  0  0  0  0  0
   -4.4834    1.0238   -1.1232 H   0  0  0  0  0  0  0  0  0  0  0  0
   -3.8781    1.2799    1.2627 H   0  0  0  0  0  0  0  0  0  0  0  0
   -3.8590   -0.5141    1.4675 H   0  0  0  0  0  0  0  0  0  0  0  0
   -5.8964    0.4755    2.3999 H   0  0  0  0  0  0  0  0  0  0  0  0
   -6.3326   -0.5273    0.9972 H   0  0  0  0  0  0  0  0  0  0  0  0
   -8.3822    1.0859    1.4603 H   0  0  0  0  0  0  0  0  0  0  0  0
   -2.6902    0.1494   -2.2031 H   0  0  0  0  0  0  0  0  0  0  0  0
   -2.3786    2.3848   -0.7775 H   0  0  0  0  0  0  0  0  0  0  0  0
   -0.9707    1.5698   -1.5098 H   0  0  0  0  0  0  0  0  0  0  0  0
   -1.8116    1.2974    1.3952 H   0  0  0  0  0  0  0  0  0  0  0  0
   -0.2616    1.8621    0.8254 H   0  0  0  0  0  0  0  0  0  0  0  0
   -1.1527   -0.7723    1.4768 H   0  0  0  0  0  0  0  0  0  0  0  0
    0.8966   -1.7925    0.4918 H   0  0  0  0  0  0  0  0  0  0  0  0
    1.0014   -0.6346    2.7168 H   0  0  0  0  0  0  0  0  0  0  0  0
    1.5317    0.8257    1.8536 H   0  0  0  0  0  0  0  0  0  0  0  0
    2.9469   -1.8980    2.2013 H   0  0  0  0  0  0  0  0  0  0  0  0
    3.4867   -0.2620    2.5408 H   0  0  0  0  0  0  0  0  0  0  0  0
    3.3402   -1.9584   -0.0330 H   0  0  0  0  0  0  0  0  0  0  0  0
    5.6232   -1.1909   -0.4856 H   0  0  0  0  0  0  0  0  0  0  0  0
    5.5540   -1.6661    1.2186 H   0  0  0  0  0  0  0  0  0  0  0  0
    6.8276    0.4879    0.7579 H   0  0  0  0  0  0  0  0  0  0  0  0
    5.9778    1.6025    2.4444 H   0  0  0  0  0  0  0  0  0  0  0  0
    5.5744    1.4961   -1.0659 H   0  0  0  0  0  0  0  0  0  0  0  0
    5.4246    2.5958    0.2979 H   0  0  0  0  0  0  0  0  0  0  0  0
    3.2118    2.2818   -0.8439 H   0  0  0  0  0  0  0  0  0  0  0  0
    3.1767    1.7361    0.8489 H   0  0  0  0  0  0  0  0  0  0  0  0
    3.2922    0.6355   -2.7770 H   0  0  0  0  0  0  0  0  0  0  0  0
    3.4447   -1.1423   -2.4789 H   0  0  0  0  0  0  0  0  0  0  0  0
    4.7814   -0.0924   -2.1544 H   0  0  0  0  0  0  0  0  0  0  0  0
    1.1308    1.0066   -0.8348 H   0  0  0  0  0  0  0  0  0  0  0  0
    1.4130   -1.8155   -1.9975 H   0  0  0  0  0  0  0  0  0  0  0  0
    1.1620   -0.2354   -2.8506 H   0  0  0  0  0  0  0  0  0  0  0  0
   -2.5408   -2.7781   -1.2423 H   0  0  0  0  0  0  0  0  0  0  0  0
   -2.6783   -2.3160    0.5044 H   0  0  0  0  0  0  0  0  0  0  0  0
   -1.1611   -3.0129   -0.1246 H   0  0  0  0  0  0  0  0  0  0  0  0
  1 29  1  0  0  0  0
  1 30  1  0  0  0  0
  1 31  1  0  0  0  0
  2  1  1  0  0  0  0
  2  3  1  0  0  0  0
  2  8  1  0  0  0  0
  2 32  1  6  0  0  0
  3  4  1  0  0  0  0
  3 33  1  0  0  0  0
  3 34  1  0  0  0  0
  4  5  1  0  0  0  0
  4 35  1  0  0  0  0
  4 36  1  0  0  0  0
  5  6  2  0  0  0  0
  5  7  1  0  0  0  0
  7 37  1  0  0  0  0
  8  9  1  0  0  0  0
  8 38  1  6  0  0  0
  9 10  1  0  0  0  0
  9 39  1  0  0  0  0
  9 40  1  0  0  0  0
 10 41  1  0  0  0  0
 10 42  1  0  0  0  0
 11 10  1  0  0  0  0
 11 12  1  0  0  0  0
 11 43  1  1  0  0  0
 12 13  1  0  0  0  0
 12 44  1  6  0  0  0
 13 14  1  0  0  0  0
 13 45  1  0  0  0  0
 13 46  1  0  0  0  0
 14 47  1  0  0  0  0
 14 48  1  0  0  0  0
 15 14  1  0  0  0  0
 15 16  1  0  0  0  0
 15 49  1  6  0  0  0
 16 17  1  0  0  0  0
 16 50  1  0  0  0  0
 16 51  1  0  0  0  0
 17 18  1  0  0  0  0
 17 19  1  0  0  0  0
 17 52  1  6  0  0  0
 18 53  1  0  0  0  0
 19 20  1  0  0  0  0
 19 54  1  0  0  0  0
 19 55  1  0  0  0  0
 20 21  1  0  0  0  0
 20 56  1  0  0  0  0
 20 57  1  0  0  0  0
 21 22  1  6  0  0  0
 21 23  1  0  0  0  0
 21 15  1  0  0  0  0
 22 58  1  0  0  0  0
 22 59  1  0  0  0  0
 22 60  1  0  0  0  0
 23 24  1  0  0  0  0
 23 12  1  0  0  0  0
 23 61  1  6  0  0  0
 24 25  1  0  0  0  0
 24 62  1  0  0  0  0
 24 63  1  0  0  0  0
 25 26  2  0  0  0  0
 25 27  1  0  0  0  0
 27 28  1  1  0  0  0
 27  8  1  0  0  0  0
 27 11  1  0  0  0  0
 28 64  1  0  0  0  0
 28 65  1  0  0  0  0
 28 66  1  0  0  0  0
M  END
>  <IDENTIFIER>
CNP0303607.3

>  <Energy>
842.695

$$$$
