
 OpenBabel09052505163D

 53 56  0  0  0  0  0  0  0  0999 V2000
   -5.2812    3.1991    0.7042 C   0  0  0  0  0  0  0  0  0  0  0  0
   -5.2267    1.8200    0.7121 O   0  0  0  0  0  0  0  0  0  0  0  0
   -4.3702    1.0512   -0.0126 C   0  0  0  0  0  0  0  0  0  0  0  0
   -3.4091    1.6053   -0.8791 C   0  0  0  0  0  0  0  0  0  0  0  0
   -2.5518    0.7813   -1.6116 C   0  0  0  0  0  0  0  0  0  0  0  0
   -2.6267   -0.6150   -1.4898 C   0  0  0  0  0  0  0  0  0  0  0  0
   -1.7163   -1.5287   -2.2884 C   0  0  0  0  0  0  0  0  0  0  0  0
   -0.4471   -1.7718   -1.6150 N   0  0  0  0  0  0  0  0  0  0  0  0
    0.5140   -0.8224   -1.4428 C   0  0  0  0  0  0  0  0  0  0  0  0
    0.3301    0.2907   -1.8936 O   0  0  0  0  0  0  0  0  0  0  0  0
    1.8076   -1.1553   -0.6819 C   0  0  1  0  0  0  0  0  0  0  0  0
    2.8862   -0.1831   -0.6954 N   0  0  0  0  0  0  0  0  0  0  0  0
    3.0925    1.0381   -1.2599 C   0  0  0  0  0  0  0  0  0  0  0  0
    2.3642    1.5931   -2.0627 O   0  0  0  0  0  0  0  0  0  0  0  0
    4.3104    1.6095   -0.7303 C   0  0  0  0  0  0  0  0  0  0  0  0
    4.9289    2.8318   -0.9854 C   0  0  0  0  0  0  0  0  0  0  0  0
    6.1134    3.1276   -0.2900 C   0  0  0  0  0  0  0  0  0  0  0  0
    6.6448    2.2059    0.6372 C   0  0  0  0  0  0  0  0  0  0  0  0
    5.9998    0.9772    0.8699 C   0  0  0  0  0  0  0  0  0  0  0  0
    4.8253    0.7027    0.1675 C   0  0  0  0  0  0  0  0  0  0  0  0
    3.9667   -0.5263    0.1853 C   0  0  1  0  0  0  0  0  0  0  0  0
    3.1690   -0.9494    1.7456 S   0  0  0  0  0  0  0  0  0  0  0  0
    1.5999   -1.4288    0.8602 C   0  0  0  0  0  0  0  0  0  0  0  0
    0.4740   -0.5624    1.4572 C   0  0  0  0  0  0  0  0  0  0  0  0
    1.3331   -2.9161    1.1476 C   0  0  0  0  0  0  0  0  0  0  0  0
   -3.5896   -1.1696   -0.6321 C   0  0  0  0  0  0  0  0  0  0  0  0
   -4.4635   -0.3459    0.1089 C   0  0  0  0  0  0  0  0  0  0  0  0
   -5.4074   -0.8553    0.9436 O   0  0  0  0  0  0  0  0  0  0  0  0
   -5.6555   -2.1945    1.1632 C   0  0  0  0  0  0  0  0  0  0  0  0
   -6.0836    3.5333    1.3952 H   0  0  0  0  0  0  0  0  0  0  0  0
   -5.5175    3.5689   -0.3156 H   0  0  0  0  0  0  0  0  0  0  0  0
   -4.3162    3.6238    1.0517 H   0  0  0  0  0  0  0  0  0  0  0  0
   -3.3205    2.6779   -1.0003 H   0  0  0  0  0  0  0  0  0  0  0  0
   -1.8422    1.2440   -2.2811 H   0  0  0  0  0  0  0  0  0  0  0  0
   -1.5587   -1.1429   -3.3188 H   0  0  0  0  0  0  0  0  0  0  0  0
   -2.2308   -2.5079   -2.4029 H   0  0  0  0  0  0  0  0  0  0  0  0
   -0.2657   -2.7296   -1.2888 H   0  0  0  0  0  0  0  0  0  0  0  0
    2.2506   -2.0610   -1.1546 H   0  0  0  0  0  0  0  0  0  0  0  0
    4.5104    3.5326   -1.6960 H   0  0  0  0  0  0  0  0  0  0  0  0
    6.6191    4.0681   -0.4661 H   0  0  0  0  0  0  0  0  0  0  0  0
    7.5569    2.4442    1.1681 H   0  0  0  0  0  0  0  0  0  0  0  0
    6.4071    0.2619    1.5722 H   0  0  0  0  0  0  0  0  0  0  0  0
    4.5218   -1.4155   -0.1854 H   0  0  0  0  0  0  0  0  0  0  0  0
    0.3993   -0.7295    2.5533 H   0  0  0  0  0  0  0  0  0  0  0  0
   -0.5100   -0.8296    1.0152 H   0  0  0  0  0  0  0  0  0  0  0  0
    0.6685    0.5153    1.2750 H   0  0  0  0  0  0  0  0  0  0  0  0
    1.2666   -3.0885    2.2431 H   0  0  0  0  0  0  0  0  0  0  0  0
    2.1700   -3.5360    0.7578 H   0  0  0  0  0  0  0  0  0  0  0  0
    0.3873   -3.2684    0.6992 H   0  0  0  0  0  0  0  0  0  0  0  0
   -3.6551   -2.2470   -0.5463 H   0  0  0  0  0  0  0  0  0  0  0  0
   -6.4877   -2.2941    1.8903 H   0  0  0  0  0  0  0  0  0  0  0  0
   -4.7542   -2.6874    1.5862 H   0  0  0  0  0  0  0  0  0  0  0  0
   -5.9538   -2.6893    0.2146 H   0  0  0  0  0  0  0  0  0  0  0  0
  1  2  1  0  0  0  0
  1 30  1  0  0  0  0
  1 31  1  0  0  0  0
  1 32  1  0  0  0  0
  2  3  1  0  0  0  0
  3  4  2  0  0  0  0
  4  5  1  0  0  0  0
  4 33  1  0  0  0  0
  5  6  2  0  0  0  0
  5 34  1  0  0  0  0
  6  7  1  0  0  0  0
  6 26  1  0  0  0  0
  7  8  1  0  0  0  0
  7 35  1  0  0  0  0
  7 36  1  0  0  0  0
  8  9  1  0  0  0  0
  8 37  1  0  0  0  0
  9 10  2  0  0  0  0
 11  9  1  0  0  0  0
 11 12  1  0  0  0  0
 11 38  1  6  0  0  0
 12 13  1  0  0  0  0
 13 14  2  0  0  0  0
 13 15  1  0  0  0  0
 15 16  2  0  0  0  0
 16 17  1  0  0  0  0
 16 39  1  0  0  0  0
 17 18  2  0  0  0  0
 17 40  1  0  0  0  0
 18 19  1  0  0  0  0
 18 41  1  0  0  0  0
 19 20  2  0  0  0  0
 19 42  1  0  0  0  0
 20 21  1  0  0  0  0
 20 15  1  0  0  0  0
 21 22  1  0  0  0  0
 21 12  1  0  0  0  0
 21 43  1  6  0  0  0
 22 23  1  0  0  0  0
 23 24  1  0  0  0  0
 23 25  1  0  0  0  0
 23 11  1  0  0  0  0
 24 44  1  0  0  0  0
 24 45  1  0  0  0  0
 24 46  1  0  0  0  0
 25 47  1  0  0  0  0
 25 48  1  0  0  0  0
 25 49  1  0  0  0  0
 26 27  2  0  0  0  0
 26 50  1  0  0  0  0
 27 28  1  0  0  0  0
 27  3  1  0  0  0  0
 28 29  1  0  0  0  0
 29 51  1  0  0  0  0
 29 52  1  0  0  0  0
 29 53  1  0  0  0  0
M  END
>  <IDENTIFIER>
CNP0384304.2

>  <Energy>
541.528

$$$$
