
 OpenBabel09092521073D

 43 47  0  0  0  0  0  0  0  0999 V2000
   -6.8268    0.0886    0.0919 C   0  0  0  0  0  0  0  0  0  0  0  0
   -5.4343    0.6044   -0.1643 C   0  0  0  0  0  0  0  0  0  0  0  0
   -5.2686    1.8411   -0.8016 C   0  0  0  0  0  0  0  0  0  0  0  0
   -3.9805    2.3204   -1.0454 C   0  0  0  0  0  0  0  0  0  0  0  0
   -3.8259    3.3943   -1.5981 O   0  0  0  0  0  0  0  0  0  0  0  0
   -2.9191    1.6125   -0.6801 O   0  0  0  0  0  0  0  0  0  0  0  0
   -3.0109    0.4323   -0.0708 C   0  0  0  0  0  0  0  0  0  0  0  0
   -1.8376   -0.2640    0.2828 C   0  0  0  0  0  0  0  0  0  0  0  0
   -0.4940    0.3177   -0.0354 C   0  0  0  0  0  0  0  0  0  0  0  0
    0.6490   -0.5092    0.3585 N   0  0  0  0  0  0  0  0  0  0  0  0
    1.9879   -0.0409    0.0546 C   0  0  0  0  0  0  0  0  0  0  0  0
    2.2036    1.2016   -0.6005 C   0  0  0  0  0  0  0  0  0  0  0  0
    3.4928    1.6494   -0.9053 C   0  0  0  0  0  0  0  0  0  0  0  0
    4.5971    0.8736   -0.5674 C   0  0  0  0  0  0  0  0  0  0  0  0
    5.8600    1.2916   -0.8427 O   0  0  0  0  0  0  0  0  0  0  0  0
    6.9549    0.6781   -0.2500 C   0  0  0  0  0  0  0  0  0  0  0  0
    6.7335   -0.8399   -0.2411 C   0  0  0  0  0  0  0  0  0  0  0  0
    5.5112   -1.1142    0.3566 O   0  0  0  0  0  0  0  0  0  0  0  0
    4.4161   -0.3646    0.0662 C   0  0  0  0  0  0  0  0  0  0  0  0
    3.1321   -0.8132    0.3848 C   0  0  0  0  0  0  0  0  0  0  0  0
    0.4857   -1.8010    1.0362 C   0  0  0  0  0  0  0  0  0  0  0  0
   -0.8241   -2.1775    1.2633 O   0  0  0  0  0  0  0  0  0  0  0  0
   -1.9309   -1.4970    0.9205 C   0  0  0  0  0  0  0  0  0  0  0  0
   -3.1826   -2.0473    1.2101 C   0  0  0  0  0  0  0  0  0  0  0  0
   -4.3526   -1.3712    0.8613 C   0  0  0  0  0  0  0  0  0  0  0  0
   -4.2831   -0.1227    0.2156 C   0  0  0  0  0  0  0  0  0  0  0  0
   -7.6013    0.7938   -0.2779 H   0  0  0  0  0  0  0  0  0  0  0  0
   -6.9821   -0.0523    1.1820 H   0  0  0  0  0  0  0  0  0  0  0  0
   -6.9691   -0.8808   -0.4309 H   0  0  0  0  0  0  0  0  0  0  0  0
   -6.1280    2.4270   -1.1067 H   0  0  0  0  0  0  0  0  0  0  0  0
   -0.4214    1.3014    0.4781 H   0  0  0  0  0  0  0  0  0  0  0  0
   -0.4591    0.4689   -1.1365 H   0  0  0  0  0  0  0  0  0  0  0  0
    1.3849    1.8455   -0.8862 H   0  0  0  0  0  0  0  0  0  0  0  0
    3.6306    2.6025   -1.4002 H   0  0  0  0  0  0  0  0  0  0  0  0
    7.0326    1.0256    0.8034 H   0  0  0  0  0  0  0  0  0  0  0  0
    7.8877    0.9528   -0.7855 H   0  0  0  0  0  0  0  0  0  0  0  0
    7.5512   -1.3717    0.2887 H   0  0  0  0  0  0  0  0  0  0  0  0
    6.7029   -1.1938   -1.2951 H   0  0  0  0  0  0  0  0  0  0  0  0
    3.0513   -1.7717    0.8759 H   0  0  0  0  0  0  0  0  0  0  0  0
    0.9992   -1.7604    2.0206 H   0  0  0  0  0  0  0  0  0  0  0  0
    0.9525   -2.5970    0.4181 H   0  0  0  0  0  0  0  0  0  0  0  0
   -3.2488   -3.0079    1.7057 H   0  0  0  0  0  0  0  0  0  0  0  0
   -5.3014   -1.8329    1.0997 H   0  0  0  0  0  0  0  0  0  0  0  0
  1  2  1  0  0  0  0
  1 27  1  0  0  0  0
  1 28  1  0  0  0  0
  1 29  1  0  0  0  0
  2  3  2  0  0  0  0
  3  4  1  0  0  0  0
  3 30  1  0  0  0  0
  4  5  2  0  0  0  0
  4  6  1  0  0  0  0
  6  7  1  0  0  0  0
  7  8  2  0  0  0  0
  8  9  1  0  0  0  0
  9 10  1  0  0  0  0
  9 31  1  0  0  0  0
  9 32  1  0  0  0  0
 10 11  1  0  0  0  0
 10 21  1  0  0  0  0
 11 12  2  0  0  0  0
 12 13  1  0  0  0  0
 12 33  1  0  0  0  0
 13 14  2  0  0  0  0
 13 34  1  0  0  0  0
 14 15  1  0  0  0  0
 15 16  1  0  0  0  0
 16 17  1  0  0  0  0
 16 35  1  0  0  0  0
 16 36  1  0  0  0  0
 17 18  1  0  0  0  0
 17 37  1  0  0  0  0
 17 38  1  0  0  0  0
 18 19  1  0  0  0  0
 19 20  2  0  0  0  0
 19 14  1  0  0  0  0
 20 11  1  0  0  0  0
 20 39  1  0  0  0  0
 21 22  1  0  0  0  0
 21 40  1  0  0  0  0
 21 41  1  0  0  0  0
 22 23  1  0  0  0  0
 23 24  2  0  0  0  0
 23  8  1  0  0  0  0
 24 25  1  0  0  0  0
 24 42  1  0  0  0  0
 25 26  2  0  0  0  0
 25 43  1  0  0  0  0
 26  2  1  0  0  0  0
 26  7  1  0  0  0  0
M  END
>  <IDENTIFIER>
CNP0309886.0

>  <Energy>
300.902

$$$$
