
 OpenBabel09092504493D

 80 84  0  0  0  0  0  0  0  0999 V2000
   -5.4455    1.3790   -2.4398 C   0  0  0  0  0  0  0  0  0  0  0  0
   -5.3435    1.0553   -0.9323 C   0  0  0  0  0  0  0  0  0  0  0  0
   -6.2804    2.0254   -0.1762 C   0  0  0  0  0  0  0  0  0  0  0  0
   -5.8095   -0.4320   -0.7248 C   0  0  0  0  0  0  0  0  0  0  0  0
   -5.1645   -1.0338    0.5247 C   0  0  0  0  0  0  0  0  0  0  0  0
   -3.6034   -1.1484    0.3529 C   0  0  2  0  0  0  0  0  0  0  0  0
   -3.2550   -2.5056   -0.3135 C   0  0  0  0  0  0  0  0  0  0  0  0
   -2.9765   -1.0949    1.7826 C   0  0  0  0  0  0  0  0  0  0  0  0
   -1.4284   -1.0043    1.7952 C   0  0  0  0  0  0  0  0  0  0  0  0
   -0.8616    0.2295    1.0049 C   0  0  2  0  0  0  0  0  0  0  0  0
   -1.3293    1.5497    1.7097 C   0  0  0  0  0  0  0  0  0  0  0  0
   -1.5067    0.0853   -0.3930 C   0  0  0  0  0  0  0  0  0  0  0  0
   -0.7702   -0.1585   -1.4976 C   0  0  0  0  0  0  0  0  0  0  0  0
    0.7053   -0.3863   -1.5167 C   0  0  0  0  0  0  0  0  0  0  0  0
    1.2993   -0.7916   -0.1269 C   0  0  1  0  0  0  0  0  0  0  0  0
    2.9098   -0.9684   -0.1459 C   0  0  1  0  0  0  0  0  0  0  0  0
    3.2787   -2.0298    0.9586 C   0  0  0  0  0  0  0  0  0  0  0  0
    3.4677   -1.6768   -1.3893 C   0  0  0  0  0  0  0  0  0  0  0  0
    2.7599   -2.3981   -2.0734 O   0  0  0  0  0  0  0  0  0  0  0  0
    4.9515   -1.6809   -1.6953 C   0  0  0  0  0  0  0  0  0  0  0  0
    5.7768   -0.7479   -0.7716 C   0  0  1  0  0  0  0  0  0  0  0  0
    7.1069   -0.6399   -1.2283 O   0  0  0  0  0  0  0  0  0  0  0  0
    5.0804    0.6327   -0.6190 C   0  0  0  0  0  0  0  0  0  0  0  0
    5.9706    1.5553    0.2539 C   0  0  0  0  0  0  0  0  0  0  0  0
    4.9566    1.3108   -2.0188 C   0  0  0  0  0  0  0  0  0  0  0  0
    3.6658    0.4307    0.1104 C   0  0  1  0  0  0  0  0  0  0  0  0
    2.7415    1.6613   -0.1194 C   0  0  0  0  0  0  0  0  0  0  0  0
    1.3458    1.6456    0.5597 C   0  0  0  0  0  0  0  0  0  0  0  0
    0.7693    0.2366    0.9483 C   0  0  1  0  0  0  0  0  0  0  0  0
    1.2919   -0.0712    2.3906 C   0  0  0  0  0  0  0  0  0  0  0  0
   -3.0392    0.0033   -0.5658 C   0  0  2  0  0  0  0  0  0  0  0  0
   -3.8757    1.2844   -0.4086 C   0  0  0  0  0  0  0  0  0  0  0  0
   -6.4883    1.2380   -2.7986 H   0  0  0  0  0  0  0  0  0  0  0  0
   -4.7832    0.7210   -3.0397 H   0  0  0  0  0  0  0  0  0  0  0  0
   -5.1508    2.4325   -2.6349 H   0  0  0  0  0  0  0  0  0  0  0  0
   -7.3286    1.9178   -0.5293 H   0  0  0  0  0  0  0  0  0  0  0  0
   -5.9654    3.0791   -0.3371 H   0  0  0  0  0  0  0  0  0  0  0  0
   -6.2685    1.8246    0.9165 H   0  0  0  0  0  0  0  0  0  0  0  0
   -5.4897   -1.0738   -1.5736 H   0  0  0  0  0  0  0  0  0  0  0  0
   -6.9197   -0.4863   -0.6943 H   0  0  0  0  0  0  0  0  0  0  0  0
   -5.5973   -2.0229    0.7906 H   0  0  0  0  0  0  0  0  0  0  0  0
   -5.4310   -0.3446    1.3546 H   0  0  0  0  0  0  0  0  0  0  0  0
   -3.6165   -3.3511    0.3101 H   0  0  0  0  0  0  0  0  0  0  0  0
   -2.1624   -2.6288   -0.4582 H   0  0  0  0  0  0  0  0  0  0  0  0
   -3.7307   -2.5927   -1.3126 H   0  0  0  0  0  0  0  0  0  0  0  0
   -3.2978   -1.9860    2.3656 H   0  0  0  0  0  0  0  0  0  0  0  0
   -3.3775   -0.2232    2.3327 H   0  0  0  0  0  0  0  0  0  0  0  0
   -1.0218   -1.9432    1.3694 H   0  0  0  0  0  0  0  0  0  0  0  0
   -1.1250   -0.9642    2.8616 H   0  0  0  0  0  0  0  0  0  0  0  0
   -2.3897    1.6031    1.9447 H   0  0  0  0  0  0  0  0  0  0  0  0
   -1.1108    2.4447    1.0948 H   0  0  0  0  0  0  0  0  0  0  0  0
   -0.8649    1.6929    2.6994 H   0  0  0  0  0  0  0  0  0  0  0  0
   -1.2576   -0.2691   -2.4632 H   0  0  0  0  0  0  0  0  0  0  0  0
    1.1565    0.4781   -2.0203 H   0  0  0  0  0  0  0  0  0  0  0  0
    0.8359   -1.2291   -2.2138 H   0  0  0  0  0  0  0  0  0  0  0  0
    0.8505   -1.7862    0.0849 H   0  0  0  0  0  0  0  0  0  0  0  0
    2.7132   -2.9711    0.7796 H   0  0  0  0  0  0  0  0  0  0  0  0
    3.0887   -1.7517    1.9970 H   0  0  0  0  0  0  0  0  0  0  0  0
    4.3338   -2.3397    0.9689 H   0  0  0  0  0  0  0  0  0  0  0  0
    5.0560   -1.3436   -2.7481 H   0  0  0  0  0  0  0  0  0  0  0  0
    5.3588   -2.7133   -1.6415 H   0  0  0  0  0  0  0  0  0  0  0  0
    5.8577   -1.1821    0.2380 H   0  0  0  0  0  0  0  0  0  0  0  0
    7.1025   -0.4956   -2.2091 H   0  0  0  0  0  0  0  0  0  0  0  0
    6.9670    1.7100   -0.2128 H   0  0  0  0  0  0  0  0  0  0  0  0
    6.1323    1.1099    1.2592 H   0  0  0  0  0  0  0  0  0  0  0  0
    5.5082    2.5545    0.3902 H   0  0  0  0  0  0  0  0  0  0  0  0
    5.9466    1.4055   -2.5105 H   0  0  0  0  0  0  0  0  0  0  0  0
    4.5739    2.3491   -1.9343 H   0  0  0  0  0  0  0  0  0  0  0  0
    4.2746    0.7568   -2.6944 H   0  0  0  0  0  0  0  0  0  0  0  0
    3.8929    0.4318    1.1900 H   0  0  0  0  0  0  0  0  0  0  0  0
    2.5658    1.7140   -1.2036 H   0  0  0  0  0  0  0  0  0  0  0  0
    3.2355    2.6251    0.1218 H   0  0  0  0  0  0  0  0  0  0  0  0
    0.6824    2.1599   -0.1697 H   0  0  0  0  0  0  0  0  0  0  0  0
    1.3547    2.2956    1.4628 H   0  0  0  0  0  0  0  0  0  0  0  0
    0.8512    0.5902    3.1555 H   0  0  0  0  0  0  0  0  0  0  0  0
    2.3599    0.1215    2.5332 H   0  0  0  0  0  0  0  0  0  0  0  0
    1.0712   -1.1156    2.6903 H   0  0  0  0  0  0  0  0  0  0  0  0
   -3.2435   -0.2662   -1.6252 H   0  0  0  0  0  0  0  0  0  0  0  0
   -3.4192    2.1636   -0.9133 H   0  0  0  0  0  0  0  0  0  0  0  0
   -3.9424    1.5141    0.6622 H   0  0  0  0  0  0  0  0  0  0  0  0
  1  2  1  0  0  0  0
  1 33  1  0  0  0  0
  1 34  1  0  0  0  0
  1 35  1  0  0  0  0
  2  3  1  0  0  0  0
  2  4  1  0  0  0  0
  3 36  1  0  0  0  0
  3 37  1  0  0  0  0
  3 38  1  0  0  0  0
  4  5  1  0  0  0  0
  4 39  1  0  0  0  0
  4 40  1  0  0  0  0
  5  6  1  0  0  0  0
  5 41  1  0  0  0  0
  5 42  1  0  0  0  0
  6  7  1  6  0  0  0
  6  8  1  0  0  0  0
  7 43  1  0  0  0  0
  7 44  1  0  0  0  0
  7 45  1  0  0  0  0
  8  9  1  0  0  0  0
  8 46  1  0  0  0  0
  8 47  1  0  0  0  0
  9 10  1  0  0  0  0
  9 48  1  0  0  0  0
  9 49  1  0  0  0  0
 10 11  1  1  0  0  0
 10 12  1  0  0  0  0
 11 50  1  0  0  0  0
 11 51  1  0  0  0  0
 11 52  1  0  0  0  0
 12 13  2  0  0  0  0
 12 31  1  0  0  0  0
 13 14  1  0  0  0  0
 13 53  1  0  0  0  0
 14 54  1  0  0  0  0
 14 55  1  0  0  0  0
 15 14  1  0  0  0  0
 15 16  1  0  0  0  0
 15 56  1  1  0  0  0
 16 17  1  1  0  0  0
 16 18  1  0  0  0  0
 17 57  1  0  0  0  0
 17 58  1  0  0  0  0
 17 59  1  0  0  0  0
 18 19  2  0  0  0  0
 18 20  1  0  0  0  0
 20 21  1  0  0  0  0
 20 60  1  0  0  0  0
 20 61  1  0  0  0  0
 21 22  1  0  0  0  0
 21 23  1  0  0  0  0
 21 62  1  1  0  0  0
 22 63  1  0  0  0  0
 23 24  1  0  0  0  0
 23 25  1  0  0  0  0
 23 26  1  0  0  0  0
 24 64  1  0  0  0  0
 24 65  1  0  0  0  0
 24 66  1  0  0  0  0
 25 67  1  0  0  0  0
 25 68  1  0  0  0  0
 25 69  1  0  0  0  0
 26 27  1  0  0  0  0
 26 16  1  0  0  0  0
 26 70  1  1  0  0  0
 27 28  1  0  0  0  0
 27 71  1  0  0  0  0
 27 72  1  0  0  0  0
 28 29  1  0  0  0  0
 28 73  1  0  0  0  0
 28 74  1  0  0  0  0
 29 30  1  1  0  0  0
 29 10  1  0  0  0  0
 29 15  1  0  0  0  0
 30 75  1  0  0  0  0
 30 76  1  0  0  0  0
 30 77  1  0  0  0  0
 31 32  1  0  0  0  0
 31  6  1  0  0  0  0
 31 78  1  6  0  0  0
 32  2  1  0  0  0  0
 32 79  1  0  0  0  0
 32 80  1  0  0  0  0
M  END
>  <IDENTIFIER>
CNP0266743.3

>  <Energy>
1072.06

$$$$
