
 OpenBabel09092522563D

 51 53  0  0  0  0  0  0  0  0999 V2000
   -3.6515    3.7198   -0.8141 C   0  0  0  0  0  0  0  0  0  0  0  0
   -4.4051    2.4147   -0.5127 C   0  0  0  0  0  0  0  0  0  0  0  0
   -5.6133    2.7173    0.3835 C   0  0  0  0  0  0  0  0  0  0  0  0
   -3.5049    1.3659    0.1772 C   0  0  0  0  0  0  0  0  0  0  0  0
   -2.3185    0.9159   -0.6834 C   0  0  0  0  0  0  0  0  0  0  0  0
   -1.5486   -0.1041    0.0350 N   0  0  0  0  0  0  0  0  0  0  0  0
   -0.5514    0.1125    0.9332 C   0  0  0  0  0  0  0  0  0  0  0  0
    0.0163    1.7384    1.4707 S   0  0  0  0  0  0  0  0  0  0  0  0
    1.2938    1.9592    0.1779 C   0  0  0  0  0  0  0  0  0  0  0  0
    2.5353    1.1377    0.4129 C   0  0  0  0  0  0  0  0  0  0  0  0
    2.6100    0.3948    1.3827 O   0  0  0  0  0  0  0  0  0  0  0  0
    3.5602    1.2055   -0.4781 N   0  0  0  0  0  0  0  0  0  0  0  0
    4.7127    0.3911   -0.3480 C   0  0  0  0  0  0  0  0  0  0  0  0
    4.8026   -0.7952   -1.0862 C   0  0  0  0  0  0  0  0  0  0  0  0
    5.9216   -1.6213   -0.9541 C   0  0  0  0  0  0  0  0  0  0  0  0
    6.9622   -1.2572   -0.0943 C   0  0  0  0  0  0  0  0  0  0  0  0
    6.8820   -0.0676    0.6376 C   0  0  0  0  0  0  0  0  0  0  0  0
    5.7557    0.7550    0.5173 C   0  0  0  0  0  0  0  0  0  0  0  0
   -0.0530   -1.0398    1.4501 N   0  0  0  0  0  0  0  0  0  0  0  0
   -0.7812   -1.9996    0.8482 C   0  0  0  0  0  0  0  0  0  0  0  0
   -1.6869   -1.4443   -0.0008 C   0  0  0  0  0  0  0  0  0  0  0  0
   -2.5728   -2.2580   -0.7072 C   0  0  0  0  0  0  0  0  0  0  0  0
   -3.4068   -1.7941   -1.4639 O   0  0  0  0  0  0  0  0  0  0  0  0
   -2.4861   -3.6190   -0.5183 N   0  0  0  0  0  0  0  0  0  0  0  0
   -1.5524   -4.1671    0.3459 C   0  0  0  0  0  0  0  0  0  0  0  0
   -1.5129   -5.3786    0.4871 O   0  0  0  0  0  0  0  0  0  0  0  0
   -0.6802   -3.3441    1.0463 N   0  0  0  0  0  0  0  0  0  0  0  0
    0.3247   -3.8704    1.9802 C   0  0  0  0  0  0  0  0  0  0  0  0
   -4.3377    4.4559   -1.2842 H   0  0  0  0  0  0  0  0  0  0  0  0
   -2.8219    3.5489   -1.5289 H   0  0  0  0  0  0  0  0  0  0  0  0
   -3.2407    4.1587    0.1204 H   0  0  0  0  0  0  0  0  0  0  0  0
   -4.7855    1.9942   -1.4702 H   0  0  0  0  0  0  0  0  0  0  0  0
   -5.2834    3.1393    1.3575 H   0  0  0  0  0  0  0  0  0  0  0  0
   -6.1925    1.7887    0.5749 H   0  0  0  0  0  0  0  0  0  0  0  0
   -6.2881    3.4471   -0.1123 H   0  0  0  0  0  0  0  0  0  0  0  0
   -4.1204    0.4648    0.3971 H   0  0  0  0  0  0  0  0  0  0  0  0
   -3.1279    1.7710    1.1418 H   0  0  0  0  0  0  0  0  0  0  0  0
   -1.6490    1.7608   -0.9313 H   0  0  0  0  0  0  0  0  0  0  0  0
   -2.6839    0.5130   -1.6498 H   0  0  0  0  0  0  0  0  0  0  0  0
    1.5788    3.0326    0.1721 H   0  0  0  0  0  0  0  0  0  0  0  0
    0.8573    1.7378   -0.8187 H   0  0  0  0  0  0  0  0  0  0  0  0
    3.4647    1.7914   -1.3214 H   0  0  0  0  0  0  0  0  0  0  0  0
    3.9961   -1.0827   -1.7490 H   0  0  0  0  0  0  0  0  0  0  0  0
    5.9798   -2.5437   -1.5169 H   0  0  0  0  0  0  0  0  0  0  0  0
    7.8292   -1.8974    0.0044 H   0  0  0  0  0  0  0  0  0  0  0  0
    7.6913    0.2140    1.2992 H   0  0  0  0  0  0  0  0  0  0  0  0
    5.6990    1.6741    1.0873 H   0  0  0  0  0  0  0  0  0  0  0  0
   -3.1430   -4.2495   -1.0330 H   0  0  0  0  0  0  0  0  0  0  0  0
    0.2911   -4.9760    2.0498 H   0  0  0  0  0  0  0  0  0  0  0  0
    0.1442   -3.4562    2.9964 H   0  0  0  0  0  0  0  0  0  0  0  0
    1.3395   -3.5757    1.6418 H   0  0  0  0  0  0  0  0  0  0  0  0
  1  2  1  0  0  0  0
  1 29  1  0  0  0  0
  1 30  1  0  0  0  0
  1 31  1  0  0  0  0
  2  3  1  0  0  0  0
  2  4  1  0  0  0  0
  2 32  1  0  0  0  0
  3 33  1  0  0  0  0
  3 34  1  0  0  0  0
  3 35  1  0  0  0  0
  4  5  1  0  0  0  0
  4 36  1  0  0  0  0
  4 37  1  0  0  0  0
  5  6  1  0  0  0  0
  5 38  1  0  0  0  0
  5 39  1  0  0  0  0
  6  7  1  0  0  0  0
  7  8  1  0  0  0  0
  7 19  2  0  0  0  0
  8  9  1  0  0  0  0
  9 10  1  0  0  0  0
  9 40  1  0  0  0  0
  9 41  1  0  0  0  0
 10 11  2  0  0  0  0
 10 12  1  0  0  0  0
 12 13  1  0  0  0  0
 12 42  1  0  0  0  0
 13 14  2  0  0  0  0
 14 15  1  0  0  0  0
 14 43  1  0  0  0  0
 15 16  2  0  0  0  0
 15 44  1  0  0  0  0
 16 17  1  0  0  0  0
 16 45  1  0  0  0  0
 17 18  2  0  0  0  0
 17 46  1  0  0  0  0
 18 13  1  0  0  0  0
 18 47  1  0  0  0  0
 19 20  1  0  0  0  0
 20 21  2  0  0  0  0
 21 22  1  0  0  0  0
 21  6  1  0  0  0  0
 22 23  2  0  0  0  0
 22 24  1  0  0  0  0
 24 25  1  0  0  0  0
 24 48  1  0  0  0  0
 25 26  2  0  0  0  0
 25 27  1  0  0  0  0
 27 28  1  0  0  0  0
 27 20  1  0  0  0  0
 28 49  1  0  0  0  0
 28 50  1  0  0  0  0
 28 51  1  0  0  0  0
M  END
>  <IDENTIFIER>
CNP0548106.0

>  <Energy>
551.026

$$$$
