
 OpenBabel09092509033D

 88 90  0  0  0  0  0  0  0  0999 V2000
    0.3321    6.2530    2.8010 C   0  0  0  0  0  0  0  0  0  0  0  0
    0.2403    4.8858    2.6287 O   0  0  0  0  0  0  0  0  0  0  0  0
   -0.6690    4.1938    1.8777 C   0  0  0  0  0  0  0  0  0  0  0  0
   -0.3994    2.8697    1.5965 C   0  0  0  0  0  0  0  0  0  0  0  0
   -1.3432    2.0619    0.8311 N   0  0  0  0  0  0  0  0  0  0  0  0
   -1.4032    0.6923    0.8213 C   0  0  0  0  0  0  0  0  0  0  0  0
   -0.7102    0.0379    1.5781 O   0  0  0  0  0  0  0  0  0  0  0  0
   -2.4068   -0.0815   -0.0290 C   0  0  1  0  0  0  0  0  0  0  0  0
   -2.5016    0.3542   -1.5170 C   0  0  0  0  0  0  0  0  0  0  0  0
   -3.6011   -0.4513   -2.1806 C   0  0  0  0  0  0  0  0  0  0  0  0
   -4.9480   -0.2063   -1.8603 C   0  0  0  0  0  0  0  0  0  0  0  0
   -5.9632   -0.9847   -2.4220 C   0  0  0  0  0  0  0  0  0  0  0  0
   -5.6473   -2.0297   -3.3016 C   0  0  0  0  0  0  0  0  0  0  0  0
   -6.6232   -2.7985   -3.8283 O   0  0  0  0  0  0  0  0  0  0  0  0
   -4.3056   -2.2796   -3.6267 C   0  0  0  0  0  0  0  0  0  0  0  0
   -3.8399   -3.7175   -4.8003 Br  0  0  0  0  0  0  0  0  0  0  0  0
   -3.2894   -1.4886   -3.0757 C   0  0  0  0  0  0  0  0  0  0  0  0
   -2.1115   -1.5364    0.0241 N   0  0  0  0  0  0  0  0  0  0  0  0
   -3.1651   -2.4253    0.4963 C   0  0  0  0  0  0  0  0  0  0  0  0
   -0.8867   -2.0219   -0.4304 C   0  0  0  0  0  0  0  0  0  0  0  0
   -0.0471   -1.2251   -0.8316 O   0  0  0  0  0  0  0  0  0  0  0  0
   -0.5059   -3.5109   -0.5351 C   0  0  2  0  0  0  0  0  0  0  0  0
   -0.3790   -4.1892    0.8418 C   0  0  0  0  0  0  0  0  0  0  0  0
    0.7084   -3.6398   -1.3715 N   0  0  0  0  0  0  0  0  0  0  0  0
    1.9207   -4.2085   -1.0559 C   0  0  0  0  0  0  0  0  0  0  0  0
    2.1278   -4.7080    0.0372 O   0  0  0  0  0  0  0  0  0  0  0  0
    3.0392   -4.2498   -2.0863 C   0  0  0  0  0  0  0  0  0  0  0  0
    4.3480   -3.5423   -1.6508 C   0  0  2  0  0  0  0  0  0  0  0  0
    4.9387   -4.2015   -0.5545 O   0  0  0  0  0  0  0  0  0  0  0  0
    4.1302   -2.0445   -1.3668 C   0  0  0  0  0  0  0  0  0  0  0  0
    5.4354   -1.3309   -1.0588 C   0  0  0  0  0  0  0  0  0  0  0  0
    5.7235   -0.6705    0.0939 C   0  0  0  0  0  0  0  0  0  0  0  0
    7.0818   -0.0426    0.2781 C   0  0  0  0  0  0  0  0  0  0  0  0
    4.7455   -0.5532    1.2417 C   0  0  0  0  0  0  0  0  0  0  0  0
    3.5365    0.3420    0.8940 C   0  0  0  0  0  0  0  0  0  0  0  0
    2.4801    0.3934    2.0106 C   0  0  2  0  0  0  0  0  0  0  0  0
    1.9464   -1.0006    2.3747 C   0  0  0  0  0  0  0  0  0  0  0  0
    1.4094    1.1446    1.5542 O   0  0  0  0  0  0  0  0  0  0  0  0
    0.9069    2.2743    2.1112 C   0  0  0  0  0  0  0  0  0  0  0  0
    1.5509    2.8342    2.9883 O   0  0  0  0  0  0  0  0  0  0  0  0
   -1.8915    4.9150    1.3943 C   0  0  0  0  0  0  0  0  0  0  0  0
   -2.7011    5.6050    2.3154 C   0  0  0  0  0  0  0  0  0  0  0  0
   -3.8230    6.3177    1.8861 C   0  0  0  0  0  0  0  0  0  0  0  0
   -4.1482    6.3586    0.5298 C   0  0  0  0  0  0  0  0  0  0  0  0
   -3.3522    5.6848   -0.3980 C   0  0  0  0  0  0  0  0  0  0  0  0
   -2.2291    4.9671    0.0274 C   0  0  0  0  0  0  0  0  0  0  0  0
    1.2386    6.4738    3.4010 H   0  0  0  0  0  0  0  0  0  0  0  0
   -0.5339    6.6592    3.3537 H   0  0  0  0  0  0  0  0  0  0  0  0
    0.4325    6.7544    1.8150 H   0  0  0  0  0  0  0  0  0  0  0  0
   -2.0754    2.5268    0.2870 H   0  0  0  0  0  0  0  0  0  0  0  0
   -3.3999    0.1511    0.4144 H   0  0  0  0  0  0  0  0  0  0  0  0
   -1.5359    0.1804   -2.0302 H   0  0  0  0  0  0  0  0  0  0  0  0
   -2.7292    1.4350   -1.6303 H   0  0  0  0  0  0  0  0  0  0  0  0
   -5.2119    0.5864   -1.1714 H   0  0  0  0  0  0  0  0  0  0  0  0
   -6.9953   -0.7826   -2.1632 H   0  0  0  0  0  0  0  0  0  0  0  0
   -7.5582   -2.6612   -3.6179 H   0  0  0  0  0  0  0  0  0  0  0  0
   -2.2571   -1.7055   -3.3198 H   0  0  0  0  0  0  0  0  0  0  0  0
   -4.1106   -1.8790    0.6941 H   0  0  0  0  0  0  0  0  0  0  0  0
   -2.8931   -2.8772    1.4630 H   0  0  0  0  0  0  0  0  0  0  0  0
   -3.3930   -3.1966   -0.2688 H   0  0  0  0  0  0  0  0  0  0  0  0
   -1.3157   -4.0293   -1.0929 H   0  0  0  0  0  0  0  0  0  0  0  0
    0.3902   -3.6850    1.4627 H   0  0  0  0  0  0  0  0  0  0  0  0
   -0.1266   -5.2621    0.7084 H   0  0  0  0  0  0  0  0  0  0  0  0
   -1.3162   -4.1988    1.4093 H   0  0  0  0  0  0  0  0  0  0  0  0
    0.6167   -3.2518   -2.3233 H   0  0  0  0  0  0  0  0  0  0  0  0
    2.6950   -3.7825   -3.0338 H   0  0  0  0  0  0  0  0  0  0  0  0
    3.2738   -5.3131   -2.3082 H   0  0  0  0  0  0  0  0  0  0  0  0
    5.0602   -3.6212   -2.5018 H   0  0  0  0  0  0  0  0  0  0  0  0
    4.4857   -3.9027    0.2760 H   0  0  0  0  0  0  0  0  0  0  0  0
    3.4037   -1.9850   -0.5389 H   0  0  0  0  0  0  0  0  0  0  0  0
    3.6820   -1.5618   -2.2614 H   0  0  0  0  0  0  0  0  0  0  0  0
    6.1929   -1.3736   -1.8368 H   0  0  0  0  0  0  0  0  0  0  0  0
    7.7389   -0.1847   -0.6059 H   0  0  0  0  0  0  0  0  0  0  0  0
    7.5828   -0.4960    1.1597 H   0  0  0  0  0  0  0  0  0  0  0  0
    6.9636    1.0475    0.4541 H   0  0  0  0  0  0  0  0  0  0  0  0
    5.2435   -0.1029    2.1285 H   0  0  0  0  0  0  0  0  0  0  0  0
    4.4518   -1.5852    1.5136 H   0  0  0  0  0  0  0  0  0  0  0  0
    3.0291    0.0096   -0.0291 H   0  0  0  0  0  0  0  0  0  0  0  0
    3.9006    1.3738    0.6947 H   0  0  0  0  0  0  0  0  0  0  0  0
    2.9313    0.8347    2.9269 H   0  0  0  0  0  0  0  0  0  0  0  0
    1.5281   -1.5007    1.4755 H   0  0  0  0  0  0  0  0  0  0  0  0
    1.1473   -0.9077    3.1398 H   0  0  0  0  0  0  0  0  0  0  0  0
    2.7296   -1.6451    2.8180 H   0  0  0  0  0  0  0  0  0  0  0  0
   -2.4747    5.5812    3.3736 H   0  0  0  0  0  0  0  0  0  0  0  0
   -4.4385    6.8404    2.6073 H   0  0  0  0  0  0  0  0  0  0  0  0
   -5.0149    6.9160    0.1995 H   0  0  0  0  0  0  0  0  0  0  0  0
   -3.6003    5.7257   -1.4513 H   0  0  0  0  0  0  0  0  0  0  0  0
   -1.6122    4.4739   -0.7132 H   0  0  0  0  0  0  0  0  0  0  0  0
  1  2  1  0  0  0  0
  1 47  1  0  0  0  0
  1 48  1  0  0  0  0
  1 49  1  0  0  0  0
  2  3  1  0  0  0  0
  3  4  2  0  0  0  0
  3 41  1  0  0  0  0
  4  5  1  0  0  0  0
  5  6  1  0  0  0  0
  5 50  1  0  0  0  0
  6  7  2  0  0  0  0
  6  8  1  0  0  0  0
  8  9  1  0  0  0  0
  8 18  1  0  0  0  0
  8 51  1  1  0  0  0
  9 10  1  0  0  0  0
  9 52  1  0  0  0  0
  9 53  1  0  0  0  0
 10 11  2  0  0  0  0
 11 12  1  0  0  0  0
 11 54  1  0  0  0  0
 12 13  2  0  0  0  0
 12 55  1  0  0  0  0
 13 14  1  0  0  0  0
 13 15  1  0  0  0  0
 14 56  1  0  0  0  0
 15 16  1  0  0  0  0
 15 17  2  0  0  0  0
 17 10  1  0  0  0  0
 17 57  1  0  0  0  0
 18 19  1  0  0  0  0
 18 20  1  0  0  0  0
 19 58  1  0  0  0  0
 19 59  1  0  0  0  0
 19 60  1  0  0  0  0
 20 21  2  0  0  0  0
 20 22  1  0  0  0  0
 22 23  1  0  0  0  0
 22 24  1  0  0  0  0
 22 61  1  6  0  0  0
 23 62  1  0  0  0  0
 23 63  1  0  0  0  0
 23 64  1  0  0  0  0
 24 25  1  0  0  0  0
 24 65  1  0  0  0  0
 25 26  2  0  0  0  0
 25 27  1  0  0  0  0
 27 28  1  0  0  0  0
 27 66  1  0  0  0  0
 27 67  1  0  0  0  0
 28 29  1  0  0  0  0
 28 30  1  0  0  0  0
 28 68  1  6  0  0  0
 29 69  1  0  0  0  0
 30 31  1  0  0  0  0
 30 70  1  0  0  0  0
 30 71  1  0  0  0  0
 31 32  2  0  0  0  0
 31 72  1  0  0  0  0
 32 33  1  0  0  0  0
 32 34  1  0  0  0  0
 33 73  1  0  0  0  0
 33 74  1  0  0  0  0
 33 75  1  0  0  0  0
 34 35  1  0  0  0  0
 34 76  1  0  0  0  0
 34 77  1  0  0  0  0
 35 36  1  0  0  0  0
 35 78  1  0  0  0  0
 35 79  1  0  0  0  0
 36 37  1  0  0  0  0
 36 38  1  0  0  0  0
 36 80  1  1  0  0  0
 37 81  1  0  0  0  0
 37 82  1  0  0  0  0
 37 83  1  0  0  0  0
 38 39  1  0  0  0  0
 39 40  2  0  0  0  0
 39  4  1  0  0  0  0
 41 42  2  0  0  0  0
 42 43  1  0  0  0  0
 42 84  1  0  0  0  0
 43 44  2  0  0  0  0
 43 85  1  0  0  0  0
 44 45  1  0  0  0  0
 44 86  1  0  0  0  0
 45 46  2  0  0  0  0
 45 87  1  0  0  0  0
 46 41  1  0  0  0  0
 46 88  1  0  0  0  0
M  END
>  <IDENTIFIER>
CNP0177926.2

>  <Energy>
683.653

$$$$
