
 OpenBabel09062514583D

116122  0  0  0  0  0  0  0  0999 V2000
   -4.7682    1.0413   -2.4105 C   0  0  0  0  0  0  0  0  0  0  0  0
   -4.5775    0.5148   -1.1170 O   0  0  0  0  0  0  0  0  0  0  0  0
   -5.0264   -0.8319   -1.0526 C   0  0  1  0  0  0  0  0  0  0  0  0
   -3.8428   -1.7764   -0.9015 C   0  0  0  0  0  0  0  0  0  0  0  0
   -2.9898   -1.3554    0.3165 C   0  0  1  0  0  0  0  0  0  0  0  0
   -1.9717   -0.4803   -0.1524 O   0  0  0  0  0  0  0  0  0  0  0  0
   -0.6895   -0.7899    0.3813 C   0  0  1  0  0  0  0  0  0  0  0  0
    0.2619   -1.2763   -0.7568 C   0  0  0  0  0  0  0  0  0  0  0  0
    1.2139   -0.1582   -1.1981 C   0  0  0  0  0  0  0  0  0  0  0  0
    2.1525    0.3021   -0.0094 C   0  0  1  0  0  0  0  0  0  0  0  0
    2.5459    1.7732   -0.3187 C   0  0  0  0  0  0  0  0  0  0  0  0
    1.3261    0.2674    1.2923 C   0  0  0  0  0  0  0  0  0  0  0  0
    1.8098   -0.1612    2.4788 C   0  0  0  0  0  0  0  0  0  0  0  0
    3.2166   -0.6531    2.6884 C   0  0  0  0  0  0  0  0  0  0  0  0
    4.1848   -0.3837    1.4978 C   0  0  2  0  0  0  0  0  0  0  0  0
    4.5843    0.9658    1.5343 O   0  0  0  0  0  0  0  0  0  0  0  0
    3.4062   -0.6562    0.1674 C   0  0  2  0  0  0  0  0  0  0  0  0
    4.3443   -0.7912   -1.0710 C   0  0  0  0  0  0  0  0  0  0  0  0
    5.8156   -0.3747   -0.8368 C   0  0  1  0  0  0  0  0  0  0  0  0
    5.8432    1.0200   -0.8435 O   0  0  0  0  0  0  0  0  0  0  0  0
    6.4645    1.7746   -1.8016 C   0  0  0  0  0  0  0  0  0  0  0  0
    6.9827    1.2384   -2.7743 O   0  0  0  0  0  0  0  0  0  0  0  0
    6.5386    3.2502   -1.6794 C   0  0  0  0  0  0  0  0  0  0  0  0
    5.9626    3.9132   -0.5829 C   0  0  0  0  0  0  0  0  0  0  0  0
    6.0480    5.3073   -0.4796 C   0  0  0  0  0  0  0  0  0  0  0  0
    6.7086    6.0519   -1.4667 C   0  0  0  0  0  0  0  0  0  0  0  0
    6.7988    7.3954   -1.3787 O   0  0  0  0  0  0  0  0  0  0  0  0
    7.2815    5.3977   -2.5599 C   0  0  0  0  0  0  0  0  0  0  0  0
    7.1983    4.0078   -2.6667 C   0  0  0  0  0  0  0  0  0  0  0  0
    6.5415   -0.9645    0.4753 C   0  0  1  0  0  0  0  0  0  0  0  0
    7.6271    0.0715    0.9064 C   0  0  0  0  0  0  0  0  0  0  0  0
    5.4772   -1.2714    1.6123 C   0  0  1  0  0  0  0  0  0  0  0  0
    6.0244   -1.0027    2.8949 O   0  0  0  0  0  0  0  0  0  0  0  0
    5.1968   -2.8219    1.4732 C   0  0  0  0  0  0  0  0  0  0  0  0
    6.0590   -3.3326    0.3125 C   0  0  0  0  0  0  0  0  0  0  0  0
    7.2477   -2.3763    0.3106 C   0  0  2  0  0  0  0  0  0  0  0  0
    8.0194   -2.6401    1.4660 O   0  0  0  0  0  0  0  0  0  0  0  0
    8.1518   -2.5271   -0.9230 C   0  0  0  0  0  0  0  0  0  0  0  0
    9.6524   -2.6512   -0.8235 C   0  0  0  0  0  0  0  0  0  0  0  0
    7.6617   -2.5673   -2.0408 O   0  0  0  0  0  0  0  0  0  0  0  0
   -0.1582    0.4450    1.1542 C   0  0  0  0  0  0  0  0  0  0  0  0
   -3.7033   -0.6523    1.3345 O   0  0  0  0  0  0  0  0  0  0  0  0
   -5.0639   -1.0200    1.5111 C   0  0  2  0  0  0  0  0  0  0  0  0
   -5.1636   -2.3250    2.3132 C   0  0  0  0  0  0  0  0  0  0  0  0
   -5.9021   -1.0440    0.1910 C   0  0  1  0  0  0  0  0  0  0  0  0
   -6.9149   -0.0469    0.2302 O   0  0  0  0  0  0  0  0  0  0  0  0
   -8.2202   -0.5338   -0.0509 C   0  0  1  0  0  0  0  0  0  0  0  0
   -9.1326   -0.2068    1.1627 C   0  0  0  0  0  0  0  0  0  0  0  0
  -10.3710    0.5838    0.7220 C   0  0  1  0  0  0  0  0  0  0  0  0
   -9.9485    1.8781    0.3072 O   0  0  0  0  0  0  0  0  0  0  0  0
  -10.4410    2.8757    1.1722 C   0  0  0  0  0  0  0  0  0  0  0  0
  -11.0310   -0.1104   -0.4838 C   0  0  2  0  0  0  0  0  0  0  0  0
  -11.7142   -1.2811   -0.1033 O   0  0  0  0  0  0  0  0  0  0  0  0
   -9.9692   -0.4181   -1.5920 C   0  0  1  0  0  0  0  0  0  0  0  0
  -10.3929    0.1781   -2.9340 C   0  0  0  0  0  0  0  0  0  0  0  0
   -8.6852    0.0912   -1.2427 O   0  0  0  0  0  0  0  0  0  0  0  0
   -4.3539    2.0700   -2.4354 H   0  0  0  0  0  0  0  0  0  0  0  0
   -5.8520    1.1148   -2.6511 H   0  0  0  0  0  0  0  0  0  0  0  0
   -4.2186    0.4451   -3.1726 H   0  0  0  0  0  0  0  0  0  0  0  0
   -5.6445   -1.1332   -1.9351 H   0  0  0  0  0  0  0  0  0  0  0  0
   -3.2114   -1.8375   -1.8144 H   0  0  0  0  0  0  0  0  0  0  0  0
   -4.2555   -2.7979   -0.7368 H   0  0  0  0  0  0  0  0  0  0  0  0
   -2.5844   -2.3115    0.7205 H   0  0  0  0  0  0  0  0  0  0  0  0
   -0.6952   -1.6285    1.1169 H   0  0  0  0  0  0  0  0  0  0  0  0
   -0.3345   -1.6843   -1.6013 H   0  0  0  0  0  0  0  0  0  0  0  0
    0.8928   -2.1106   -0.3862 H   0  0  0  0  0  0  0  0  0  0  0  0
    0.5449    0.6707   -1.5236 H   0  0  0  0  0  0  0  0  0  0  0  0
    1.7947   -0.4491   -2.0940 H   0  0  0  0  0  0  0  0  0  0  0  0
    1.6375    2.3936   -0.4747 H   0  0  0  0  0  0  0  0  0  0  0  0
    3.1596    1.8422   -1.2397 H   0  0  0  0  0  0  0  0  0  0  0  0
    3.0748    2.2799    0.5046 H   0  0  0  0  0  0  0  0  0  0  0  0
    1.1298   -0.2785    3.3186 H   0  0  0  0  0  0  0  0  0  0  0  0
    3.1024   -1.7443    2.8554 H   0  0  0  0  0  0  0  0  0  0  0  0
    3.6334   -0.2318    3.6276 H   0  0  0  0  0  0  0  0  0  0  0  0
    4.9157    1.1868    2.4435 H   0  0  0  0  0  0  0  0  0  0  0  0
    2.9673   -1.6683    0.2806 H   0  0  0  0  0  0  0  0  0  0  0  0
    3.9622   -0.2325   -1.9482 H   0  0  0  0  0  0  0  0  0  0  0  0
    4.2841   -1.8316   -1.4274 H   0  0  0  0  0  0  0  0  0  0  0  0
    6.3715   -0.7091   -1.7211 H   0  0  0  0  0  0  0  0  0  0  0  0
    5.4518    3.3586    0.1921 H   0  0  0  0  0  0  0  0  0  0  0  0
    5.6009    5.8059    0.3723 H   0  0  0  0  0  0  0  0  0  0  0  0
    6.4165    7.8879   -0.6395 H   0  0  0  0  0  0  0  0  0  0  0  0
    7.7946    5.9635   -3.3263 H   0  0  0  0  0  0  0  0  0  0  0  0
    7.6546    3.5276   -3.5239 H   0  0  0  0  0  0  0  0  0  0  0  0
    7.1779    1.0528    1.1635 H   0  0  0  0  0  0  0  0  0  0  0  0
    8.3622    0.2212    0.0871 H   0  0  0  0  0  0  0  0  0  0  0  0
    8.1898   -0.2501    1.8063 H   0  0  0  0  0  0  0  0  0  0  0  0
    6.7075   -1.6732    3.1423 H   0  0  0  0  0  0  0  0  0  0  0  0
    4.1442   -3.1535    1.3801 H   0  0  0  0  0  0  0  0  0  0  0  0
    5.5738   -3.3320    2.3855 H   0  0  0  0  0  0  0  0  0  0  0  0
    5.5256   -3.2321   -0.6389 H   0  0  0  0  0  0  0  0  0  0  0  0
    6.3146   -4.4112    0.3961 H   0  0  0  0  0  0  0  0  0  0  0  0
    8.2581   -3.6053    1.4725 H   0  0  0  0  0  0  0  0  0  0  0  0
   10.0313   -2.5907    0.2160 H   0  0  0  0  0  0  0  0  0  0  0  0
   10.1241   -1.8230   -1.3934 H   0  0  0  0  0  0  0  0  0  0  0  0
    9.9768   -3.6189   -1.2585 H   0  0  0  0  0  0  0  0  0  0  0  0
   -0.3362    1.3889    0.5955 H   0  0  0  0  0  0  0  0  0  0  0  0
   -0.7027    0.5235    2.1213 H   0  0  0  0  0  0  0  0  0  0  0  0
   -5.5117   -0.2391    2.1644 H   0  0  0  0  0  0  0  0  0  0  0  0
   -4.7296   -3.1724    1.7432 H   0  0  0  0  0  0  0  0  0  0  0  0
   -6.2270   -2.5514    2.5416 H   0  0  0  0  0  0  0  0  0  0  0  0
   -4.6121   -2.2189    3.2715 H   0  0  0  0  0  0  0  0  0  0  0  0
   -6.2989   -2.0823    0.1049 H   0  0  0  0  0  0  0  0  0  0  0  0
   -8.2638   -1.6383   -0.2077 H   0  0  0  0  0  0  0  0  0  0  0  0
   -8.5937    0.3882    1.9327 H   0  0  0  0  0  0  0  0  0  0  0  0
   -9.4244   -1.1609    1.6532 H   0  0  0  0  0  0  0  0  0  0  0  0
  -11.1070    0.6236    1.5633 H   0  0  0  0  0  0  0  0  0  0  0  0
  -10.0496    3.8567    0.8335 H   0  0  0  0  0  0  0  0  0  0  0  0
  -10.0808    2.7177    2.2129 H   0  0  0  0  0  0  0  0  0  0  0  0
  -11.5511    2.9264    1.1245 H   0  0  0  0  0  0  0  0  0  0  0  0
  -11.8040    0.5973   -0.8580 H   0  0  0  0  0  0  0  0  0  0  0  0
  -11.0465   -1.9423    0.2134 H   0  0  0  0  0  0  0  0  0  0  0  0
   -9.8943   -1.5175   -1.7640 H   0  0  0  0  0  0  0  0  0  0  0  0
  -10.4712    1.2836   -2.8570 H   0  0  0  0  0  0  0  0  0  0  0  0
  -11.3764   -0.2358   -3.2439 H   0  0  0  0  0  0  0  0  0  0  0  0
   -9.6418   -0.0729   -3.7129 H   0  0  0  0  0  0  0  0  0  0  0  0
  1  2  1  0  0  0  0
  1 57  1  0  0  0  0
  1 58  1  0  0  0  0
  1 59  1  0  0  0  0
  3  2  1  0  0  0  0
  3  4  1  0  0  0  0
  3 60  1  6  0  0  0
  4  5  1  0  0  0  0
  4 61  1  0  0  0  0
  4 62  1  0  0  0  0
  5  6  1  0  0  0  0
  5 42  1  0  0  0  0
  5 63  1  1  0  0  0
  7  6  1  0  0  0  0
  7  8  1  0  0  0  0
  7 64  1  1  0  0  0
  8  9  1  0  0  0  0
  8 65  1  0  0  0  0
  8 66  1  0  0  0  0
  9 10  1  0  0  0  0
  9 67  1  0  0  0  0
  9 68  1  0  0  0  0
 10 11  1  6  0  0  0
 10 12  1  0  0  0  0
 11 69  1  0  0  0  0
 11 70  1  0  0  0  0
 11 71  1  0  0  0  0
 12 13  2  0  0  0  0
 12 41  1  0  0  0  0
 13 14  1  0  0  0  0
 13 72  1  0  0  0  0
 14 15  1  0  0  0  0
 14 73  1  0  0  0  0
 14 74  1  0  0  0  0
 15 16  1  1  0  0  0
 15 17  1  0  0  0  0
 16 75  1  0  0  0  0
 17 18  1  0  0  0  0
 17 10  1  0  0  0  0
 17 76  1  1  0  0  0
 18 19  1  0  0  0  0
 18 77  1  0  0  0  0
 18 78  1  0  0  0  0
 19 20  1  0  0  0  0
 19 30  1  0  0  0  0
 19 79  1  6  0  0  0
 20 21  1  0  0  0  0
 21 22  2  0  0  0  0
 21 23  1  0  0  0  0
 23 24  2  0  0  0  0
 24 25  1  0  0  0  0
 24 80  1  0  0  0  0
 25 26  2  0  0  0  0
 25 81  1  0  0  0  0
 26 27  1  0  0  0  0
 26 28  1  0  0  0  0
 27 82  1  0  0  0  0
 28 29  2  0  0  0  0
 28 83  1  0  0  0  0
 29 23  1  0  0  0  0
 29 84  1  0  0  0  0
 30 31  1  1  0  0  0
 30 32  1  0  0  0  0
 31 85  1  0  0  0  0
 31 86  1  0  0  0  0
 31 87  1  0  0  0  0
 32 33  1  1  0  0  0
 32 34  1  0  0  0  0
 32 15  1  0  0  0  0
 33 88  1  0  0  0  0
 34 35  1  0  0  0  0
 34 89  1  0  0  0  0
 34 90  1  0  0  0  0
 35 36  1  0  0  0  0
 35 91  1  0  0  0  0
 35 92  1  0  0  0  0
 36 37  1  1  0  0  0
 36 38  1  0  0  0  0
 36 30  1  0  0  0  0
 37 93  1  0  0  0  0
 38 39  1  0  0  0  0
 38 40  2  0  0  0  0
 39 94  1  0  0  0  0
 39 95  1  0  0  0  0
 39 96  1  0  0  0  0
 41  7  1  0  0  0  0
 41 97  1  0  0  0  0
 41 98  1  0  0  0  0
 42 43  1  0  0  0  0
 43 44  1  0  0  0  0
 43 45  1  0  0  0  0
 43 99  1  1  0  0  0
 44100  1  0  0  0  0
 44101  1  0  0  0  0
 44102  1  0  0  0  0
 45 46  1  0  0  0  0
 45  3  1  0  0  0  0
 45103  1  6  0  0  0
 47 46  1  0  0  0  0
 47 48  1  0  0  0  0
 47104  1  6  0  0  0
 48 49  1  0  0  0  0
 48105  1  0  0  0  0
 48106  1  0  0  0  0
 49 50  1  0  0  0  0
 49 52  1  0  0  0  0
 49107  1  1  0  0  0
 50 51  1  0  0  0  0
 51108  1  0  0  0  0
 51109  1  0  0  0  0
 51110  1  0  0  0  0
 52 53  1  0  0  0  0
 52 54  1  0  0  0  0
 52111  1  6  0  0  0
 53112  1  0  0  0  0
 54 55  1  0  0  0  0
 54 56  1  0  0  0  0
 54113  1  6  0  0  0
 55114  1  0  0  0  0
 55115  1  0  0  0  0
 55116  1  0  0  0  0
 56 47  1  0  0  0  0
M  END
>  <IDENTIFIER>
CNP0416196.1

>  <Energy>
1824.06

$$$$
