
 OpenBabel09132508403D

 94 96  0  0  0  0  0  0  0  0999 V2000
   -4.8640    1.3412    4.1739 C   0  0  0  0  0  0  0  0  0  0  0  0
   -4.7885    0.7727    2.7522 C   0  0  0  0  0  0  0  0  0  0  0  0
   -4.0372   -0.5896    2.6353 C   0  0  1  0  0  0  0  0  0  0  0  0
   -4.7155   -1.6259    3.5722 C   0  0  0  0  0  0  0  0  0  0  0  0
   -4.0256   -1.1560    1.1597 C   0  0  1  0  0  0  0  0  0  0  0  0
   -3.4027   -0.2279    0.0726 C   0  0  0  0  0  0  0  0  0  0  0  0
   -3.8261    0.9087    0.0019 O   0  0  0  0  0  0  0  0  0  0  0  0
   -2.4776   -0.6528   -0.8532 N   0  0  0  0  0  0  0  0  0  0  0  0
   -1.9792    0.0798   -2.0297 C   0  0  1  0  0  0  0  0  0  0  0  0
   -2.8996    1.1702   -2.6638 C   0  0  0  0  0  0  0  0  0  0  0  0
   -4.2045    0.6994   -3.3928 C   0  0  0  0  0  0  0  0  0  0  0  0
   -3.9012   -0.1768   -4.6237 C   0  0  0  0  0  0  0  0  0  0  0  0
   -5.2334   -0.0068   -2.5045 C   0  0  0  0  0  0  0  0  0  0  0  0
   -0.4680    0.3415   -1.9235 C   0  0  0  0  0  0  0  0  0  0  0  0
    0.2188   -0.6682   -1.9830 O   0  0  0  0  0  0  0  0  0  0  0  0
    0.1635    1.5714   -1.8381 N   0  0  0  0  0  0  0  0  0  0  0  0
   -0.4871    2.8665   -1.6874 C   0  0  0  0  0  0  0  0  0  0  0  0
    0.6417    3.8898   -1.8361 C   0  0  0  0  0  0  0  0  0  0  0  0
    1.8246    3.1533   -1.2542 C   0  0  2  0  0  0  0  0  0  0  0  0
    3.0226    3.7961   -1.5452 O   0  0  0  0  0  0  0  0  0  0  0  0
    4.1669    3.3606   -0.9847 C   0  0  0  0  0  0  0  0  0  0  0  0
    4.5814    3.8513    0.2659 C   0  0  0  0  0  0  0  0  0  0  0  0
    5.6809    3.2763    0.9186 C   0  0  0  0  0  0  0  0  0  0  0  0
    6.3294    2.1831    0.3308 C   0  0  0  0  0  0  0  0  0  0  0  0
    7.3292    1.3813    1.0707 C   0  0  0  0  0  0  0  0  0  0  0  0
    7.1906    0.0312    1.1296 C   0  0  0  0  0  0  0  0  0  0  0  0
    5.9974   -0.6247    0.6628 N   0  0  0  0  0  0  0  0  0  0  0  0
    4.7397   -0.2099    1.0348 C   0  0  0  0  0  0  0  0  0  0  0  0
    4.6046    0.6469    1.8993 O   0  0  0  0  0  0  0  0  0  0  0  0
    3.4853   -0.7946    0.4183 C   0  0  1  0  0  0  0  0  0  0  0  0
    2.7096   -1.6577    1.4529 C   0  0  1  0  0  0  0  0  0  0  0  0
    1.3713   -2.1465    0.8841 C   0  0  0  0  0  0  0  0  0  0  0  0
    3.5474   -2.8515    1.9935 C   0  0  0  0  0  0  0  0  0  0  0  0
    3.9361   -3.9033    0.9461 C   0  0  0  0  0  0  0  0  0  0  0  0
    2.6438    0.3130   -0.0655 N   0  0  0  0  0  0  0  0  0  0  0  0
    2.4847    0.5988   -1.3908 C   0  0  0  0  0  0  0  0  0  0  0  0
    3.0766   -0.0719   -2.2272 O   0  0  0  0  0  0  0  0  0  0  0  0
    1.6177    1.7585   -1.9055 C   0  0  1  0  0  0  0  0  0  0  0  0
    5.9539    1.7599   -0.9592 C   0  0  0  0  0  0  0  0  0  0  0  0
    4.8952    2.3604   -1.6182 C   0  0  0  0  0  0  0  0  0  0  0  0
   -3.5239   -2.5602    1.1639 N   0  0  0  0  0  0  0  0  0  0  0  0
   -3.9509   -3.4096    0.0374 C   0  0  0  0  0  0  0  0  0  0  0  0
   -2.1428   -2.7896    1.6308 C   0  0  0  0  0  0  0  0  0  0  0  0
   -5.3628    2.3330    4.1454 H   0  0  0  0  0  0  0  0  0  0  0  0
   -3.8445    1.4665    4.5948 H   0  0  0  0  0  0  0  0  0  0  0  0
   -5.4699    0.6996    4.8447 H   0  0  0  0  0  0  0  0  0  0  0  0
   -4.2642    1.5448    2.1625 H   0  0  0  0  0  0  0  0  0  0  0  0
   -5.8257    0.6651    2.3644 H   0  0  0  0  0  0  0  0  0  0  0  0
   -2.9918   -0.4394    2.9786 H   0  0  0  0  0  0  0  0  0  0  0  0
   -5.7783   -1.7757    3.2844 H   0  0  0  0  0  0  0  0  0  0  0  0
   -4.6663   -1.3131    4.6329 H   0  0  0  0  0  0  0  0  0  0  0  0
   -4.2098   -2.6108    3.5435 H   0  0  0  0  0  0  0  0  0  0  0  0
   -5.1041   -1.2070    0.8886 H   0  0  0  0  0  0  0  0  0  0  0  0
   -2.0948   -1.5943   -0.7892 H   0  0  0  0  0  0  0  0  0  0  0  0
   -1.9924   -0.6555   -2.8557 H   0  0  0  0  0  0  0  0  0  0  0  0
   -2.3175    1.6312   -3.4895 H   0  0  0  0  0  0  0  0  0  0  0  0
   -3.1267    1.9773   -1.9414 H   0  0  0  0  0  0  0  0  0  0  0  0
   -4.6885    1.6226   -3.7819 H   0  0  0  0  0  0  0  0  0  0  0  0
   -3.4744   -1.1609   -4.3436 H   0  0  0  0  0  0  0  0  0  0  0  0
   -3.1962    0.3458   -5.3049 H   0  0  0  0  0  0  0  0  0  0  0  0
   -4.8365   -0.3713   -5.1905 H   0  0  0  0  0  0  0  0  0  0  0  0
   -4.8285   -0.9591   -2.1047 H   0  0  0  0  0  0  0  0  0  0  0  0
   -6.1398   -0.2504   -3.0992 H   0  0  0  0  0  0  0  0  0  0  0  0
   -5.5599    0.6559   -1.6797 H   0  0  0  0  0  0  0  0  0  0  0  0
   -0.9489    2.9103   -0.6777 H   0  0  0  0  0  0  0  0  0  0  0  0
   -1.2240    3.1180   -2.4660 H   0  0  0  0  0  0  0  0  0  0  0  0
    0.4230    4.8861   -1.3971 H   0  0  0  0  0  0  0  0  0  0  0  0
    0.8464    4.0294   -2.9251 H   0  0  0  0  0  0  0  0  0  0  0  0
    1.6698    3.0943   -0.1517 H   0  0  0  0  0  0  0  0  0  0  0  0
    4.0193    4.6371    0.7545 H   0  0  0  0  0  0  0  0  0  0  0  0
    5.9557    3.6127    1.9106 H   0  0  0  0  0  0  0  0  0  0  0  0
    8.1786    1.8676    1.5390 H   0  0  0  0  0  0  0  0  0  0  0  0
    7.9891   -0.5683    1.5544 H   0  0  0  0  0  0  0  0  0  0  0  0
    6.0993   -1.4679    0.0785 H   0  0  0  0  0  0  0  0  0  0  0  0
    3.7866   -1.4485   -0.4258 H   0  0  0  0  0  0  0  0  0  0  0  0
    2.4674   -1.0115    2.3268 H   0  0  0  0  0  0  0  0  0  0  0  0
    1.5129   -2.7573   -0.0305 H   0  0  0  0  0  0  0  0  0  0  0  0
    0.7278   -1.2799    0.6267 H   0  0  0  0  0  0  0  0  0  0  0  0
    0.8403   -2.7509    1.6496 H   0  0  0  0  0  0  0  0  0  0  0  0
    2.9633   -3.3636    2.7892 H   0  0  0  0  0  0  0  0  0  0  0  0
    4.4762   -2.4682    2.4672 H   0  0  0  0  0  0  0  0  0  0  0  0
    3.0371   -4.3690    0.4935 H   0  0  0  0  0  0  0  0  0  0  0  0
    4.5213   -4.7087    1.4372 H   0  0  0  0  0  0  0  0  0  0  0  0
    4.5669   -3.4683    0.1462 H   0  0  0  0  0  0  0  0  0  0  0  0
    2.1934    0.9264    0.6303 H   0  0  0  0  0  0  0  0  0  0  0  0
    1.8443    1.8478   -2.9948 H   0  0  0  0  0  0  0  0  0  0  0  0
    6.4564    0.9296   -1.4393 H   0  0  0  0  0  0  0  0  0  0  0  0
    4.5932    1.9943   -2.5905 H   0  0  0  0  0  0  0  0  0  0  0  0
   -5.0391   -3.2873   -0.1465 H   0  0  0  0  0  0  0  0  0  0  0  0
   -3.7843   -4.4778    0.2912 H   0  0  0  0  0  0  0  0  0  0  0  0
   -3.4114   -3.1996   -0.9018 H   0  0  0  0  0  0  0  0  0  0  0  0
   -2.0296   -2.4747    2.6872 H   0  0  0  0  0  0  0  0  0  0  0  0
   -1.3991   -2.2322    1.0477 H   0  0  0  0  0  0  0  0  0  0  0  0
   -1.8926   -3.8708    1.6009 H   0  0  0  0  0  0  0  0  0  0  0  0
  1  2  1  0  0  0  0
  1 44  1  0  0  0  0
  1 45  1  0  0  0  0
  1 46  1  0  0  0  0
  2  3  1  0  0  0  0
  2 47  1  0  0  0  0
  2 48  1  0  0  0  0
  3  4  1  0  0  0  0
  3  5  1  0  0  0  0
  3 49  1  1  0  0  0
  4 50  1  0  0  0  0
  4 51  1  0  0  0  0
  4 52  1  0  0  0  0
  5  6  1  0  0  0  0
  5 41  1  0  0  0  0
  5 53  1  6  0  0  0
  6  7  2  0  0  0  0
  6  8  1  0  0  0  0
  8  9  1  0  0  0  0
  8 54  1  0  0  0  0
  9 10  1  0  0  0  0
  9 14  1  0  0  0  0
  9 55  1  6  0  0  0
 10 11  1  0  0  0  0
 10 56  1  0  0  0  0
 10 57  1  0  0  0  0
 11 12  1  0  0  0  0
 11 13  1  0  0  0  0
 11 58  1  0  0  0  0
 12 59  1  0  0  0  0
 12 60  1  0  0  0  0
 12 61  1  0  0  0  0
 13 62  1  0  0  0  0
 13 63  1  0  0  0  0
 13 64  1  0  0  0  0
 14 15  2  0  0  0  0
 14 16  1  0  0  0  0
 16 17  1  0  0  0  0
 17 18  1  0  0  0  0
 17 65  1  0  0  0  0
 17 66  1  0  0  0  0
 18 67  1  0  0  0  0
 18 68  1  0  0  0  0
 19 18  1  0  0  0  0
 19 20  1  0  0  0  0
 19 69  1  1  0  0  0
 20 21  1  0  0  0  0
 21 22  2  0  0  0  0
 22 23  1  0  0  0  0
 22 70  1  0  0  0  0
 23 24  2  0  0  0  0
 23 71  1  0  0  0  0
 24 25  1  0  0  0  0
 24 39  1  0  0  0  0
 25 26  2  0  0  0  0
 25 72  1  0  0  0  0
 26 27  1  0  0  0  0
 26 73  1  0  0  0  0
 27 28  1  0  0  0  0
 27 74  1  0  0  0  0
 28 29  2  0  0  0  0
 28 30  1  0  0  0  0
 30 31  1  0  0  0  0
 30 35  1  0  0  0  0
 30 75  1  6  0  0  0
 31 32  1  0  0  0  0
 31 33  1  0  0  0  0
 31 76  1  1  0  0  0
 32 77  1  0  0  0  0
 32 78  1  0  0  0  0
 32 79  1  0  0  0  0
 33 34  1  0  0  0  0
 33 80  1  0  0  0  0
 33 81  1  0  0  0  0
 34 82  1  0  0  0  0
 34 83  1  0  0  0  0
 34 84  1  0  0  0  0
 35 36  1  0  0  0  0
 35 85  1  0  0  0  0
 36 37  2  0  0  0  0
 36 38  1  0  0  0  0
 38 16  1  0  0  0  0
 38 19  1  0  0  0  0
 38 86  1  6  0  0  0
 39 40  2  0  0  0  0
 39 87  1  0  0  0  0
 40 21  1  0  0  0  0
 40 88  1  0  0  0  0
 41 42  1  0  0  0  0
 41 43  1  0  0  0  0
 42 89  1  0  0  0  0
 42 90  1  0  0  0  0
 42 91  1  0  0  0  0
 43 92  1  0  0  0  0
 43 93  1  0  0  0  0
 43 94  1  0  0  0  0
M  END
>  <IDENTIFIER>
CNP0293482.3

>  <Energy>
1092.59

$$$$
