
 OpenBabel09122506213D

 81 86  0  0  0  0  0  0  0  0999 V2000
   -0.1328   -0.2514    3.2150 C   0  0  0  0  0  0  0  0  0  0  0  0
   -0.4288    0.1339    1.9638 C   0  0  0  0  0  0  0  0  0  0  0  0
   -0.7241   -0.8034    0.8003 C   0  0  2  0  0  0  0  0  0  0  0  0
    0.1682   -0.3393   -0.4728 C   0  0  1  0  0  0  0  0  0  0  0  0
   -0.5928    0.2083   -1.4946 O   0  0  0  0  0  0  0  0  0  0  0  0
   -0.5484   -0.1758   -2.8040 C   0  0  0  0  0  0  0  0  0  0  0  0
    0.2240   -1.0384   -3.1943 O   0  0  0  0  0  0  0  0  0  0  0  0
    1.3055    0.7085   -0.1843 C   0  0  2  0  0  0  0  0  0  0  0  0
    2.4452   -0.0019    0.1711 O   0  0  0  0  0  0  0  0  0  0  0  0
    3.5763   -0.1020   -0.5765 C   0  0  0  0  0  0  0  0  0  0  0  0
    3.6194    0.3197   -1.7238 O   0  0  0  0  0  0  0  0  0  0  0  0
    4.7770   -0.7828    0.0072 C   0  0  0  0  0  0  0  0  0  0  0  0
    5.1003   -2.0904   -0.7398 C   0  0  0  0  0  0  0  0  0  0  0  0
    6.3890   -2.7038   -0.1829 C   0  0  0  0  0  0  0  0  0  0  0  0
    3.9424   -3.0951   -0.6080 C   0  0  0  0  0  0  0  0  0  0  0  0
    0.9386    1.7912    0.9241 C   0  0  1  0  0  0  0  0  0  0  0  0
    2.0331    1.7078    2.0719 C   0  0  0  0  0  0  0  0  0  0  0  0
    0.7923    3.2676    0.4672 C   0  0  2  0  0  0  0  0  0  0  0  0
    2.0406    3.9765   -0.0075 C   0  0  0  0  0  0  0  0  0  0  0  0
    3.1350    4.3771    0.7395 C   0  0  0  0  0  0  0  0  0  0  0  0
    4.0140    4.9543   -0.0487 O   0  0  0  0  0  0  0  0  0  0  0  0
    3.5489    4.9538   -1.2776 C   0  0  0  0  0  0  0  0  0  0  0  0
    2.3060    4.3571   -1.3049 C   0  0  0  0  0  0  0  0  0  0  0  0
    0.0991    3.9381    1.6882 C   0  0  0  0  0  0  0  0  0  0  0  0
   -0.6751    2.7885    2.2949 C   0  0  0  0  0  0  0  0  0  0  0  0
   -1.3944    2.8802    3.2767 O   0  0  0  0  0  0  0  0  0  0  0  0
   -0.5126    1.5539    1.4699 C   0  0  2  0  0  0  0  0  0  0  0  0
   -1.4973    1.6490    0.4227 O   0  0  0  0  0  0  0  0  0  0  0  0
   -2.6590    0.8656    0.7034 C   0  0  1  0  0  0  0  0  0  0  0  0
   -3.7823    1.3815   -0.1994 C   0  0  0  0  0  0  0  0  0  0  0  0
   -5.0845    0.6827    0.0191 C   0  0  0  0  0  0  0  0  0  0  0  0
   -6.0199    1.3280    0.4658 O   0  0  0  0  0  0  0  0  0  0  0  0
   -5.3120   -0.6061   -0.3368 O   0  0  0  0  0  0  0  0  0  0  0  0
   -4.4936   -1.6356   -0.7921 C   0  0  2  0  0  0  0  0  0  0  0  0
   -4.8926   -1.8629   -2.2715 C   0  0  0  0  0  0  0  0  0  0  0  0
   -4.9113   -2.9118    0.0112 C   0  0  0  0  0  0  0  0  0  0  0  0
   -4.0452   -3.9812   -0.1182 O   0  0  0  0  0  0  0  0  0  0  0  0
   -2.8165   -3.9535   -0.6831 C   0  0  0  0  0  0  0  0  0  0  0  0
   -2.2424   -5.0093   -0.8952 O   0  0  0  0  0  0  0  0  0  0  0  0
   -2.1901   -2.6775   -1.1633 C   0  0  0  0  0  0  0  0  0  0  0  0
   -2.9242   -1.3787   -0.7074 C   0  0  2  0  0  0  0  0  0  0  0  0
   -2.3236   -0.6974    0.6225 C   0  0  1  0  0  0  0  0  0  0  0  0
   -2.9601   -1.3736    1.8695 C   0  0  0  0  0  0  0  0  0  0  0  0
   -0.0901   -1.3048    3.4711 H   0  0  0  0  0  0  0  0  0  0  0  0
    0.0671    0.4840    3.9870 H   0  0  0  0  0  0  0  0  0  0  0  0
   -0.4391   -1.8417    1.0818 H   0  0  0  0  0  0  0  0  0  0  0  0
    0.6672   -1.2480   -0.8771 H   0  0  0  0  0  0  0  0  0  0  0  0
   -1.2125    0.3006   -3.5153 H   0  0  0  0  0  0  0  0  0  0  0  0
    1.5181    1.2460   -1.1359 H   0  0  0  0  0  0  0  0  0  0  0  0
    4.5895   -1.0110    1.0793 H   0  0  0  0  0  0  0  0  0  0  0  0
    5.6353   -0.0764   -0.0498 H   0  0  0  0  0  0  0  0  0  0  0  0
    5.2638   -1.8688   -1.8180 H   0  0  0  0  0  0  0  0  0  0  0  0
    6.2782   -2.9382    0.8976 H   0  0  0  0  0  0  0  0  0  0  0  0
    7.2350   -1.9951   -0.3113 H   0  0  0  0  0  0  0  0  0  0  0  0
    6.6347   -3.6387   -0.7303 H   0  0  0  0  0  0  0  0  0  0  0  0
    3.7542   -3.3343    0.4612 H   0  0  0  0  0  0  0  0  0  0  0  0
    4.1834   -4.0341   -1.1486 H   0  0  0  0  0  0  0  0  0  0  0  0
    3.0093   -2.6815   -1.0462 H   0  0  0  0  0  0  0  0  0  0  0  0
    3.0390    1.9418    1.6713 H   0  0  0  0  0  0  0  0  0  0  0  0
    2.1265    0.6883    2.4929 H   0  0  0  0  0  0  0  0  0  0  0  0
    1.8457    2.3763    2.9337 H   0  0  0  0  0  0  0  0  0  0  0  0
    0.0754    3.2541   -0.3861 H   0  0  0  0  0  0  0  0  0  0  0  0
    3.2696    4.2569    1.8058 H   0  0  0  0  0  0  0  0  0  0  0  0
    4.0758    5.3634   -2.1287 H   0  0  0  0  0  0  0  0  0  0  0  0
    1.6777    4.2070   -2.1725 H   0  0  0  0  0  0  0  0  0  0  0  0
   -0.5280    4.8015    1.3804 H   0  0  0  0  0  0  0  0  0  0  0  0
    0.8306    4.2797    2.4495 H   0  0  0  0  0  0  0  0  0  0  0  0
   -2.9798    1.1213    1.7431 H   0  0  0  0  0  0  0  0  0  0  0  0
   -3.5142    1.3279   -1.2739 H   0  0  0  0  0  0  0  0  0  0  0  0
   -3.9094    2.4632    0.0333 H   0  0  0  0  0  0  0  0  0  0  0  0
   -5.9903   -2.0192   -2.3553 H   0  0  0  0  0  0  0  0  0  0  0  0
   -4.4029   -2.7480   -2.7225 H   0  0  0  0  0  0  0  0  0  0  0  0
   -4.6396   -0.9652   -2.8760 H   0  0  0  0  0  0  0  0  0  0  0  0
   -5.9285   -3.2256   -0.3089 H   0  0  0  0  0  0  0  0  0  0  0  0
   -5.0346   -2.7355    1.0894 H   0  0  0  0  0  0  0  0  0  0  0  0
   -2.2118   -2.7460   -2.2720 H   0  0  0  0  0  0  0  0  0  0  0  0
   -1.1184   -2.6629   -0.9144 H   0  0  0  0  0  0  0  0  0  0  0  0
   -2.6929   -0.6585   -1.4971 H   0  0  0  0  0  0  0  0  0  0  0  0
   -4.0365   -1.1381    1.9319 H   0  0  0  0  0  0  0  0  0  0  0  0
   -2.5744   -0.9776    2.8263 H   0  0  0  0  0  0  0  0  0  0  0  0
   -2.7741   -2.4679    1.8689 H   0  0  0  0  0  0  0  0  0  0  0  0
  1  2  2  0  0  0  0
  1 44  1  0  0  0  0
  1 45  1  0  0  0  0
  3  2  1  0  0  0  0
  3  4  1  0  0  0  0
  3 46  1  1  0  0  0
  4  5  1  0  0  0  0
  4  8  1  0  0  0  0
  4 47  1  6  0  0  0
  5  6  1  0  0  0  0
  6  7  2  0  0  0  0
  6 48  1  0  0  0  0
  8  9  1  0  0  0  0
  8 16  1  0  0  0  0
  8 49  1  6  0  0  0
  9 10  1  0  0  0  0
 10 11  2  0  0  0  0
 10 12  1  0  0  0  0
 12 13  1  0  0  0  0
 12 50  1  0  0  0  0
 12 51  1  0  0  0  0
 13 14  1  0  0  0  0
 13 15  1  0  0  0  0
 13 52  1  0  0  0  0
 14 53  1  0  0  0  0
 14 54  1  0  0  0  0
 14 55  1  0  0  0  0
 15 56  1  0  0  0  0
 15 57  1  0  0  0  0
 15 58  1  0  0  0  0
 16 17  1  1  0  0  0
 16 18  1  0  0  0  0
 17 59  1  0  0  0  0
 17 60  1  0  0  0  0
 17 61  1  0  0  0  0
 18 19  1  0  0  0  0
 18 24  1  0  0  0  0
 18 62  1  6  0  0  0
 19 20  2  0  0  0  0
 20 21  1  0  0  0  0
 20 63  1  0  0  0  0
 21 22  1  0  0  0  0
 22 23  2  0  0  0  0
 22 64  1  0  0  0  0
 23 19  1  0  0  0  0
 23 65  1  0  0  0  0
 24 25  1  0  0  0  0
 24 66  1  0  0  0  0
 24 67  1  0  0  0  0
 25 26  2  0  0  0  0
 27 25  1  1  0  0  0
 27 28  1  0  0  0  0
 27  2  1  0  0  0  0
 27 16  1  0  0  0  0
 28 29  1  0  0  0  0
 29 30  1  0  0  0  0
 29 68  1  1  0  0  0
 30 31  1  0  0  0  0
 30 69  1  0  0  0  0
 30 70  1  0  0  0  0
 31 32  2  0  0  0  0
 31 33  1  0  0  0  0
 33 34  1  0  0  0  0
 34 35  1  6  0  0  0
 34 36  1  0  0  0  0
 35 71  1  0  0  0  0
 35 72  1  0  0  0  0
 35 73  1  0  0  0  0
 36 37  1  0  0  0  0
 36 74  1  0  0  0  0
 36 75  1  0  0  0  0
 37 38  1  0  0  0  0
 38 39  2  0  0  0  0
 38 40  1  0  0  0  0
 40 76  1  0  0  0  0
 40 77  1  0  0  0  0
 41 40  1  0  0  0  0
 41 42  1  0  0  0  0
 41 34  1  0  0  0  0
 41 78  1  6  0  0  0
 42 43  1  1  0  0  0
 42 29  1  0  0  0  0
 42  3  1  0  0  0  0
 43 79  1  0  0  0  0
 43 80  1  0  0  0  0
 43 81  1  0  0  0  0
M  END
>  <IDENTIFIER>
CNP0381659.1

>  <Energy>
1372.66

$$$$
