
 OpenBabel09072522393D

 56 61  0  0  0  0  0  0  0  0999 V2000
    2.2909    1.2302   -0.6973 O   0  0  0  0  0  0  0  0  0  0  0  0
    2.2780    0.3909    0.1882 C   0  0  0  0  0  0  0  0  0  0  0  0
    3.1312   -0.8208    0.2743 C   0  0  0  0  0  0  0  0  0  0  0  0
    4.1377   -1.2754   -0.5108 C   0  0  0  0  0  0  0  0  0  0  0  0
    4.7838   -0.5998   -1.6704 C   0  0  0  0  0  0  0  0  0  0  0  0
    4.8989    0.7968   -1.7932 C   0  0  0  0  0  0  0  0  0  0  0  0
    5.5457    1.3579   -2.8948 C   0  0  0  0  0  0  0  0  0  0  0  0
    6.0821    0.5220   -3.8719 C   0  0  0  0  0  0  0  0  0  0  0  0
    5.9889   -0.8261   -3.7363 N   0  0  0  0  0  0  0  0  0  0  0  0
    5.3709   -1.3972   -2.6678 C   0  0  0  0  0  0  0  0  0  0  0  0
    2.6017   -1.5231    1.4554 C   0  0  0  0  0  0  0  0  0  0  0  0
    2.9747   -2.7348    2.0437 C   0  0  0  0  0  0  0  0  0  0  0  0
    2.2858   -3.1577    3.1921 C   0  0  0  0  0  0  0  0  0  0  0  0
    1.2459   -2.3737    3.7319 C   0  0  0  0  0  0  0  0  0  0  0  0
    0.3942   -2.9195    5.1647 Cl  0  0  0  0  0  0  0  0  0  0  0  0
    0.8854   -1.1574    3.1276 C   0  0  0  0  0  0  0  0  0  0  0  0
    1.5851   -0.7505    1.9858 C   0  0  0  0  0  0  0  0  0  0  0  0
    1.3854    0.4128    1.2058 N   0  0  0  0  0  0  0  0  0  0  0  0
    0.3759    1.4397    1.4050 C   0  0  0  0  0  0  0  0  0  0  0  0
   -0.5692    1.4515    0.2740 N   0  0  0  0  0  0  0  0  0  0  0  0
   -1.4193    2.6969    0.2879 C   0  0  0  0  0  0  0  0  0  0  0  0
   -2.8032    2.5135   -0.4426 C   0  0  2  0  0  0  0  0  0  0  0  0
   -2.4528    1.5963   -1.6189 C   0  0  0  0  0  0  0  0  0  0  0  0
   -2.3537    0.1896   -1.0122 C   0  0  1  0  0  0  0  0  0  0  0  0
   -1.3400    0.1762    0.1848 C   0  0  0  0  0  0  0  0  0  0  0  0
   -3.7482   -0.1937   -0.5253 C   0  0  0  0  0  0  0  0  0  0  0  0
   -4.0890   -1.5503   -0.4530 C   0  0  0  0  0  0  0  0  0  0  0  0
   -5.3681   -1.9223   -0.0520 C   0  0  0  0  0  0  0  0  0  0  0  0
   -6.3060   -0.9469    0.2712 C   0  0  0  0  0  0  0  0  0  0  0  0
   -5.9548    0.4040    0.2040 C   0  0  0  0  0  0  0  0  0  0  0  0
   -6.7875    1.2460    0.4978 O   0  0  0  0  0  0  0  0  0  0  0  0
   -4.6771    0.7796   -0.1781 N   0  0  0  0  0  0  0  0  0  0  0  0
   -4.3316    2.2410   -0.2071 C   0  0  0  0  0  0  0  0  0  0  0  0
    4.5249   -2.2638   -0.2832 H   0  0  0  0  0  0  0  0  0  0  0  0
    4.5367    1.4654   -1.0322 H   0  0  0  0  0  0  0  0  0  0  0  0
    5.6389    2.4327   -2.9840 H   0  0  0  0  0  0  0  0  0  0  0  0
    6.5867    0.9444   -4.7305 H   0  0  0  0  0  0  0  0  0  0  0  0
    5.3240   -2.4771   -2.6048 H   0  0  0  0  0  0  0  0  0  0  0  0
    3.7725   -3.3395    1.6349 H   0  0  0  0  0  0  0  0  0  0  0  0
    2.5581   -4.0934    3.6632 H   0  0  0  0  0  0  0  0  0  0  0  0
    0.0840   -0.5650    3.5444 H   0  0  0  0  0  0  0  0  0  0  0  0
    0.8919    2.4218    1.4893 H   0  0  0  0  0  0  0  0  0  0  0  0
   -0.1827    1.2806    2.3503 H   0  0  0  0  0  0  0  0  0  0  0  0
   -0.8536    3.4390   -0.3165 H   0  0  0  0  0  0  0  0  0  0  0  0
   -1.4823    3.1933    1.2986 H   0  0  0  0  0  0  0  0  0  0  0  0
   -2.8689    1.9696    0.5183 H   0  0  0  0  0  0  0  0  0  0  0  0
   -1.4890    1.8862   -2.0975 H   0  0  0  0  0  0  0  0  0  0  0  0
   -3.2126    1.6295   -2.4335 H   0  0  0  0  0  0  0  0  0  0  0  0
   -2.0186   -0.4722   -1.8419 H   0  0  0  0  0  0  0  0  0  0  0  0
   -0.6717   -0.7049    0.0785 H   0  0  0  0  0  0  0  0  0  0  0  0
   -1.8838    0.0339    1.1480 H   0  0  0  0  0  0  0  0  0  0  0  0
   -3.3686   -2.3147   -0.7173 H   0  0  0  0  0  0  0  0  0  0  0  0
   -5.6361   -2.9696    0.0007 H   0  0  0  0  0  0  0  0  0  0  0  0
   -7.3027   -1.2417    0.5770 H   0  0  0  0  0  0  0  0  0  0  0  0
   -4.7071    2.7705    0.7123 H   0  0  0  0  0  0  0  0  0  0  0  0
   -4.9045    2.6963   -1.0448 H   0  0  0  0  0  0  0  0  0  0  0  0
  1  2  2  0  0  0  0
  2  3  1  0  0  0  0
  3  4  2  0  0  0  0
  3 11  1  0  0  0  0
  4  5  1  0  0  0  0
  4 34  1  0  0  0  0
  5  6  2  0  0  0  0
  6  7  1  0  0  0  0
  6 35  1  0  0  0  0
  7  8  2  0  0  0  0
  7 36  1  0  0  0  0
  8  9  1  0  0  0  0
  8 37  1  0  0  0  0
  9 10  2  0  0  0  0
 10  5  1  0  0  0  0
 10 38  1  0  0  0  0
 11 12  2  0  0  0  0
 12 13  1  0  0  0  0
 12 39  1  0  0  0  0
 13 14  2  0  0  0  0
 13 40  1  0  0  0  0
 14 15  1  0  0  0  0
 14 16  1  0  0  0  0
 16 17  2  0  0  0  0
 16 41  1  0  0  0  0
 17 18  1  0  0  0  0
 17 11  1  0  0  0  0
 18 19  1  0  0  0  0
 18  2  1  0  0  0  0
 19 20  1  0  0  0  0
 19 42  1  0  0  0  0
 19 43  1  0  0  0  0
 20 21  1  0  0  0  0
 21 44  1  0  0  0  0
 21 45  1  0  0  0  0
 22 21  1  0  0  0  0
 22 23  1  0  0  0  0
 22 46  1  1  0  0  0
 23 24  1  0  0  0  0
 23 47  1  0  0  0  0
 23 48  1  0  0  0  0
 24 25  1  0  0  0  0
 24 26  1  0  0  0  0
 24 49  1  6  0  0  0
 25 20  1  0  0  0  0
 25 50  1  0  0  0  0
 25 51  1  0  0  0  0
 26 27  2  0  0  0  0
 27 28  1  0  0  0  0
 27 52  1  0  0  0  0
 28 29  2  0  0  0  0
 28 53  1  0  0  0  0
 29 30  1  0  0  0  0
 29 54  1  0  0  0  0
 30 31  2  0  0  0  0
 30 32  1  0  0  0  0
 32 33  1  0  0  0  0
 32 26  1  0  0  0  0
 33 22  1  0  0  0  0
 33 55  1  0  0  0  0
 33 56  1  0  0  0  0
M  END
>  <IDENTIFIER>
CNP0282170.1

>  <Energy>
1171.74

$$$$
