
 OpenBabel09122515383D

 61 61  0  0  0  0  0  0  0  0999 V2000
   -7.8292    1.3731    1.7176 C   0  0  0  0  0  0  0  0  0  0  0  0
   -7.1549    2.4453    0.8593 C   0  0  0  0  0  0  0  0  0  0  0  0
   -5.7677    2.0223    0.3510 C   0  0  0  0  0  0  0  0  0  0  0  0
   -5.8208    0.8387   -0.6344 C   0  0  0  0  0  0  0  0  0  0  0  0
   -4.4375    0.4342   -1.1675 C   0  0  0  0  0  0  0  0  0  0  0  0
   -3.5444   -0.0758   -0.0545 C   0  0  0  0  0  0  0  0  0  0  0  0
   -3.0299   -1.3164    0.0729 C   0  0  0  0  0  0  0  0  0  0  0  0
   -3.2169   -2.4857   -0.8707 C   0  0  0  0  0  0  0  0  0  0  0  0
   -1.8629   -2.9640   -1.4375 C   0  0  2  0  0  0  0  0  0  0  0  0
   -2.0652   -3.9690   -2.4002 O   0  0  0  0  0  0  0  0  0  0  0  0
   -0.9548   -3.5033   -0.3508 C   0  0  0  0  0  0  0  0  0  0  0  0
    0.0807   -2.9203    0.2992 C   0  0  0  0  0  0  0  0  0  0  0  0
    0.6629   -1.5421    0.2626 C   0  0  0  0  0  0  0  0  0  0  0  0
    0.1538   -0.4383   -0.4522 C   0  0  0  0  0  0  0  0  0  0  0  0
    0.7578    0.8131   -0.3183 C   0  0  0  0  0  0  0  0  0  0  0  0
    1.8499    0.9784    0.5286 C   0  0  0  0  0  0  0  0  0  0  0  0
    2.3480   -0.1288    1.2192 C   0  0  0  0  0  0  0  0  0  0  0  0
    3.5173    0.0074    2.1576 C   0  0  0  0  0  0  0  0  0  0  0  0
    4.8358   -0.4787    1.5234 C   0  0  2  0  0  0  0  0  0  0  0  0
    5.8565   -0.4760    2.4923 O   0  0  0  0  0  0  0  0  0  0  0  0
    5.2259    0.4162    0.3236 C   0  0  0  0  0  0  0  0  0  0  0  0
    6.5537   -0.0002   -0.3215 C   0  0  0  0  0  0  0  0  0  0  0  0
    6.9214    0.8290   -1.5694 C   0  0  0  0  0  0  0  0  0  0  0  0
    7.2140    2.3171   -1.3039 C   0  0  0  0  0  0  0  0  0  0  0  0
    6.0740    3.0190   -0.8906 O   0  0  0  0  0  0  0  0  0  0  0  0
    1.7501   -1.3405    1.0640 N   0  0  0  0  0  0  0  0  0  0  0  0
   -8.7959    1.7611    2.1011 H   0  0  0  0  0  0  0  0  0  0  0  0
   -7.1836    1.1129    2.5837 H   0  0  0  0  0  0  0  0  0  0  0  0
   -8.0403    0.4574    1.1297 H   0  0  0  0  0  0  0  0  0  0  0  0
   -7.0268    3.3520    1.4897 H   0  0  0  0  0  0  0  0  0  0  0  0
   -7.8115    2.7091    0.0023 H   0  0  0  0  0  0  0  0  0  0  0  0
   -5.1379    1.7806    1.2315 H   0  0  0  0  0  0  0  0  0  0  0  0
   -5.3129    2.8905   -0.1745 H   0  0  0  0  0  0  0  0  0  0  0  0
   -6.4539    1.1361   -1.4992 H   0  0  0  0  0  0  0  0  0  0  0  0
   -6.2781   -0.0534   -0.1584 H   0  0  0  0  0  0  0  0  0  0  0  0
   -3.9491    1.3035   -1.6578 H   0  0  0  0  0  0  0  0  0  0  0  0
   -4.6048   -0.3197   -1.9544 H   0  0  0  0  0  0  0  0  0  0  0  0
   -3.2883    0.6312    0.7276 H   0  0  0  0  0  0  0  0  0  0  0  0
   -2.4127   -1.4969    0.9481 H   0  0  0  0  0  0  0  0  0  0  0  0
   -3.8712   -2.2417   -1.7236 H   0  0  0  0  0  0  0  0  0  0  0  0
   -3.7069   -3.3130   -0.3130 H   0  0  0  0  0  0  0  0  0  0  0  0
   -1.3940   -2.1411   -1.9896 H   0  0  0  0  0  0  0  0  0  0  0  0
   -2.6018   -4.6932   -1.9803 H   0  0  0  0  0  0  0  0  0  0  0  0
   -1.1808   -4.5223   -0.0433 H   0  0  0  0  0  0  0  0  0  0  0  0
    0.5666   -3.5703    1.0236 H   0  0  0  0  0  0  0  0  0  0  0  0
   -0.7026   -0.4779   -1.0861 H   0  0  0  0  0  0  0  0  0  0  0  0
    0.3661    1.6635   -0.8614 H   0  0  0  0  0  0  0  0  0  0  0  0
    2.3065    1.9539    0.6361 H   0  0  0  0  0  0  0  0  0  0  0  0
    3.2882   -0.5633    3.0838 H   0  0  0  0  0  0  0  0  0  0  0  0
    3.6459    1.0708    2.4589 H   0  0  0  0  0  0  0  0  0  0  0  0
    4.7063   -1.5274    1.1754 H   0  0  0  0  0  0  0  0  0  0  0  0
    5.9777    0.4595    2.8038 H   0  0  0  0  0  0  0  0  0  0  0  0
    5.3026    1.4569    0.6952 H   0  0  0  0  0  0  0  0  0  0  0  0
    4.4294    0.3673   -0.4498 H   0  0  0  0  0  0  0  0  0  0  0  0
    6.4638   -1.0617   -0.6401 H   0  0  0  0  0  0  0  0  0  0  0  0
    7.3781    0.0701    0.4209 H   0  0  0  0  0  0  0  0  0  0  0  0
    6.1248    0.7358   -2.3393 H   0  0  0  0  0  0  0  0  0  0  0  0
    7.8502    0.3859   -1.9889 H   0  0  0  0  0  0  0  0  0  0  0  0
    7.6113    2.7893   -2.2306 H   0  0  0  0  0  0  0  0  0  0  0  0
    8.0036    2.4144   -0.5289 H   0  0  0  0  0  0  0  0  0  0  0  0
    5.4788    3.0897   -1.6819 H   0  0  0  0  0  0  0  0  0  0  0  0
  1  2  1  0  0  0  0
  1 27  1  0  0  0  0
  1 28  1  0  0  0  0
  1 29  1  0  0  0  0
  2  3  1  0  0  0  0
  2 30  1  0  0  0  0
  2 31  1  0  0  0  0
  3  4  1  0  0  0  0
  3 32  1  0  0  0  0
  3 33  1  0  0  0  0
  4  5  1  0  0  0  0
  4 34  1  0  0  0  0
  4 35  1  0  0  0  0
  5  6  1  0  0  0  0
  5 36  1  0  0  0  0
  5 37  1  0  0  0  0
  6  7  2  3  0  0  0
  6 38  1  0  0  0  0
  7  8  1  0  0  0  0
  7 39  1  0  0  0  0
  8  9  1  0  0  0  0
  8 40  1  0  0  0  0
  8 41  1  0  0  0  0
  9 10  1  0  0  0  0
  9 11  1  0  0  0  0
  9 42  1  6  0  0  0
 10 43  1  0  0  0  0
 11 12  2  3  0  0  0
 11 44  1  0  0  0  0
 12 13  1  0  0  0  0
 12 45  1  0  0  0  0
 13 14  2  0  0  0  0
 14 15  1  0  0  0  0
 14 46  1  0  0  0  0
 15 16  2  0  0  0  0
 15 47  1  0  0  0  0
 16 17  1  0  0  0  0
 16 48  1  0  0  0  0
 17 18  1  0  0  0  0
 17 26  2  0  0  0  0
 18 19  1  0  0  0  0
 18 49  1  0  0  0  0
 18 50  1  0  0  0  0
 19 20  1  0  0  0  0
 19 21  1  0  0  0  0
 19 51  1  6  0  0  0
 20 52  1  0  0  0  0
 21 22  1  0  0  0  0
 21 53  1  0  0  0  0
 21 54  1  0  0  0  0
 22 23  1  0  0  0  0
 22 55  1  0  0  0  0
 22 56  1  0  0  0  0
 23 24  1  0  0  0  0
 23 57  1  0  0  0  0
 23 58  1  0  0  0  0
 24 25  1  0  0  0  0
 24 59  1  0  0  0  0
 24 60  1  0  0  0  0
 25 61  1  0  0  0  0
 26 13  1  0  0  0  0
M  END
>  <IDENTIFIER>
CNP0559117.0

>  <Energy>
328.299

$$$$
