
 OpenBabel09072507473D

132131  0  0  0  0  0  0  0  0999 V2000
  -17.2128    0.6755    0.0451 C   0  0  0  0  0  0  0  0  0  0  0  0
  -16.4454   -0.5651    0.5265 C   0  0  0  0  0  0  0  0  0  0  0  0
  -17.4326   -1.6092    1.0618 C   0  0  0  0  0  0  0  0  0  0  0  0
  -15.5925   -1.1970   -0.6000 C   0  0  0  0  0  0  0  0  0  0  0  0
  -14.5507   -0.2651   -1.2422 C   0  0  0  0  0  0  0  0  0  0  0  0
  -13.5004    0.2443   -0.2417 C   0  0  0  0  0  0  0  0  0  0  0  0
  -12.4637    1.1824   -0.8792 C   0  0  0  0  0  0  0  0  0  0  0  0
  -11.6567    0.5028   -1.9975 C   0  0  0  0  0  0  0  0  0  0  0  0
  -10.5441    1.3924   -2.5769 C   0  0  0  0  0  0  0  0  0  0  0  0
   -9.4777    1.8332   -1.5569 C   0  0  0  0  0  0  0  0  0  0  0  0
   -8.8521    0.6852   -0.7493 C   0  0  0  0  0  0  0  0  0  0  0  0
   -8.1535   -0.3724   -1.6227 C   0  0  0  0  0  0  0  0  0  0  0  0
   -7.5883   -1.5395   -0.7907 C   0  0  0  0  0  0  0  0  0  0  0  0
   -6.6247   -1.1202    0.3302 C   0  0  0  0  0  0  0  0  0  0  0  0
   -5.3866   -0.3766   -0.1925 C   0  0  0  0  0  0  0  0  0  0  0  0
   -4.5064    0.1652    0.9435 C   0  0  0  0  0  0  0  0  0  0  0  0
   -3.9926   -0.8959    1.9336 C   0  0  0  0  0  0  0  0  0  0  0  0
   -3.1819   -2.0296    1.2866 C   0  0  0  0  0  0  0  0  0  0  0  0
   -1.9803   -1.6472    0.3910 C   0  0  0  0  0  0  0  0  0  0  0  0
   -0.7749   -0.9747    1.0758 C   0  0  0  0  0  0  0  0  0  0  0  0
   -0.9490    0.5293    1.3596 C   0  0  0  0  0  0  0  0  0  0  0  0
    0.2589    1.1531    2.0690 C   0  0  0  0  0  0  0  0  0  0  0  0
    1.5569    1.1529    1.2415 C   0  0  0  0  0  0  0  0  0  0  0  0
    2.6961    1.7977    1.9893 C   0  0  0  0  0  0  0  0  0  0  0  0
    2.5113    2.2592    3.1096 O   0  0  0  0  0  0  0  0  0  0  0  0
    3.9352    1.8181    1.4266 O   0  0  0  0  0  0  0  0  0  0  0  0
    5.0782    2.2612    2.0816 C   0  0  1  0  0  0  0  0  0  0  0  0
    6.0293    1.0753    2.2977 C   0  0  0  0  0  0  0  0  0  0  0  0
    5.3908    0.0562    3.0211 O   0  0  0  0  0  0  0  0  0  0  0  0
    5.7638    3.4057    1.3111 C   0  0  0  0  0  0  0  0  0  0  0  0
    6.3026    2.9995    0.1044 O   0  0  0  0  0  0  0  0  0  0  0  0
    5.6200    2.7996   -1.0541 C   0  0  0  0  0  0  0  0  0  0  0  0
    4.4261    3.0541   -1.1293 O   0  0  0  0  0  0  0  0  0  0  0  0
    6.3603    2.2994   -2.2618 C   0  0  0  0  0  0  0  0  0  0  0  0
    6.9501    0.9021   -2.0235 C   0  0  0  0  0  0  0  0  0  0  0  0
    5.8386   -0.1382   -1.7816 C   0  0  0  0  0  0  0  0  0  0  0  0
    6.2908   -1.6077   -1.6765 C   0  0  0  0  0  0  0  0  0  0  0  0
    6.9650   -2.0593   -0.3596 C   0  0  0  0  0  0  0  0  0  0  0  0
    8.3578   -1.4993   -0.0388 C   0  0  0  0  0  0  0  0  0  0  0  0
    9.3710   -1.7675   -1.1645 C   0  0  0  0  0  0  0  0  0  0  0  0
   10.7509   -1.1598   -0.8933 C   0  0  0  0  0  0  0  0  0  0  0  0
   11.4586   -1.7672    0.3299 C   0  0  0  0  0  0  0  0  0  0  0  0
   12.8258   -1.1207    0.5971 C   0  0  0  0  0  0  0  0  0  0  0  0
   13.8277   -1.3434   -0.5469 C   0  0  0  0  0  0  0  0  0  0  0  0
   15.2836   -0.9214   -0.2652 C   0  0  0  0  0  0  0  0  0  0  0  0
   15.6128    0.5974   -0.2076 C   0  0  0  0  0  0  0  0  0  0  0  0
   15.1256    1.3098    1.0660 C   0  0  0  0  0  0  0  0  0  0  0  0
   17.1377    0.7686   -0.2882 C   0  0  0  0  0  0  0  0  0  0  0  0
  -17.8294    1.0869    0.8720 H   0  0  0  0  0  0  0  0  0  0  0  0
  -17.8777    0.4193   -0.8074 H   0  0  0  0  0  0  0  0  0  0  0  0
  -16.5137    1.4773   -0.2686 H   0  0  0  0  0  0  0  0  0  0  0  0
  -15.7884   -0.2681    1.3713 H   0  0  0  0  0  0  0  0  0  0  0  0
  -18.1245   -1.9428    0.2584 H   0  0  0  0  0  0  0  0  0  0  0  0
  -18.0304   -1.1818    1.8946 H   0  0  0  0  0  0  0  0  0  0  0  0
  -16.8827   -2.4933    1.4497 H   0  0  0  0  0  0  0  0  0  0  0  0
  -16.2688   -1.5505   -1.4095 H   0  0  0  0  0  0  0  0  0  0  0  0
  -15.0600   -2.0851   -0.1922 H   0  0  0  0  0  0  0  0  0  0  0  0
  -15.0512    0.5941   -1.7341 H   0  0  0  0  0  0  0  0  0  0  0  0
  -14.0490   -0.8594   -2.0331 H   0  0  0  0  0  0  0  0  0  0  0  0
  -12.9784   -0.6228    0.2201 H   0  0  0  0  0  0  0  0  0  0  0  0
  -13.9999    0.8201    0.5646 H   0  0  0  0  0  0  0  0  0  0  0  0
  -11.7820    1.4949   -0.0610 H   0  0  0  0  0  0  0  0  0  0  0  0
  -12.9652    2.0896   -1.2805 H   0  0  0  0  0  0  0  0  0  0  0  0
  -12.3295    0.2432   -2.8395 H   0  0  0  0  0  0  0  0  0  0  0  0
  -11.2178   -0.4428   -1.6158 H   0  0  0  0  0  0  0  0  0  0  0  0
  -10.9910    2.3011   -3.0349 H   0  0  0  0  0  0  0  0  0  0  0  0
  -10.0491    0.8256   -3.3934 H   0  0  0  0  0  0  0  0  0  0  0  0
   -9.9308    2.5462   -0.8359 H   0  0  0  0  0  0  0  0  0  0  0  0
   -8.6788    2.3841   -2.0993 H   0  0  0  0  0  0  0  0  0  0  0  0
   -9.6284    0.1958   -0.1242 H   0  0  0  0  0  0  0  0  0  0  0  0
   -8.1155    1.1504   -0.0626 H   0  0  0  0  0  0  0  0  0  0  0  0
   -7.3509    0.1107   -2.2170 H   0  0  0  0  0  0  0  0  0  0  0  0
   -8.8745   -0.8161   -2.3398 H   0  0  0  0  0  0  0  0  0  0  0  0
   -7.0746   -2.2484   -1.4762 H   0  0  0  0  0  0  0  0  0  0  0  0
   -8.4377   -2.0806   -0.3186 H   0  0  0  0  0  0  0  0  0  0  0  0
   -6.3088   -2.0423    0.8611 H   0  0  0  0  0  0  0  0  0  0  0  0
   -7.1618   -0.4877    1.0662 H   0  0  0  0  0  0  0  0  0  0  0  0
   -5.6942    0.5083   -0.7860 H   0  0  0  0  0  0  0  0  0  0  0  0
   -4.8054   -1.0472   -0.8604 H   0  0  0  0  0  0  0  0  0  0  0  0
   -5.0922    0.9158    1.5184 H   0  0  0  0  0  0  0  0  0  0  0  0
   -3.6506    0.7010    0.4846 H   0  0  0  0  0  0  0  0  0  0  0  0
   -4.8538   -1.3484    2.4688 H   0  0  0  0  0  0  0  0  0  0  0  0
   -3.4037   -0.4074    2.7289 H   0  0  0  0  0  0  0  0  0  0  0  0
   -3.8783   -2.6179    0.6515 H   0  0  0  0  0  0  0  0  0  0  0  0
   -2.8334   -2.7093    2.0941 H   0  0  0  0  0  0  0  0  0  0  0  0
   -2.3017   -1.0523   -0.4904 H   0  0  0  0  0  0  0  0  0  0  0  0
   -1.6072   -2.6195    0.0004 H   0  0  0  0  0  0  0  0  0  0  0  0
    0.0717   -1.0682    0.3645 H   0  0  0  0  0  0  0  0  0  0  0  0
   -0.5147   -1.5352    1.9998 H   0  0  0  0  0  0  0  0  0  0  0  0
   -1.7971    0.7003    2.0343 H   0  0  0  0  0  0  0  0  0  0  0  0
   -1.1499    1.0739    0.4117 H   0  0  0  0  0  0  0  0  0  0  0  0
    0.4264    0.6126    3.0274 H   0  0  0  0  0  0  0  0  0  0  0  0
   -0.0012    2.2086    2.3057 H   0  0  0  0  0  0  0  0  0  0  0  0
    1.3959    1.6984    0.2865 H   0  0  0  0  0  0  0  0  0  0  0  0
    1.8578    0.1088    1.0126 H   0  0  0  0  0  0  0  0  0  0  0  0
    4.8277    2.6680    3.0876 H   0  0  0  0  0  0  0  0  0  0  0  0
    6.9506    1.3984    2.8307 H   0  0  0  0  0  0  0  0  0  0  0  0
    6.3396    0.6597    1.3172 H   0  0  0  0  0  0  0  0  0  0  0  0
    5.2611    0.4024    3.9443 H   0  0  0  0  0  0  0  0  0  0  0  0
    6.6027    3.7692    1.9390 H   0  0  0  0  0  0  0  0  0  0  0  0
    5.0698    4.2644    1.1646 H   0  0  0  0  0  0  0  0  0  0  0  0
    7.1819    3.0116   -2.4908 H   0  0  0  0  0  0  0  0  0  0  0  0
    5.6825    2.2638   -3.1431 H   0  0  0  0  0  0  0  0  0  0  0  0
    7.6504    0.9775   -1.1786 H   0  0  0  0  0  0  0  0  0  0  0  0
    7.5289    0.6101   -2.9270 H   0  0  0  0  0  0  0  0  0  0  0  0
    5.1732   -0.0865   -2.6718 H   0  0  0  0  0  0  0  0  0  0  0  0
    5.2312    0.1227   -0.8890 H   0  0  0  0  0  0  0  0  0  0  0  0
    6.8981   -1.8878   -2.5625 H   0  0  0  0  0  0  0  0  0  0  0  0
    5.3584   -2.2104   -1.7373 H   0  0  0  0  0  0  0  0  0  0  0  0
    7.0692   -3.1653   -0.4181 H   0  0  0  0  0  0  0  0  0  0  0  0
    6.2860   -1.8350    0.4917 H   0  0  0  0  0  0  0  0  0  0  0  0
    8.6950   -1.9929    0.8959 H   0  0  0  0  0  0  0  0  0  0  0  0
    8.3047   -0.4236    0.1896 H   0  0  0  0  0  0  0  0  0  0  0  0
    9.0077   -1.2964   -2.1003 H   0  0  0  0  0  0  0  0  0  0  0  0
    9.4662   -2.8618   -1.3372 H   0  0  0  0  0  0  0  0  0  0  0  0
   10.6454   -0.0603   -0.7615 H   0  0  0  0  0  0  0  0  0  0  0  0
   11.3613   -1.3459   -1.8007 H   0  0  0  0  0  0  0  0  0  0  0  0
   11.5790   -2.8638    0.1923 H   0  0  0  0  0  0  0  0  0  0  0  0
   10.8443   -1.5935    1.2371 H   0  0  0  0  0  0  0  0  0  0  0  0
   13.2389   -1.5716    1.5254 H   0  0  0  0  0  0  0  0  0  0  0  0
   12.6379   -0.0516    0.7641 H   0  0  0  0  0  0  0  0  0  0  0  0
   13.4892   -0.8474   -1.4799 H   0  0  0  0  0  0  0  0  0  0  0  0
   13.8565   -2.4409   -0.7314 H   0  0  0  0  0  0  0  0  0  0  0  0
   15.8477   -1.3284   -1.1347 H   0  0  0  0  0  0  0  0  0  0  0  0
   15.6665   -1.4382    0.6420 H   0  0  0  0  0  0  0  0  0  0  0  0
   15.1779    1.1008   -1.0993 H   0  0  0  0  0  0  0  0  0  0  0  0
   15.5155    0.8013    1.9737 H   0  0  0  0  0  0  0  0  0  0  0  0
   14.0341    1.3867    1.1285 H   0  0  0  0  0  0  0  0  0  0  0  0
   15.4830    2.3616    1.0694 H   0  0  0  0  0  0  0  0  0  0  0  0
   17.6346    0.2794    0.5774 H   0  0  0  0  0  0  0  0  0  0  0  0
   17.4065    1.8468   -0.2944 H   0  0  0  0  0  0  0  0  0  0  0  0
   17.5294    0.3203   -1.2262 H   0  0  0  0  0  0  0  0  0  0  0  0
  1  2  1  0  0  0  0
  1 49  1  0  0  0  0
  1 50  1  0  0  0  0
  1 51  1  0  0  0  0
  2  3  1  0  0  0  0
  2  4  1  0  0  0  0
  2 52  1  0  0  0  0
  3 53  1  0  0  0  0
  3 54  1  0  0  0  0
  3 55  1  0  0  0  0
  4  5  1  0  0  0  0
  4 56  1  0  0  0  0
  4 57  1  0  0  0  0
  5  6  1  0  0  0  0
  5 58  1  0  0  0  0
  5 59  1  0  0  0  0
  6  7  1  0  0  0  0
  6 60  1  0  0  0  0
  6 61  1  0  0  0  0
  7  8  1  0  0  0  0
  7 62  1  0  0  0  0
  7 63  1  0  0  0  0
  8  9  1  0  0  0  0
  8 64  1  0  0  0  0
  8 65  1  0  0  0  0
  9 10  1  0  0  0  0
  9 66  1  0  0  0  0
  9 67  1  0  0  0  0
 10 11  1  0  0  0  0
 10 68  1  0  0  0  0
 10 69  1  0  0  0  0
 11 12  1  0  0  0  0
 11 70  1  0  0  0  0
 11 71  1  0  0  0  0
 12 13  1  0  0  0  0
 12 72  1  0  0  0  0
 12 73  1  0  0  0  0
 13 14  1  0  0  0  0
 13 74  1  0  0  0  0
 13 75  1  0  0  0  0
 14 15  1  0  0  0  0
 14 76  1  0  0  0  0
 14 77  1  0  0  0  0
 15 16  1  0  0  0  0
 15 78  1  0  0  0  0
 15 79  1  0  0  0  0
 16 17  1  0  0  0  0
 16 80  1  0  0  0  0
 16 81  1  0  0  0  0
 17 18  1  0  0  0  0
 17 82  1  0  0  0  0
 17 83  1  0  0  0  0
 18 19  1  0  0  0  0
 18 84  1  0  0  0  0
 18 85  1  0  0  0  0
 19 20  1  0  0  0  0
 19 86  1  0  0  0  0
 19 87  1  0  0  0  0
 20 21  1  0  0  0  0
 20 88  1  0  0  0  0
 20 89  1  0  0  0  0
 21 22  1  0  0  0  0
 21 90  1  0  0  0  0
 21 91  1  0  0  0  0
 22 23  1  0  0  0  0
 22 92  1  0  0  0  0
 22 93  1  0  0  0  0
 23 24  1  0  0  0  0
 23 94  1  0  0  0  0
 23 95  1  0  0  0  0
 24 25  2  0  0  0  0
 24 26  1  0  0  0  0
 26 27  1  0  0  0  0
 27 28  1  0  0  0  0
 27 30  1  0  0  0  0
 27 96  1  1  0  0  0
 28 29  1  0  0  0  0
 28 97  1  0  0  0  0
 28 98  1  0  0  0  0
 29 99  1  0  0  0  0
 30 31  1  0  0  0  0
 30100  1  0  0  0  0
 30101  1  0  0  0  0
 31 32  1  0  0  0  0
 32 33  2  0  0  0  0
 32 34  1  0  0  0  0
 34 35  1  0  0  0  0
 34102  1  0  0  0  0
 34103  1  0  0  0  0
 35 36  1  0  0  0  0
 35104  1  0  0  0  0
 35105  1  0  0  0  0
 36 37  1  0  0  0  0
 36106  1  0  0  0  0
 36107  1  0  0  0  0
 37 38  1  0  0  0  0
 37108  1  0  0  0  0
 37109  1  0  0  0  0
 38 39  1  0  0  0  0
 38110  1  0  0  0  0
 38111  1  0  0  0  0
 39 40  1  0  0  0  0
 39112  1  0  0  0  0
 39113  1  0  0  0  0
 40 41  1  0  0  0  0
 40114  1  0  0  0  0
 40115  1  0  0  0  0
 41 42  1  0  0  0  0
 41116  1  0  0  0  0
 41117  1  0  0  0  0
 42 43  1  0  0  0  0
 42118  1  0  0  0  0
 42119  1  0  0  0  0
 43 44  1  0  0  0  0
 43120  1  0  0  0  0
 43121  1  0  0  0  0
 44 45  1  0  0  0  0
 44122  1  0  0  0  0
 44123  1  0  0  0  0
 45 46  1  0  0  0  0
 45124  1  0  0  0  0
 45125  1  0  0  0  0
 46 47  1  0  0  0  0
 46 48  1  0  0  0  0
 46126  1  0  0  0  0
 47127  1  0  0  0  0
 47128  1  0  0  0  0
 47129  1  0  0  0  0
 48130  1  0  0  0  0
 48131  1  0  0  0  0
 48132  1  0  0  0  0
M  END
>  <IDENTIFIER>
CNP0515898.1

>  <Energy>
425.659

$$$$
