
 OpenBabel09112509162D

172171  0  0  0  0  0  0  0  0999 V2000
   20.7846   12.0000    0.0000 C   0  0  0  0  0  0  0  0  0  0  0  0
   19.4856   11.2500    0.0000 C   0  0  0  0  0  0  0  0  0  0  0  0
   18.1865   10.5000    0.0000 C   0  0  0  0  0  0  0  0  0  0  0  0
   16.8875    9.7500    0.0000 C   0  0  0  0  0  2  0  0  0  0  0  0
   15.5885    9.0000    0.0000 C   0  0  0  0  0  0  0  0  0  0  0  0
   13.9437    8.6540    0.0198 C   0  0  0  0  0  0  0  0  0  0  0  0
   13.3418    7.0626   -0.0035 C   0  0  0  0  0  0  0  0  0  0  0  0
   11.6913    6.7500    0.0000 C   0  0  0  0  0  0  0  0  0  0  0  0
   10.3923    6.0000    0.0000 C   0  0  0  0  0  0  0  0  0  0  0  0
    9.0933    5.2500    0.0000 C   0  0  0  0  0  0  0  0  0  0  0  0
    7.7942    4.5000    0.0000 C   0  0  0  0  0  0  0  0  0  0  0  0
    6.4952    3.7500    0.0000 C   0  0  0  0  0  0  0  0  0  0  0  0
    5.1962    3.0000    0.0000 C   0  0  0  0  0  0  0  0  0  0  0  0
    3.5793    2.7388   -0.1488 C   0  0  0  0  0  0  0  0  0  0  0  0
    3.0419    1.1765    0.0854 C   0  0  0  0  0  0  0  0  0  0  0  0
    1.4672    0.7424   -0.1359 C   0  0  0  0  0  0  0  0  0  0  0  0
    0.8290   -0.6711    0.3651 C   0  0  0  0  0  0  0  0  0  0  0  0
    0.9786   -0.9332    1.5490 O   0  0  0  0  0  0  0  0  0  0  0  0
   -0.0624   -1.5095   -0.3900 O   0  0  0  0  0  0  0  0  0  0  0  0
   -1.2990   -2.2500    0.0000 C   0  0  1  0  0  0  0  0  0  0  0  0
   -2.0490   -0.9510   -0.0000 C   0  0  0  0  0  0  0  0  0  0  0  0
   -3.4822   -0.6334    0.1326 O   0  0  0  0  0  0  0  0  0  0  0  0
   -3.9969    0.7263    0.0217 C   0  0  0  0  0  0  0  0  0  0  0  0
   -3.1737    1.6003   -0.2080 O   0  0  0  0  0  0  0  0  0  0  0  0
   -5.5450    1.2936    0.1585 C   0  0  0  0  0  0  0  0  0  0  0  0
   -5.7990    2.9462    0.0000 C   0  0  0  0  0  0  0  0  0  0  0  0
   -6.5490    4.2452    0.0000 C   0  0  0  0  0  0  0  0  0  0  0  0
   -7.2990    5.5442    0.0000 C   0  0  0  0  0  0  0  0  0  0  0  0
   -8.0490    6.8433    0.0000 C   0  0  0  0  0  0  0  0  0  0  0  0
   -8.7990    8.1423    0.0000 C   0  0  0  0  0  0  0  0  0  0  0  0
   -9.5490    9.4413    0.0000 C   0  0  0  0  0  0  0  0  0  0  0  0
   -9.8740   11.0902    0.0189 C   0  0  0  0  0  0  0  0  0  0  0  0
  -11.4591   11.6976   -0.1297 C   0  0  0  0  0  0  0  0  0  0  0  0
  -11.7990   13.3385    0.0000 C   0  0  0  0  0  0  0  0  0  0  0  0
  -12.5490   14.6375    0.0000 C   0  0  0  0  0  0  0  0  0  0  0  0
  -13.2990   15.9365    0.0000 C   0  0  0  0  0  0  0  0  0  0  0  0
  -14.0490   17.2356    0.0000 C   0  0  0  0  0  0  0  0  0  0  0  0
  -14.7990   18.5346    0.0000 C   0  0  0  0  0  2  0  0  0  0  0  0
  -15.5490   19.8336    0.0000 C   0  0  0  0  0  0  0  0  0  0  0  0
  -16.0983   21.3679    0.4138 C   0  0  0  0  0  0  0  0  0  0  0  0
  -17.2917   22.2008   -0.4736 C   0  0  0  0  0  0  0  0  0  0  0  0
  -17.7990   23.7308    0.0000 C   0  0  0  0  0  0  0  0  0  0  0  0
  -18.5490   25.0298    0.0000 C   0  0  0  0  0  0  0  0  0  0  0  0
  -19.2990   26.3288    0.0000 C   0  0  0  0  0  0  0  0  0  0  0  0
  -20.0490   27.6279    0.0000 C   0  0  3  0  0  0  0  0  0  0  0  0
  -20.7990   28.9269    0.0000 C   0  0  0  0  0  0  0  0  0  0  0  0
  -21.3481   26.8779    0.0000 C   0  0  0  0  0  0  0  0  0  0  0  0
  -22.6471   26.1279    0.0000 C   0  0  0  0  0  0  0  0  0  0  0  0
   -0.5490   -3.5490    0.0000 C   0  0  0  0  0  0  0  0  0  0  0  0
    0.6945   -4.0563    0.6172 O   0  0  0  0  0  0  0  0  0  0  0  0
    1.4338   -5.2113    0.1210 C   0  0  0  0  0  0  0  0  0  0  0  0
    1.2011   -5.5500   -1.0289 O   0  0  0  0  0  0  0  0  0  0  0  0
    2.5400   -6.1827    0.8859 C   0  0  0  0  0  0  0  0  0  0  0  0
    3.2010   -7.4462    0.0000 C   0  0  0  0  0  0  0  0  0  0  0  0
    3.9510   -8.7452    0.0000 C   0  0  0  0  0  0  0  0  0  0  0  0
    4.7010  -10.0442    0.0000 C   0  0  0  0  0  0  0  0  0  0  0  0
    5.4510  -11.3433    0.0000 C   0  0  0  0  0  0  0  0  0  0  0  0
    6.2010  -12.6423    0.0000 C   0  0  0  0  0  0  0  0  0  0  0  0
    6.9510  -13.9413    0.0000 C   0  0  0  0  0  0  0  0  0  0  0  0
    7.4056  -15.4964    0.3634 C   0  0  0  0  0  0  0  0  0  0  0  0
    8.7417  -16.2519   -0.3854 C   0  0  0  0  0  0  0  0  0  0  0  0
    9.2010  -17.8385    0.0000 C   0  0  0  0  0  0  0  0  0  0  0  0
    9.9510  -19.1375    0.0000 C   0  0  0  0  0  0  0  0  0  0  0  0
    7.9019  -18.5885    0.0000 C   0  0  0  0  0  0  0  0  0  0  0  0
   21.5360   11.1652   -0.0952 H   0  0  0  0  0  0  0  0  0  0  0  0
   20.6162   12.5560   -0.9526 H   0  0  0  0  0  0  0  0  0  0  0  0
   21.7112   12.5350    0.0000 H   0  0  0  0  0  0  0  0  0  0  0  0
   19.8037   10.7131    0.9345 H   0  0  0  0  0  0  0  0  0  0  0  0
   19.7761   10.6383   -0.9061 H   0  0  0  0  0  0  0  0  0  0  0  0
   17.8018   11.0601    0.8891 H   0  0  0  0  0  0  0  0  0  0  0  0
   17.7990   11.0613   -0.8889 H   0  0  0  0  0  0  0  0  0  0  0  0
   15.8182    8.4062   -0.9092 H   0  0  0  0  0  0  0  0  0  0  0  0
   15.8517    8.3494    0.8600 H   0  0  0  0  0  0  0  0  0  0  0  0
   13.5304    9.1329    0.9325 H   0  0  0  0  0  0  0  0  0  0  0  0
   13.4994    9.1763   -0.8533 H   0  0  0  0  0  0  0  0  0  0  0  0
   13.7707    6.5457    0.8803 H   0  0  0  0  0  0  0  0  0  0  0  0
   13.7599    6.5712   -0.9074 H   0  0  0  0  0  0  0  0  0  0  0  0
   11.4760    7.3959   -0.8862 H   0  0  0  0  0  0  0  0  0  0  0  0
   11.4775    7.4371    0.8610 H   0  0  0  0  0  0  0  0  0  0  0  0
   10.8347    5.5196    0.9347 H   0  0  0  0  0  0  0  0  0  0  0  0
   10.7182    5.4527   -0.9242 H   0  0  0  0  0  0  0  0  0  0  0  0
    8.8155    5.7666    0.9674 H   0  0  0  0  0  0  0  0  0  0  0  0
    9.5634    4.2456    0.2804 H   0  0  0  0  0  0  0  0  0  0  0  0
    7.3335    5.4958   -0.3170 H   0  0  0  0  0  0  0  0  0  0  0  0
    8.0846    3.9585   -0.9545 H   0  0  0  0  0  0  0  0  0  0  0  0
    6.0992    4.1519   -0.9905 H   0  0  0  0  0  0  0  0  0  0  0  0
    6.1161    4.3759    0.8530 H   0  0  0  0  0  0  0  0  0  0  0  0
    5.4884    2.2097   -0.7390 H   0  0  0  0  0  0  0  0  0  0  0  0
    5.3135    2.4734    0.9795 H   0  0  0  0  0  0  0  0  0  0  0  0
    3.0461    3.3966    0.5695 H   0  0  0  0  0  0  0  0  0  0  0  0
    3.2874    3.0491   -1.1743 H   0  0  0  0  0  0  0  0  0  0  0  0
    3.6427    0.5068   -0.5658 H   0  0  0  0  0  0  0  0  0  0  0  0
    3.2948    0.9284    1.1369 H   0  0  0  0  0  0  0  0  0  0  0  0
    1.2033    0.8934   -1.2037 H   0  0  0  0  0  0  0  0  0  0  0  0
    0.9020    1.5044    0.4413 H   0  0  0  0  0  0  0  0  0  0  0  0
   -1.9446   -2.5533   -0.8651 H   0  0  0  0  0  0  0  0  0  0  0  0
   -1.8280   -0.4216   -0.9733 H   0  0  0  0  0  0  0  0  0  0  0  0
   -1.6034   -0.3354    0.8164 H   0  0  0  0  0  0  0  0  0  0  0  0
   -5.9058    1.0033    1.1673 H   0  0  0  0  0  0  0  0  0  0  0  0
   -6.1758    0.7731   -0.5922 H   0  0  0  0  0  0  0  0  0  0  0  0
   -5.2868    3.0551   -0.9875 H   0  0  0  0  0  0  0  0  0  0  0  0
   -4.9992    3.2385    0.7293 H   0  0  0  0  0  0  0  0  0  0  0  0
   -6.9151    3.8727    1.0139 H   0  0  0  0  0  0  0  0  0  0  0  0
   -7.2055    3.8456   -0.8192 H   0  0  0  0  0  0  0  0  0  0  0  0
   -6.7167    5.8549    0.9244 H   0  0  0  0  0  0  0  0  0  0  0  0
   -8.2815    5.0933    0.3675 H   0  0  0  0  0  0  0  0  0  0  0  0
   -7.0540    7.3056   -0.3240 H   0  0  0  0  0  0  0  0  0  0  0  0
   -8.6008    6.5477   -0.9417 H   0  0  0  0  0  0  0  0  0  0  0  0
   -8.3340    8.5739   -0.9479 H   0  0  0  0  0  0  0  0  0  0  0  0
   -8.2362    8.4777    0.9103 H   0  0  0  0  0  0  0  0  0  0  0  0
  -10.2276    9.2376   -0.8714 H   0  0  0  0  0  0  0  0  0  0  0  0
  -10.2060    9.2122    0.8739 H   0  0  0  0  0  0  0  0  0  0  0  0
   -9.4573   11.4824    0.9705 H   0  0  0  0  0  0  0  0  0  0  0  0
   -9.2891   11.5467   -0.8069 H   0  0  0  0  0  0  0  0  0  0  0  0
  -12.0822   11.1857    0.6336 H   0  0  0  0  0  0  0  0  0  0  0  0
  -11.8244   11.3677   -1.1249 H   0  0  0  0  0  0  0  0  0  0  0  0
  -10.9453   13.6452   -0.6570 H   0  0  0  0  0  0  0  0  0  0  0  0
  -11.3643   13.4423    1.0248 H   0  0  0  0  0  0  0  0  0  0  0  0
  -13.3307   14.0292    0.5568 H   0  0  0  0  0  0  0  0  0  0  0  0
  -12.6968   14.5485   -1.1121 H   0  0  0  0  0  0  0  0  0  0  0  0
  -13.2642   15.9535    1.1273 H   0  0  0  0  0  0  0  0  0  0  0  0
  -14.2948   15.4938   -0.3300 H   0  0  0  0  0  0  0  0  0  0  0  0
  -13.9481   17.3458   -1.1103 H   0  0  0  0  0  0  0  0  0  0  0  0
  -13.1804   17.8159    0.4063 H   0  0  0  0  0  0  0  0  0  0  0  0
  -15.3089   20.0821   -1.0548 H   0  0  0  0  0  0  0  0  0  0  0  0
  -16.5534   19.3614   -0.0207 H   0  0  0  0  0  0  0  0  0  0  0  0
  -16.4694   21.2995    1.4579 H   0  0  0  0  0  0  0  0  0  0  0  0
  -15.2036   22.0256    0.4286 H   0  0  0  0  0  0  0  0  0  0  0  0
  -18.1916   21.5517   -0.5102 H   0  0  0  0  0  0  0  0  0  0  0  0
  -16.9095   22.2905   -1.5131 H   0  0  0  0  0  0  0  0  0  0  0  0
  -16.7118   24.0432    0.0833 H   0  0  0  0  0  0  0  0  0  0  0  0
  -18.1263   23.3846    1.0111 H   0  0  0  0  0  0  0  0  0  0  0  0
  -17.8714   25.4348    0.8291 H   0  0  0  0  0  0  0  0  0  0  0  0
  -17.9390   25.2893   -0.9313 H   0  0  0  0  0  0  0  0  0  0  0  0
  -19.6540   26.0263    1.0581 H   0  0  0  0  0  0  0  0  0  0  0  0
  -19.7394   25.8428   -0.9669 H   0  0  0  0  0  0  0  0  0  0  0  0
  -19.4973   27.8455   -0.9620 H   0  0  0  0  0  0  0  0  0  0  0  0
  -19.9167   29.5650    0.2373 H   0  0  0  0  0  0  0  0  0  0  0  0
  -21.0716   29.0861   -1.0825 H   0  0  0  0  0  0  0  0  0  0  0  0
  -21.3340   29.8535    0.0000 H   0  0  0  0  0  0  0  0  0  0  0  0
  -21.6445   27.1280    1.0691 H   0  0  0  0  0  0  0  0  0  0  0  0
  -21.5538   27.1027   -1.1071 H   0  0  0  0  0  0  0  0  0  0  0  0
  -23.3614   26.9728   -0.2102 H   0  0  0  0  0  0  0  0  0  0  0  0
  -22.4620   25.3861   -0.8243 H   0  0  0  0  0  0  0  0  0  0  0  0
  -23.5737   25.5929    0.0000 H   0  0  0  0  0  0  0  0  0  0  0  0
   -1.3176   -4.2927    0.3107 H   0  0  0  0  0  0  0  0  0  0  0  0
   -0.3999   -3.7948   -1.0854 H   0  0  0  0  0  0  0  0  0  0  0  0
    2.0075   -6.6284    1.7518 H   0  0  0  0  0  0  0  0  0  0  0  0
    3.3712   -5.5611    1.2791 H   0  0  0  0  0  0  0  0  0  0  0  0
    2.2046   -7.7451   -0.4331 H   0  0  0  0  0  0  0  0  0  0  0  0
    3.7223   -6.8716   -0.8008 H   0  0  0  0  0  0  0  0  0  0  0  0
    3.2111   -9.1601    0.7367 H   0  0  0  0  0  0  0  0  0  0  0  0
    3.6163   -8.9989   -1.0503 H   0  0  0  0  0  0  0  0  0  0  0  0
    5.1308   -9.7873    1.0146 H   0  0  0  0  0  0  0  0  0  0  0  0
    5.4949   -9.5858   -0.6646 H   0  0  0  0  0  0  0  0  0  0  0  0
    4.6139  -11.7005    0.6871 H   0  0  0  0  0  0  0  0  0  0  0  0
    5.1432  -11.5227   -1.0703 H   0  0  0  0  0  0  0  0  0  0  0  0
    5.2981  -13.3180   -0.1487 H   0  0  0  0  0  0  0  0  0  0  0  0
    6.4400  -12.5113    1.0904 H   0  0  0  0  0  0  0  0  0  0  0  0
    6.9506  -14.1007   -1.1084 H   0  0  0  0  0  0  0  0  0  0  0  0
    7.9729  -13.5180    0.1688 H   0  0  0  0  0  0  0  0  0  0  0  0
    6.5047  -16.1066    0.1478 H   0  0  0  0  0  0  0  0  0  0  0  0
    7.5859  -15.5309    1.4586 H   0  0  0  0  0  0  0  0  0  0  0  0
    9.6285  -15.6073   -0.2096 H   0  0  0  0  0  0  0  0  0  0  0  0
    8.5384  -16.2277   -1.4769 H   0  0  0  0  0  0  0  0  0  0  0  0
    9.3934  -17.6093    1.0796 H   0  0  0  0  0  0  0  0  0  0  0  0
    9.9101  -19.3161   -1.1048 H   0  0  0  0  0  0  0  0  0  0  0  0
   10.9566  -18.6963    0.1962 H   0  0  0  0  0  0  0  0  0  0  0  0
   10.4860  -20.0641    0.0000 H   0  0  0  0  0  0  0  0  0  0  0  0
    7.3354  -18.0081    0.7541 H   0  0  0  0  0  0  0  0  0  0  0  0
    7.6273  -18.4059   -1.0654 H   0  0  0  0  0  0  0  0  0  0  0  0
    6.9752  -19.1235    0.0000 H   0  0  0  0  0  0  0  0  0  0  0  0
  1  2  1  0  0  0  0
  1 65  1  0  0  0  0
  1 66  1  0  0  0  0
  1 67  1  0  0  0  0
  2  3  1  0  0  0  0
  2 68  1  0  0  0  0
  2 69  1  0  0  0  0
  3  4  1  0  0  0  0
  3 70  1  0  0  0  0
  3 71  1  0  0  0  0
  4  5  1  0  0  0  0
  5  6  1  0  0  0  0
  5 72  1  0  0  0  0
  5 73  1  0  0  0  0
  6  7  1  0  0  0  0
  6 74  1  0  0  0  0
  6 75  1  0  0  0  0
  7  8  1  0  0  0  0
  7 76  1  0  0  0  0
  7 77  1  0  0  0  0
  8  9  1  0  0  0  0
  8 78  1  0  0  0  0
  8 79  1  0  0  0  0
  9 10  1  0  0  0  0
  9 80  1  0  0  0  0
  9 81  1  0  0  0  0
 10 11  1  0  0  0  0
 10 82  1  0  0  0  0
 10 83  1  0  0  0  0
 11 12  1  0  0  0  0
 11 84  1  0  0  0  0
 11 85  1  0  0  0  0
 12 13  1  0  0  0  0
 12 86  1  0  0  0  0
 12 87  1  0  0  0  0
 13 14  1  0  0  0  0
 13 88  1  0  0  0  0
 13 89  1  0  0  0  0
 14 15  1  0  0  0  0
 14 90  1  0  0  0  0
 14 91  1  0  0  0  0
 15 16  1  0  0  0  0
 15 92  1  0  0  0  0
 15 93  1  0  0  0  0
 16 17  1  0  0  0  0
 16 94  1  0  0  0  0
 16 95  1  0  0  0  0
 17 18  2  0  0  0  0
 17 19  1  0  0  0  0
 19 20  1  0  0  0  0
 20 21  1  0  0  0  0
 20 49  1  0  0  0  0
 20 96  1  1  0  0  0
 21 22  1  0  0  0  0
 21 97  1  0  0  0  0
 21 98  1  0  0  0  0
 22 23  1  0  0  0  0
 23 24  2  0  0  0  0
 23 25  1  0  0  0  0
 25 26  1  0  0  0  0
 25 99  1  0  0  0  0
 25100  1  0  0  0  0
 26 27  1  0  0  0  0
 26101  1  0  0  0  0
 26102  1  0  0  0  0
 27 28  1  0  0  0  0
 27103  1  0  0  0  0
 27104  1  0  0  0  0
 28 29  1  0  0  0  0
 28105  1  0  0  0  0
 28106  1  0  0  0  0
 29 30  1  0  0  0  0
 29107  1  0  0  0  0
 29108  1  0  0  0  0
 30 31  1  0  0  0  0
 30109  1  0  0  0  0
 30110  1  0  0  0  0
 31 32  1  0  0  0  0
 31111  1  0  0  0  0
 31112  1  0  0  0  0
 32 33  1  0  0  0  0
 32113  1  0  0  0  0
 32114  1  0  0  0  0
 33 34  1  0  0  0  0
 33115  1  0  0  0  0
 33116  1  0  0  0  0
 34 35  1  0  0  0  0
 34117  1  0  0  0  0
 34118  1  0  0  0  0
 35 36  1  0  0  0  0
 35119  1  0  0  0  0
 35120  1  0  0  0  0
 36 37  1  0  0  0  0
 36121  1  0  0  0  0
 36122  1  0  0  0  0
 37 38  1  0  0  0  0
 37123  1  0  0  0  0
 37124  1  0  0  0  0
 38 39  1  0  0  0  0
 39 40  1  0  0  0  0
 39125  1  0  0  0  0
 39126  1  0  0  0  0
 40 41  1  0  0  0  0
 40127  1  0  0  0  0
 40128  1  0  0  0  0
 41 42  1  0  0  0  0
 41129  1  0  0  0  0
 41130  1  0  0  0  0
 42 43  1  0  0  0  0
 42131  1  0  0  0  0
 42132  1  0  0  0  0
 43 44  1  0  0  0  0
 43133  1  0  0  0  0
 43134  1  0  0  0  0
 44 45  1  0  0  0  0
 44135  1  0  0  0  0
 44136  1  0  0  0  0
 45 46  1  0  0  0  0
 45 47  1  0  0  0  0
 45137  1  0  0  0  0
 46138  1  0  0  0  0
 46139  1  0  0  0  0
 46140  1  0  0  0  0
 47 48  1  0  0  0  0
 47141  1  0  0  0  0
 47142  1  0  0  0  0
 48143  1  0  0  0  0
 48144  1  0  0  0  0
 48145  1  0  0  0  0
 49 50  1  0  0  0  0
 49146  1  0  0  0  0
 49147  1  0  0  0  0
 50 51  1  0  0  0  0
 51 52  2  0  0  0  0
 51 53  1  0  0  0  0
 53 54  1  0  0  0  0
 53148  1  0  0  0  0
 53149  1  0  0  0  0
 54 55  1  0  0  0  0
 54150  1  0  0  0  0
 54151  1  0  0  0  0
 55 56  1  0  0  0  0
 55152  1  0  0  0  0
 55153  1  0  0  0  0
 56 57  1  0  0  0  0
 56154  1  0  0  0  0
 56155  1  0  0  0  0
 57 58  1  0  0  0  0
 57156  1  0  0  0  0
 57157  1  0  0  0  0
 58 59  1  0  0  0  0
 58158  1  0  0  0  0
 58159  1  0  0  0  0
 59 60  1  0  0  0  0
 59160  1  0  0  0  0
 59161  1  0  0  0  0
 60 61  1  0  0  0  0
 60162  1  0  0  0  0
 60163  1  0  0  0  0
 61 62  1  0  0  0  0
 61164  1  0  0  0  0
 61165  1  0  0  0  0
 62 63  1  0  0  0  0
 62 64  1  0  0  0  0
 62166  1  0  0  0  0
 63167  1  0  0  0  0
 63168  1  0  0  0  0
 63169  1  0  0  0  0
 64170  1  0  0  0  0
 64171  1  0  0  0  0
 64172  1  0  0  0  0
M  END
>  <IDENTIFIER>
CNP0575395.2

>  <Energy>
15952.6

$$$$
