
 OpenBabel09112508553D

 81 83  0  0  0  0  0  0  0  0999 V2000
  -12.4345   -0.8966   -0.2830 C   0  0  0  0  0  0  0  0  0  0  0  0
  -11.6756   -1.3124    0.7923 O   0  0  0  0  0  0  0  0  0  0  0  0
  -10.3689   -1.0038    1.0068 C   0  0  0  0  0  0  0  0  0  0  0  0
   -9.6542   -0.1322    0.1605 C   0  0  0  0  0  0  0  0  0  0  0  0
   -8.2942    0.1408    0.3878 C   0  0  0  0  0  0  0  0  0  0  0  0
   -7.5465    1.0600   -0.5640 C   0  0  1  0  0  0  0  0  0  0  0  0
   -6.9808    2.1424    0.1345 O   0  0  0  0  0  0  0  0  0  0  0  0
   -6.4919    0.3339   -1.4436 C   0  0  2  0  0  0  0  0  0  0  0  0
   -7.1264   -0.7308   -2.3605 C   0  0  0  0  0  0  0  0  0  0  0  0
   -7.7103   -1.7775   -1.6309 O   0  0  0  0  0  0  0  0  0  0  0  0
   -5.5236   -0.2747   -0.6579 O   0  0  0  0  0  0  0  0  0  0  0  0
   -4.1663   -0.1447   -0.5870 C   0  0  0  0  0  0  0  0  0  0  0  0
   -3.5269   -1.0312    0.2878 C   0  0  0  0  0  0  0  0  0  0  0  0
   -2.1429   -1.0298    0.4477 C   0  0  0  0  0  0  0  0  0  0  0  0
   -1.3453   -0.1252   -0.2708 C   0  0  0  0  0  0  0  0  0  0  0  0
    0.1412   -0.0767   -0.1575 C   0  0  0  0  0  0  0  0  0  0  0  0
    0.8836   -0.9028    0.6039 C   0  0  0  0  0  0  0  0  0  0  0  0
    2.3575   -0.7995    0.6558 C   0  0  0  0  0  0  0  0  0  0  0  0
    2.9838   -1.5926    1.3435 O   0  0  0  0  0  0  0  0  0  0  0  0
    3.0026    0.1551   -0.0672 O   0  0  0  0  0  0  0  0  0  0  0  0
    4.3676    0.3809   -0.0686 C   0  0  0  0  0  0  0  0  0  0  0  0
    4.8605    0.8986    1.2996 C   0  0  2  0  0  0  0  0  0  0  0  0
    4.1383    2.0438    1.6800 O   0  0  0  0  0  0  0  0  0  0  0  0
    6.3659    1.2025    1.2864 C   0  0  0  0  0  0  0  0  0  0  0  0
    7.0945    0.0267    0.9948 O   0  0  0  0  0  0  0  0  0  0  0  0
    8.4814    0.3028    0.8726 C   0  0  2  0  0  0  0  0  0  0  0  0
    8.8728    0.1385   -0.4765 O   0  0  0  0  0  0  0  0  0  0  0  0
   10.2260    0.5552   -0.7268 C   0  0  2  0  0  0  0  0  0  0  0  0
   10.7642   -0.2902   -1.8701 C   0  0  0  0  0  0  0  0  0  0  0  0
   10.1032   -1.2180   -2.3122 O   0  0  0  0  0  0  0  0  0  0  0  0
   11.9431    0.0029   -2.4613 O   0  0  0  0  0  0  0  0  0  0  0  0
   11.1449    0.5009    0.5535 C   0  0  2  0  0  0  0  0  0  0  0  0
   12.5175    0.6011    0.2635 O   0  0  0  0  0  0  0  0  0  0  0  0
   10.7866   -0.7335    1.4086 C   0  0  2  0  0  0  0  0  0  0  0  0
   11.1089   -1.9238    0.7237 O   0  0  0  0  0  0  0  0  0  0  0  0
    9.2696   -0.6743    1.7884 C   0  0  1  0  0  0  0  0  0  0  0  0
    9.0889   -0.3068    3.1338 O   0  0  0  0  0  0  0  0  0  0  0  0
   -1.9730    0.7758   -1.1437 C   0  0  0  0  0  0  0  0  0  0  0  0
   -3.3751    0.7853   -1.3188 C   0  0  0  0  0  0  0  0  0  0  0  0
   -3.9565    1.6658   -2.1729 O   0  0  0  0  0  0  0  0  0  0  0  0
   -3.3179    2.6042   -2.9575 C   0  0  0  0  0  0  0  0  0  0  0  0
   -7.6525   -0.4600    1.4845 C   0  0  0  0  0  0  0  0  0  0  0  0
   -8.3589   -1.3109    2.3364 C   0  0  0  0  0  0  0  0  0  0  0  0
   -9.7131   -1.5867    2.1010 C   0  0  0  0  0  0  0  0  0  0  0  0
  -10.3918   -2.4188    2.9183 O   0  0  0  0  0  0  0  0  0  0  0  0
  -13.4548   -1.3217   -0.1941 H   0  0  0  0  0  0  0  0  0  0  0  0
  -11.9828   -1.2604   -1.2314 H   0  0  0  0  0  0  0  0  0  0  0  0
  -12.5106    0.2112   -0.2979 H   0  0  0  0  0  0  0  0  0  0  0  0
  -10.1455    0.3229   -0.6889 H   0  0  0  0  0  0  0  0  0  0  0  0
   -8.2732    1.4988   -1.2830 H   0  0  0  0  0  0  0  0  0  0  0  0
   -6.2042    1.8064    0.6525 H   0  0  0  0  0  0  0  0  0  0  0  0
   -6.0841    1.0940   -2.1204 H   0  0  0  0  0  0  0  0  0  0  0  0
   -6.3572   -1.1411   -3.0535 H   0  0  0  0  0  0  0  0  0  0  0  0
   -7.9080   -0.2622   -2.9960 H   0  0  0  0  0  0  0  0  0  0  0  0
   -6.9691   -2.3587   -1.3181 H   0  0  0  0  0  0  0  0  0  0  0  0
   -4.1173   -1.7437    0.8515 H   0  0  0  0  0  0  0  0  0  0  0  0
   -1.7194   -1.7451    1.1353 H   0  0  0  0  0  0  0  0  0  0  0  0
    0.6547    0.6804   -0.7450 H   0  0  0  0  0  0  0  0  0  0  0  0
    0.4259   -1.6798    1.2023 H   0  0  0  0  0  0  0  0  0  0  0  0
    4.5837    1.1515   -0.8393 H   0  0  0  0  0  0  0  0  0  0  0  0
    4.9022   -0.5499   -0.3585 H   0  0  0  0  0  0  0  0  0  0  0  0
    4.6844    0.1192    2.0705 H   0  0  0  0  0  0  0  0  0  0  0  0
    4.3096    2.7486    1.0015 H   0  0  0  0  0  0  0  0  0  0  0  0
    6.6481    1.5765    2.2971 H   0  0  0  0  0  0  0  0  0  0  0  0
    6.5608    1.9880    0.5192 H   0  0  0  0  0  0  0  0  0  0  0  0
    8.7254    1.3540    1.1741 H   0  0  0  0  0  0  0  0  0  0  0  0
   10.2145    1.5994   -1.1075 H   0  0  0  0  0  0  0  0  0  0  0  0
   12.4695    0.7737   -2.2101 H   0  0  0  0  0  0  0  0  0  0  0  0
   10.9073    1.3790    1.1920 H   0  0  0  0  0  0  0  0  0  0  0  0
   12.8467   -0.2970    0.0018 H   0  0  0  0  0  0  0  0  0  0  0  0
   11.3883   -0.7454    2.3440 H   0  0  0  0  0  0  0  0  0  0  0  0
   10.3812   -2.1366    0.0848 H   0  0  0  0  0  0  0  0  0  0  0  0
    8.8594   -1.7029    1.6841 H   0  0  0  0  0  0  0  0  0  0  0  0
    9.5135    0.5816    3.2620 H   0  0  0  0  0  0  0  0  0  0  0  0
   -1.3549    1.4721   -1.6948 H   0  0  0  0  0  0  0  0  0  0  0  0
   -4.0777    3.1614   -3.5433 H   0  0  0  0  0  0  0  0  0  0  0  0
   -2.6241    2.1036   -3.6656 H   0  0  0  0  0  0  0  0  0  0  0  0
   -2.7639    3.3258   -2.3200 H   0  0  0  0  0  0  0  0  0  0  0  0
   -6.6071   -0.2712    1.6887 H   0  0  0  0  0  0  0  0  0  0  0  0
   -7.8496   -1.7621    3.1788 H   0  0  0  0  0  0  0  0  0  0  0  0
   -9.9762   -2.8435    3.6822 H   0  0  0  0  0  0  0  0  0  0  0  0
  1  2  1  0  0  0  0
  1 46  1  0  0  0  0
  1 47  1  0  0  0  0
  1 48  1  0  0  0  0
  2  3  1  0  0  0  0
  3  4  2  0  0  0  0
  4  5  1  0  0  0  0
  4 49  1  0  0  0  0
  5  6  1  0  0  0  0
  5 42  2  0  0  0  0
  6  7  1  0  0  0  0
  6  8  1  0  0  0  0
  6 50  1  6  0  0  0
  7 51  1  0  0  0  0
  8  9  1  0  0  0  0
  8 11  1  0  0  0  0
  8 52  1  6  0  0  0
  9 10  1  0  0  0  0
  9 53  1  0  0  0  0
  9 54  1  0  0  0  0
 10 55  1  0  0  0  0
 11 12  1  0  0  0  0
 12 13  2  0  0  0  0
 13 14  1  0  0  0  0
 13 56  1  0  0  0  0
 14 15  2  0  0  0  0
 14 57  1  0  0  0  0
 15 16  1  0  0  0  0
 15 38  1  0  0  0  0
 16 17  2  0  0  0  0
 16 58  1  0  0  0  0
 17 18  1  0  0  0  0
 17 59  1  0  0  0  0
 18 19  2  0  0  0  0
 18 20  1  0  0  0  0
 20 21  1  0  0  0  0
 21 22  1  0  0  0  0
 21 60  1  0  0  0  0
 21 61  1  0  0  0  0
 22 23  1  0  0  0  0
 22 24  1  0  0  0  0
 22 62  1  1  0  0  0
 23 63  1  0  0  0  0
 24 25  1  0  0  0  0
 24 64  1  0  0  0  0
 24 65  1  0  0  0  0
 26 25  1  0  0  0  0
 26 27  1  0  0  0  0
 26 66  1  1  0  0  0
 27 28  1  0  0  0  0
 28 29  1  0  0  0  0
 28 32  1  0  0  0  0
 28 67  1  6  0  0  0
 29 30  2  0  0  0  0
 29 31  1  0  0  0  0
 31 68  1  0  0  0  0
 32 33  1  0  0  0  0
 32 34  1  0  0  0  0
 32 69  1  1  0  0  0
 33 70  1  0  0  0  0
 34 35  1  0  0  0  0
 34 36  1  0  0  0  0
 34 71  1  1  0  0  0
 35 72  1  0  0  0  0
 36 37  1  0  0  0  0
 36 26  1  0  0  0  0
 36 73  1  6  0  0  0
 37 74  1  0  0  0  0
 38 39  2  0  0  0  0
 38 75  1  0  0  0  0
 39 40  1  0  0  0  0
 39 12  1  0  0  0  0
 40 41  1  0  0  0  0
 41 76  1  0  0  0  0
 41 77  1  0  0  0  0
 41 78  1  0  0  0  0
 42 43  1  0  0  0  0
 42 79  1  0  0  0  0
 43 44  2  0  0  0  0
 43 80  1  0  0  0  0
 44 45  1  0  0  0  0
 44  3  1  0  0  0  0
 45 81  1  0  0  0  0
M  END
>  <IDENTIFIER>
CNP0240067.1

>  <Energy>
695.852

$$$$
