
 OpenBabel09112519113D

 33 32  0  0  0  0  0  0  0  0999 V2000
   -3.5772    0.2457    0.8137 C   0  0  0  0  0  0  0  0  0  0  0  0
   -2.7526    1.1060   -0.1494 C   0  0  2  0  0  0  0  0  0  0  0  0
   -3.6295    1.6253   -1.2030 N   0  0  0  0  0  0  0  0  0  0  0  0
   -1.5820    0.3210   -0.7238 C   0  0  0  0  0  0  0  0  0  0  0  0
   -1.5037    0.1418   -1.9319 O   0  0  0  0  0  0  0  0  0  0  0  0
   -0.6109   -0.1553    0.1082 N   0  0  0  0  0  0  0  0  0  0  0  0
    0.5609   -0.8927   -0.3485 C   0  0  2  0  0  0  0  0  0  0  0  0
    0.5130   -2.2651    0.2831 C   0  0  0  0  0  0  0  0  0  0  0  0
    0.4616   -2.3762    1.4987 O   0  0  0  0  0  0  0  0  0  0  0  0
    0.5275   -3.3797   -0.4796 O   0  0  0  0  0  0  0  0  0  0  0  0
    1.8829   -0.1099   -0.0249 C   0  0  1  0  0  0  0  0  0  0  0  0
    3.1509   -0.8716   -0.5230 C   0  0  0  0  0  0  0  0  0  0  0  0
    3.5139   -2.0946    0.2719 C   0  0  0  0  0  0  0  0  0  0  0  0
    4.4857   -2.7581   -0.0512 O   0  0  0  0  0  0  0  0  0  0  0  0
    1.8408    1.2750   -0.6841 C   0  0  0  0  0  0  0  0  0  0  0  0
    2.5893    1.5331   -1.6188 O   0  0  0  0  0  0  0  0  0  0  0  0
    1.0044    2.2414   -0.2279 N   0  0  0  0  0  0  0  0  0  0  0  0
    0.9747    3.4503   -0.8096 O   0  0  0  0  0  0  0  0  0  0  0  0
   -4.4100    0.8488    1.2348 H   0  0  0  0  0  0  0  0  0  0  0  0
   -2.9559   -0.1159    1.6591 H   0  0  0  0  0  0  0  0  0  0  0  0
   -4.0052   -0.6312    0.2823 H   0  0  0  0  0  0  0  0  0  0  0  0
   -2.3442    1.9724    0.4163 H   0  0  0  0  0  0  0  0  0  0  0  0
   -4.0170    0.8407   -1.7770 H   0  0  0  0  0  0  0  0  0  0  0  0
   -3.0892    2.2700   -1.8252 H   0  0  0  0  0  0  0  0  0  0  0  0
   -0.6951    0.0243    1.1206 H   0  0  0  0  0  0  0  0  0  0  0  0
    0.5358   -1.0214   -1.4532 H   0  0  0  0  0  0  0  0  0  0  0  0
    0.6048   -3.3399   -1.4430 H   0  0  0  0  0  0  0  0  0  0  0  0
    1.9994    0.0532    1.0698 H   0  0  0  0  0  0  0  0  0  0  0  0
    4.0334   -0.1998   -0.4368 H   0  0  0  0  0  0  0  0  0  0  0  0
    3.0209   -1.1424   -1.5939 H   0  0  0  0  0  0  0  0  0  0  0  0
    2.9550   -2.3894    1.1495 H   0  0  0  0  0  0  0  0  0  0  0  0
    0.3951    2.0711    0.5847 H   0  0  0  0  0  0  0  0  0  0  0  0
    1.6084    4.0037   -0.2836 H   0  0  0  0  0  0  0  0  0  0  0  0
  1 19  1  0  0  0  0
  1 20  1  0  0  0  0
  1 21  1  0  0  0  0
  2  1  1  0  0  0  0
  2  3  1  0  0  0  0
  2  4  1  0  0  0  0
  2 22  1  1  0  0  0
  3 23  1  0  0  0  0
  3 24  1  0  0  0  0
  4  5  2  0  0  0  0
  4  6  1  0  0  0  0
  6 25  1  0  0  0  0
  7  6  1  0  0  0  0
  7  8  1  0  0  0  0
  7 11  1  0  0  0  0
  7 26  1  6  0  0  0
  8  9  2  0  0  0  0
  8 10  1  0  0  0  0
 10 27  1  0  0  0  0
 11 12  1  0  0  0  0
 11 15  1  0  0  0  0
 11 28  1  1  0  0  0
 12 13  1  0  0  0  0
 12 29  1  0  0  0  0
 12 30  1  0  0  0  0
 13 14  2  0  0  0  0
 13 31  1  0  0  0  0
 15 16  2  0  0  0  0
 15 17  1  0  0  0  0
 17 18  1  0  0  0  0
 17 32  1  0  0  0  0
 18 33  1  0  0  0  0
M  END
>  <IDENTIFIER>
CNP0488929.1

>  <Energy>
131.775

$$$$
