
 OpenBabel09052505563D

 88 93  0  0  0  0  0  0  0  0999 V2000
   11.5657   -0.2911    0.8216 C   0  0  0  0  0  0  0  0  0  0  0  0
   10.6320    0.1527   -0.3023 C   0  0  2  0  0  0  0  0  0  0  0  0
    9.2995    0.1954    0.1633 O   0  0  0  0  0  0  0  0  0  0  0  0
    8.4441    0.8938   -0.7496 C   0  0  2  0  0  0  0  0  0  0  0  0
    7.1456    0.4411   -0.5262 O   0  0  0  0  0  0  0  0  0  0  0  0
    6.1045    1.1250    0.0362 C   0  0  0  0  0  0  0  0  0  0  0  0
    6.2585    2.3886    0.6497 C   0  0  0  0  0  0  0  0  0  0  0  0
    5.1693    3.0486    1.2245 C   0  0  0  0  0  0  0  0  0  0  0  0
    5.3589    4.2588    1.8000 O   0  0  0  0  0  0  0  0  0  0  0  0
    3.8925    2.4497    1.2096 C   0  0  0  0  0  0  0  0  0  0  0  0
    2.7625    3.0604    1.7742 C   0  0  0  0  0  0  0  0  0  0  0  0
    2.8483    4.1570    2.3040 O   0  0  0  0  0  0  0  0  0  0  0  0
    1.5190    2.4140    1.7347 C   0  0  0  0  0  0  0  0  0  0  0  0
    0.4500    3.0209    2.2869 O   0  0  0  0  0  0  0  0  0  0  0  0
    1.4225    1.1325    1.1216 C   0  0  0  0  0  0  0  0  0  0  0  0
    0.1483    0.3175    1.0267 C   0  0  0  0  0  0  0  0  0  0  0  0
    0.1865   -0.9402    0.3848 C   0  0  0  0  0  0  0  0  0  0  0  0
   -0.9620   -1.7388    0.2767 C   0  0  0  0  0  0  0  0  0  0  0  0
   -2.1889   -1.3155    0.8022 C   0  0  0  0  0  0  0  0  0  0  0  0
   -3.2686   -2.1435    0.6726 O   0  0  0  0  0  0  0  0  0  0  0  0
   -4.5748   -1.9480    1.1113 C   0  0  2  0  0  0  0  0  0  0  0  0
   -4.8364   -2.9627    2.0881 O   0  0  0  0  0  0  0  0  0  0  0  0
   -6.2109   -3.2369    2.3064 C   0  0  1  0  0  0  0  0  0  0  0  0
   -6.9023   -2.0759    3.0444 C   0  0  0  0  0  0  0  0  0  0  0  0
   -6.9320   -3.7057    1.0028 C   0  0  2  0  0  0  0  0  0  0  0  0
   -7.2411   -5.0762    1.0422 O   0  0  0  0  0  0  0  0  0  0  0  0
   -6.0908   -3.3870   -0.2581 C   0  0  1  0  0  0  0  0  0  0  0  0
   -6.8369   -3.5584   -1.4376 O   0  0  0  0  0  0  0  0  0  0  0  0
   -5.5229   -1.9741   -0.1309 C   0  0  1  0  0  0  0  0  0  0  0  0
   -6.5943   -1.0590    0.0701 O   0  0  0  0  0  0  0  0  0  0  0  0
   -6.7696   -0.1033   -0.9679 C   0  0  1  0  0  0  0  0  0  0  0  0
   -7.8845   -0.4754   -1.7895 O   0  0  0  0  0  0  0  0  0  0  0  0
   -9.0523    0.2393   -1.4524 C   0  0  0  0  0  0  0  0  0  0  0  0
   -8.8994    1.7508   -1.7700 C   0  0  1  0  0  0  0  0  0  0  0  0
   -9.8822    2.4801   -1.0755 O   0  0  0  0  0  0  0  0  0  0  0  0
   -7.4546    2.2590   -1.4485 C   0  0  2  0  0  0  0  0  0  0  0  0
   -6.6312    2.2659   -2.5961 O   0  0  0  0  0  0  0  0  0  0  0  0
   -6.8312    1.3593   -0.3704 C   0  0  1  0  0  0  0  0  0  0  0  0
   -7.6151    1.4852    0.7960 O   0  0  0  0  0  0  0  0  0  0  0  0
   -2.2380   -0.0631    1.4417 C   0  0  0  0  0  0  0  0  0  0  0  0
   -1.0986    0.7317    1.5496 C   0  0  0  0  0  0  0  0  0  0  0  0
    2.5300    0.5976    0.5940 O   0  0  0  0  0  0  0  0  0  0  0  0
    3.7276    1.1842    0.6084 C   0  0  0  0  0  0  0  0  0  0  0  0
    4.8300    0.5348    0.0292 C   0  0  0  0  0  0  0  0  0  0  0  0
    8.8417    0.7014   -2.2536 C   0  0  2  0  0  0  0  0  0  0  0  0
    7.7698    0.9594   -3.1267 O   0  0  0  0  0  0  0  0  0  0  0  0
    9.4738   -0.6876   -2.4489 C   0  0  2  0  0  0  0  0  0  0  0  0
    8.5346   -1.6958   -2.1473 O   0  0  0  0  0  0  0  0  0  0  0  0
   10.7458   -0.7865   -1.5424 C   0  0  1  0  0  0  0  0  0  0  0  0
   11.9174   -0.4737   -2.2562 O   0  0  0  0  0  0  0  0  0  0  0  0
   11.4672    0.3988    1.6868 H   0  0  0  0  0  0  0  0  0  0  0  0
   12.6207   -0.2783    0.4753 H   0  0  0  0  0  0  0  0  0  0  0  0
   11.3048   -1.3179    1.1562 H   0  0  0  0  0  0  0  0  0  0  0  0
   10.9366    1.1923   -0.5725 H   0  0  0  0  0  0  0  0  0  0  0  0
    8.5219    1.9781   -0.5657 H   0  0  0  0  0  0  0  0  0  0  0  0
    7.2084    2.8886    0.7073 H   0  0  0  0  0  0  0  0  0  0  0  0
    6.2231    4.6936    1.8261 H   0  0  0  0  0  0  0  0  0  0  0  0
    0.4816    3.8906    2.7121 H   0  0  0  0  0  0  0  0  0  0  0  0
    1.1088   -1.3184   -0.0368 H   0  0  0  0  0  0  0  0  0  0  0  0
   -0.8945   -2.6992   -0.2191 H   0  0  0  0  0  0  0  0  0  0  0  0
   -4.6821   -0.9615    1.5865 H   0  0  0  0  0  0  0  0  0  0  0  0
   -6.2701   -4.0759    3.0338 H   0  0  0  0  0  0  0  0  0  0  0  0
   -6.9073   -1.1456    2.4559 H   0  0  0  0  0  0  0  0  0  0  0  0
   -6.3689   -1.8683    3.9959 H   0  0  0  0  0  0  0  0  0  0  0  0
   -7.9533   -2.3439    3.2833 H   0  0  0  0  0  0  0  0  0  0  0  0
   -7.9019   -3.1615    0.9511 H   0  0  0  0  0  0  0  0  0  0  0  0
   -6.3887   -5.5706    1.1631 H   0  0  0  0  0  0  0  0  0  0  0  0
   -5.2242   -4.0844   -0.3064 H   0  0  0  0  0  0  0  0  0  0  0  0
   -7.6640   -3.0172   -1.3577 H   0  0  0  0  0  0  0  0  0  0  0  0
   -4.9110   -1.7391   -1.0315 H   0  0  0  0  0  0  0  0  0  0  0  0
   -5.9088   -0.0524   -1.6706 H   0  0  0  0  0  0  0  0  0  0  0  0
   -9.2697    0.0613   -0.3765 H   0  0  0  0  0  0  0  0  0  0  0  0
   -9.9314   -0.1722   -1.9916 H   0  0  0  0  0  0  0  0  0  0  0  0
   -9.0764    1.9376   -2.8510 H   0  0  0  0  0  0  0  0  0  0  0  0
   -9.7173    2.3752   -0.1029 H   0  0  0  0  0  0  0  0  0  0  0  0
   -7.5141    3.3176   -1.1130 H   0  0  0  0  0  0  0  0  0  0  0  0
   -6.8619    1.4937   -3.1748 H   0  0  0  0  0  0  0  0  0  0  0  0
   -5.8002    1.6879   -0.1096 H   0  0  0  0  0  0  0  0  0  0  0  0
   -7.6507    0.6254    1.2778 H   0  0  0  0  0  0  0  0  0  0  0  0
   -3.1369    0.3396    1.8762 H   0  0  0  0  0  0  0  0  0  0  0  0
   -1.2555    1.6591    2.0583 H   0  0  0  0  0  0  0  0  0  0  0  0
    4.6956   -0.4381   -0.4288 H   0  0  0  0  0  0  0  0  0  0  0  0
    9.6440    1.4298   -2.5050 H   0  0  0  0  0  0  0  0  0  0  0  0
    7.1307    0.2040   -3.0557 H   0  0  0  0  0  0  0  0  0  0  0  0
    9.7821   -0.8524   -3.5053 H   0  0  0  0  0  0  0  0  0  0  0  0
    8.4976   -1.8236   -1.1644 H   0  0  0  0  0  0  0  0  0  0  0  0
   10.8310   -1.8533   -1.2393 H   0  0  0  0  0  0  0  0  0  0  0  0
   11.8134    0.4421   -2.6263 H   0  0  0  0  0  0  0  0  0  0  0  0
  1 51  1  0  0  0  0
  1 52  1  0  0  0  0
  1 53  1  0  0  0  0
  2  1  1  0  0  0  0
  2  3  1  0  0  0  0
  2 54  1  6  0  0  0
  3  4  1  0  0  0  0
  4  5  1  0  0  0  0
  4 45  1  0  0  0  0
  4 55  1  1  0  0  0
  5  6  1  0  0  0  0
  6  7  2  0  0  0  0
  7  8  1  0  0  0  0
  7 56  1  0  0  0  0
  8  9  1  0  0  0  0
  8 10  2  0  0  0  0
  9 57  1  0  0  0  0
 10 11  1  0  0  0  0
 11 12  2  0  0  0  0
 11 13  1  0  0  0  0
 13 14  1  0  0  0  0
 13 15  2  0  0  0  0
 14 58  1  0  0  0  0
 15 16  1  0  0  0  0
 15 42  1  0  0  0  0
 16 17  2  0  0  0  0
 17 18  1  0  0  0  0
 17 59  1  0  0  0  0
 18 19  2  0  0  0  0
 18 60  1  0  0  0  0
 19 20  1  0  0  0  0
 19 40  1  0  0  0  0
 21 20  1  0  0  0  0
 21 22  1  0  0  0  0
 21 61  1  1  0  0  0
 22 23  1  0  0  0  0
 23 24  1  0  0  0  0
 23 25  1  0  0  0  0
 23 62  1  1  0  0  0
 24 63  1  0  0  0  0
 24 64  1  0  0  0  0
 24 65  1  0  0  0  0
 25 26  1  0  0  0  0
 25 27  1  0  0  0  0
 25 66  1  6  0  0  0
 26 67  1  0  0  0  0
 27 28  1  0  0  0  0
 27 29  1  0  0  0  0
 27 68  1  6  0  0  0
 28 69  1  0  0  0  0
 29 30  1  0  0  0  0
 29 21  1  0  0  0  0
 29 70  1  6  0  0  0
 31 30  1  0  0  0  0
 31 32  1  0  0  0  0
 31 71  1  6  0  0  0
 32 33  1  0  0  0  0
 33 34  1  0  0  0  0
 33 72  1  0  0  0  0
 33 73  1  0  0  0  0
 34 35  1  0  0  0  0
 34 36  1  0  0  0  0
 34 74  1  6  0  0  0
 35 75  1  0  0  0  0
 36 37  1  0  0  0  0
 36 38  1  0  0  0  0
 36 76  1  1  0  0  0
 37 77  1  0  0  0  0
 38 39  1  0  0  0  0
 38 31  1  0  0  0  0
 38 78  1  1  0  0  0
 39 79  1  0  0  0  0
 40 41  2  0  0  0  0
 40 80  1  0  0  0  0
 41 16  1  0  0  0  0
 41 81  1  0  0  0  0
 42 43  1  0  0  0  0
 43 44  2  0  0  0  0
 43 10  1  0  0  0  0
 44  6  1  0  0  0  0
 44 82  1  0  0  0  0
 45 46  1  0  0  0  0
 45 47  1  0  0  0  0
 45 83  1  6  0  0  0
 46 84  1  0  0  0  0
 47 48  1  0  0  0  0
 47 49  1  0  0  0  0
 47 85  1  6  0  0  0
 48 86  1  0  0  0  0
 49 50  1  0  0  0  0
 49  2  1  0  0  0  0
 49 87  1  1  0  0  0
 50 88  1  0  0  0  0
M  END
>  <IDENTIFIER>
CNP0258008.1

>  <Energy>
1240.07

$$$$
