
 OpenBabel09062506213D

 72 78  0  0  0  0  0  0  0  0999 V2000
   -4.8943    4.2336   -0.5268 C   0  0  0  0  0  0  0  0  0  0  0  0
   -4.3850    3.0686   -1.3750 C   0  0  0  0  0  0  0  0  0  0  0  0
   -4.1736    1.9349   -0.6088 O   0  0  0  0  0  0  0  0  0  0  0  0
   -5.1168    1.1405   -0.0318 C   0  0  0  0  0  0  0  0  0  0  0  0
   -6.5006    1.3270   -0.2432 C   0  0  0  0  0  0  0  0  0  0  0  0
   -7.4297    0.4711    0.3543 C   0  0  0  0  0  0  0  0  0  0  0  0
   -6.9966   -0.5812    1.1611 C   0  0  0  0  0  0  0  0  0  0  0  0
   -5.6321   -0.7835    1.3699 C   0  0  0  0  0  0  0  0  0  0  0  0
   -4.6914    0.0728    0.7822 C   0  0  0  0  0  0  0  0  0  0  0  0
   -3.3089   -0.1791    0.9802 N   0  0  0  0  0  0  0  0  0  0  0  0
   -2.5048    0.4053    1.9223 C   0  0  0  0  0  0  0  0  0  0  0  0
   -2.8836    1.2533    2.7156 O   0  0  0  0  0  0  0  0  0  0  0  0
   -1.0750    0.0889    1.5855 C   0  0  1  0  0  0  0  0  0  0  0  0
    0.3679    0.1406    2.2687 C   0  0  1  0  0  0  0  0  0  0  0  0
    0.6465   -1.1731    2.9740 C   0  0  0  0  0  0  0  0  0  0  0  0
    0.5116   -2.2789    2.1938 C   0  0  0  0  0  0  0  0  0  0  0  0
    0.0572   -2.0404    0.7099 C   0  0  1  0  0  0  0  0  0  0  0  0
   -0.1557   -3.3986    0.0241 C   0  0  0  0  0  0  0  0  0  0  0  0
   -1.0465   -4.3373    0.5984 C   0  0  0  0  0  0  0  0  0  0  0  0
   -1.2687   -5.5803    0.0022 C   0  0  0  0  0  0  0  0  0  0  0  0
   -0.6133   -5.9147   -1.1804 C   0  0  0  0  0  0  0  0  0  0  0  0
    0.2709   -5.0081   -1.7637 C   0  0  0  0  0  0  0  0  0  0  0  0
    0.5027   -3.7641   -1.1670 C   0  0  0  0  0  0  0  0  0  0  0  0
   -1.2897   -1.2809    0.9443 C   0  0  2  0  0  0  0  0  0  0  0  0
   -2.5810   -1.0690    0.2506 C   0  0  0  0  0  0  0  0  0  0  0  0
   -3.0189   -1.7275   -0.6806 O   0  0  0  0  0  0  0  0  0  0  0  0
    1.2504   -1.1217    0.1888 C   0  0  1  0  0  0  0  0  0  0  0  0
    1.9746   -0.5791   -1.0174 C   0  0  0  0  0  0  0  0  0  0  0  0
    1.7313   -0.8762   -2.1751 O   0  0  0  0  0  0  0  0  0  0  0  0
    2.9996    0.2580   -0.6068 N   0  0  0  0  0  0  0  0  0  0  0  0
    4.1064    0.7266   -1.4342 C   0  0  0  0  0  0  0  0  0  0  0  0
    4.3972    0.0588   -2.6541 C   0  0  0  0  0  0  0  0  0  0  0  0
    5.4307    0.4688   -3.4929 C   0  0  0  0  0  0  0  0  0  0  0  0
    6.2166    1.5564   -3.1529 C   0  0  0  0  0  0  0  0  0  0  0  0
    5.9773    2.2384   -1.9681 C   0  0  0  0  0  0  0  0  0  0  0  0
    4.9383    1.8467   -1.0922 C   0  0  0  0  0  0  0  0  0  0  0  0
    4.7162    2.5513    0.0474 O   0  0  0  0  0  0  0  0  0  0  0  0
    5.5270    3.5092    0.6369 C   0  0  0  0  0  0  0  0  0  0  0  0
    6.8292    2.8967    1.1595 C   0  0  0  0  0  0  0  0  0  0  0  0
    2.7354    0.5375    0.7198 C   0  0  0  0  0  0  0  0  0  0  0  0
    3.4916    1.0696    1.5135 O   0  0  0  0  0  0  0  0  0  0  0  0
    1.3200    0.1743    1.0088 C   0  0  2  0  0  0  0  0  0  0  0  0
   -5.0164    5.1315   -1.1687 H   0  0  0  0  0  0  0  0  0  0  0  0
   -4.1625    4.4630    0.2758 H   0  0  0  0  0  0  0  0  0  0  0  0
   -5.8724    4.0052   -0.0598 H   0  0  0  0  0  0  0  0  0  0  0  0
   -3.4126    3.3742   -1.8153 H   0  0  0  0  0  0  0  0  0  0  0  0
   -5.0793    2.8465   -2.2142 H   0  0  0  0  0  0  0  0  0  0  0  0
   -6.8735    2.1202   -0.8748 H   0  0  0  0  0  0  0  0  0  0  0  0
   -8.4884    0.6202    0.1854 H   0  0  0  0  0  0  0  0  0  0  0  0
   -7.7181   -1.2457    1.6184 H   0  0  0  0  0  0  0  0  0  0  0  0
   -5.3019   -1.6092    1.9880 H   0  0  0  0  0  0  0  0  0  0  0  0
   -1.0284    0.8570    0.7828 H   0  0  0  0  0  0  0  0  0  0  0  0
    0.4937    1.0557    2.8847 H   0  0  0  0  0  0  0  0  0  0  0  0
    0.9422   -1.2300    4.0162 H   0  0  0  0  0  0  0  0  0  0  0  0
    0.6911   -3.2701    2.5997 H   0  0  0  0  0  0  0  0  0  0  0  0
   -1.5720   -4.1187    1.5176 H   0  0  0  0  0  0  0  0  0  0  0  0
   -1.9514   -6.2848    0.4602 H   0  0  0  0  0  0  0  0  0  0  0  0
   -0.7887   -6.8774   -1.6429 H   0  0  0  0  0  0  0  0  0  0  0  0
    0.7804   -5.2700   -2.6820 H   0  0  0  0  0  0  0  0  0  0  0  0
    1.1954   -3.1074   -1.6515 H   0  0  0  0  0  0  0  0  0  0  0  0
   -1.7390   -1.9197    1.7519 H   0  0  0  0  0  0  0  0  0  0  0  0
    2.0899   -1.7953    0.5158 H   0  0  0  0  0  0  0  0  0  0  0  0
    3.8482   -0.8037   -2.9855 H   0  0  0  0  0  0  0  0  0  0  0  0
    5.6223   -0.0638   -4.4161 H   0  0  0  0  0  0  0  0  0  0  0  0
    7.0156    1.8747   -3.8104 H   0  0  0  0  0  0  0  0  0  0  0  0
    6.6105    3.0859   -1.7495 H   0  0  0  0  0  0  0  0  0  0  0  0
    4.9828    3.9323    1.5073 H   0  0  0  0  0  0  0  0  0  0  0  0
    5.7296    4.3417   -0.0693 H   0  0  0  0  0  0  0  0  0  0  0  0
    6.6046    2.0929    1.8921 H   0  0  0  0  0  0  0  0  0  0  0  0
    7.4331    3.6806    1.6634 H   0  0  0  0  0  0  0  0  0  0  0  0
    7.4377    2.4664    0.3389 H   0  0  0  0  0  0  0  0  0  0  0  0
    0.8930    1.0211    0.4192 H   0  0  0  0  0  0  0  0  0  0  0  0
  1  2  1  0  0  0  0
  1 43  1  0  0  0  0
  1 44  1  0  0  0  0
  1 45  1  0  0  0  0
  2  3  1  0  0  0  0
  2 46  1  0  0  0  0
  2 47  1  0  0  0  0
  3  4  1  0  0  0  0
  4  5  2  0  0  0  0
  5  6  1  0  0  0  0
  5 48  1  0  0  0  0
  6  7  2  0  0  0  0
  6 49  1  0  0  0  0
  7  8  1  0  0  0  0
  7 50  1  0  0  0  0
  8  9  2  0  0  0  0
  8 51  1  0  0  0  0
  9 10  1  0  0  0  0
  9  4  1  0  0  0  0
 10 11  1  0  0  0  0
 11 12  2  0  0  0  0
 13 11  1  0  0  0  0
 13 14  1  0  0  0  0
 13 52  1  6  0  0  0
 14 15  1  0  0  0  0
 14 53  1  1  0  0  0
 15 16  2  0  0  0  0
 15 54  1  0  0  0  0
 16 17  1  0  0  0  0
 16 55  1  0  0  0  0
 17 18  1  6  0  0  0
 17 24  1  0  0  0  0
 17 27  1  0  0  0  0
 18 19  2  0  0  0  0
 19 20  1  0  0  0  0
 19 56  1  0  0  0  0
 20 21  2  0  0  0  0
 20 57  1  0  0  0  0
 21 22  1  0  0  0  0
 21 58  1  0  0  0  0
 22 23  2  0  0  0  0
 22 59  1  0  0  0  0
 23 18  1  0  0  0  0
 23 60  1  0  0  0  0
 24 25  1  0  0  0  0
 24 13  1  0  0  0  0
 24 61  1  1  0  0  0
 25 26  2  0  0  0  0
 25 10  1  0  0  0  0
 27 28  1  0  0  0  0
 27 62  1  1  0  0  0
 28 29  2  0  0  0  0
 28 30  1  0  0  0  0
 30 31  1  0  0  0  0
 30 40  1  0  0  0  0
 31 32  2  0  0  0  0
 32 33  1  0  0  0  0
 32 63  1  0  0  0  0
 33 34  2  0  0  0  0
 33 64  1  0  0  0  0
 34 35  1  0  0  0  0
 34 65  1  0  0  0  0
 35 36  2  0  0  0  0
 35 66  1  0  0  0  0
 36 37  1  0  0  0  0
 36 31  1  0  0  0  0
 37 38  1  0  0  0  0
 38 39  1  0  0  0  0
 38 67  1  0  0  0  0
 38 68  1  0  0  0  0
 39 69  1  0  0  0  0
 39 70  1  0  0  0  0
 39 71  1  0  0  0  0
 40 41  2  0  0  0  0
 42 40  1  0  0  0  0
 42 27  1  0  0  0  0
 42 14  1  0  0  0  0
 42 72  1  6  0  0  0
M  END
>  <IDENTIFIER>
CNP0059744.8

>  <Energy>
1765.98

$$$$
