
 OpenBabel09062520263D

 44 45  0  0  0  0  0  0  0  0999 V2000
    7.1417    2.4309    0.3432 C   0  0  0  0  0  0  0  0  0  0  0  0
    6.4448    1.2420    0.2809 O   0  0  0  0  0  0  0  0  0  0  0  0
    5.1036    1.1131    0.0966 C   0  0  0  0  0  0  0  0  0  0  0  0
    4.2590    2.2277   -0.0814 C   0  0  0  0  0  0  0  0  0  0  0  0
    2.8861    2.0544   -0.2670 C   0  0  0  0  0  0  0  0  0  0  0  0
    2.3279    0.7691   -0.2692 C   0  0  0  0  0  0  0  0  0  0  0  0
    0.8446    0.5765   -0.4646 C   0  0  0  0  0  0  0  0  0  0  0  0
    0.1930   -0.0064    0.8007 C   0  0  0  0  0  0  0  0  0  0  0  0
   -1.2319   -0.2160    0.6118 N   0  0  0  0  0  0  0  0  0  0  0  0
   -1.7304   -1.1715   -0.2266 C   0  0  0  0  0  0  0  0  0  0  0  0
   -0.9708   -1.9017   -0.8473 O   0  0  0  0  0  0  0  0  0  0  0  0
   -3.2130   -1.3849   -0.4034 C   0  0  0  0  0  0  0  0  0  0  0  0
   -3.9542   -0.4718    0.3222 O   0  0  0  0  0  0  0  0  0  0  0  0
   -5.3108   -0.4130    0.3664 C   0  0  0  0  0  0  0  0  0  0  0  0
   -5.9086    0.6278    1.0897 C   0  0  0  0  0  0  0  0  0  0  0  0
   -7.3013    0.7337    1.1622 C   0  0  0  0  0  0  0  0  0  0  0  0
   -8.1096   -0.2029    0.5134 C   0  0  0  0  0  0  0  0  0  0  0  0
   -7.5266   -1.2462   -0.2097 C   0  0  0  0  0  0  0  0  0  0  0  0
   -6.1346   -1.3546   -0.2874 C   0  0  0  0  0  0  0  0  0  0  0  0
    3.1657   -0.3436   -0.0965 C   0  0  0  0  0  0  0  0  0  0  0  0
    4.5546   -0.1799    0.0837 C   0  0  0  0  0  0  0  0  0  0  0  0
    5.3930   -1.2386    0.2446 O   0  0  0  0  0  0  0  0  0  0  0  0
    5.0291   -2.5692    0.2208 C   0  0  0  0  0  0  0  0  0  0  0  0
    8.2172    2.2117    0.5038 H   0  0  0  0  0  0  0  0  0  0  0  0
    6.7752    3.0452    1.1932 H   0  0  0  0  0  0  0  0  0  0  0  0
    7.0326    2.9914   -0.6094 H   0  0  0  0  0  0  0  0  0  0  0  0
    4.6540    3.2345   -0.0792 H   0  0  0  0  0  0  0  0  0  0  0  0
    2.2585    2.9265   -0.4017 H   0  0  0  0  0  0  0  0  0  0  0  0
    0.6925   -0.0841   -1.3432 H   0  0  0  0  0  0  0  0  0  0  0  0
    0.3497    1.5486   -0.6826 H   0  0  0  0  0  0  0  0  0  0  0  0
    0.3452    0.7260    1.6244 H   0  0  0  0  0  0  0  0  0  0  0  0
    0.6665   -0.9651    1.1045 H   0  0  0  0  0  0  0  0  0  0  0  0
   -1.8745    0.3668    1.1678 H   0  0  0  0  0  0  0  0  0  0  0  0
   -3.4591   -2.4175   -0.0735 H   0  0  0  0  0  0  0  0  0  0  0  0
   -3.4571   -1.2738   -1.4830 H   0  0  0  0  0  0  0  0  0  0  0  0
   -5.2911    1.3595    1.5957 H   0  0  0  0  0  0  0  0  0  0  0  0
   -7.7539    1.5424    1.7214 H   0  0  0  0  0  0  0  0  0  0  0  0
   -9.1873   -0.1205    0.5706 H   0  0  0  0  0  0  0  0  0  0  0  0
   -8.1538   -1.9719   -0.7115 H   0  0  0  0  0  0  0  0  0  0  0  0
   -5.7117   -2.1725   -0.8547 H   0  0  0  0  0  0  0  0  0  0  0  0
    2.7282   -1.3329   -0.1099 H   0  0  0  0  0  0  0  0  0  0  0  0
    5.9319   -3.1947    0.3751 H   0  0  0  0  0  0  0  0  0  0  0  0
    4.5852   -2.8269   -0.7648 H   0  0  0  0  0  0  0  0  0  0  0  0
    4.3046   -2.7853    1.0345 H   0  0  0  0  0  0  0  0  0  0  0  0
  1  2  1  0  0  0  0
  1 24  1  0  0  0  0
  1 25  1  0  0  0  0
  1 26  1  0  0  0  0
  2  3  1  0  0  0  0
  3  4  2  0  0  0  0
  4  5  1  0  0  0  0
  4 27  1  0  0  0  0
  5  6  2  0  0  0  0
  5 28  1  0  0  0  0
  6  7  1  0  0  0  0
  6 20  1  0  0  0  0
  7  8  1  0  0  0  0
  7 29  1  0  0  0  0
  7 30  1  0  0  0  0
  8  9  1  0  0  0  0
  8 31  1  0  0  0  0
  8 32  1  0  0  0  0
  9 10  1  0  0  0  0
  9 33  1  0  0  0  0
 10 11  2  0  0  0  0
 10 12  1  0  0  0  0
 12 13  1  0  0  0  0
 12 34  1  0  0  0  0
 12 35  1  0  0  0  0
 13 14  1  0  0  0  0
 14 15  2  0  0  0  0
 15 16  1  0  0  0  0
 15 36  1  0  0  0  0
 16 17  2  0  0  0  0
 16 37  1  0  0  0  0
 17 18  1  0  0  0  0
 17 38  1  0  0  0  0
 18 19  2  0  0  0  0
 18 39  1  0  0  0  0
 19 14  1  0  0  0  0
 19 40  1  0  0  0  0
 20 21  2  0  0  0  0
 20 41  1  0  0  0  0
 21 22  1  0  0  0  0
 21  3  1  0  0  0  0
 22 23  1  0  0  0  0
 23 42  1  0  0  0  0
 23 43  1  0  0  0  0
 23 44  1  0  0  0  0
M  END
>  <IDENTIFIER>
CNP0589095.0

>  <Energy>
184.43

$$$$
