
 OpenBabel09112519313D

162166  0  0  0  0  0  0  0  0999 V2000
    3.2540   -4.7326    2.0963 C   0  0  0  0  0  0  0  0  0  0  0  0
    1.9448   -4.4522    1.3586 C   0  0  0  0  0  0  0  0  0  0  0  0
    2.0700   -3.5067    0.1291 C   0  0  1  0  0  0  0  0  0  0  0  0
    0.7207   -3.5007   -0.6171 C   0  0  0  0  0  0  0  0  0  0  0  0
    2.5349   -2.0465    0.4559 C   0  0  2  0  0  0  0  0  0  0  0  0
    3.8794   -2.0158    0.9953 N   0  0  0  0  0  0  0  0  0  0  0  0
    5.0646   -2.2296    0.5328 C   0  0  0  0  0  0  0  0  0  0  0  0
    6.0699   -2.1021    1.4266 O   0  0  0  0  0  0  0  0  0  0  0  0
    5.4355   -2.5635   -0.9245 C   0  0  2  0  0  0  0  0  0  0  0  0
    6.9629   -2.8648   -1.0573 C   0  0  0  0  0  0  0  0  0  0  0  0
    7.4308   -3.9840   -0.1518 C   0  0  0  0  0  0  0  0  0  0  0  0
    6.9697   -5.2966   -0.3282 C   0  0  0  0  0  0  0  0  0  0  0  0
    7.3770   -6.3094    0.5473 C   0  0  0  0  0  0  0  0  0  0  0  0
    8.2353   -6.0262    1.6184 C   0  0  0  0  0  0  0  0  0  0  0  0
    8.5678   -7.0329    2.4677 O   0  0  0  0  0  0  0  0  0  0  0  0
    9.2713   -6.8858    3.6462 C   0  0  0  0  0  0  0  0  0  0  0  0
    8.7118   -4.7119    1.7837 C   0  0  0  0  0  0  0  0  0  0  0  0
    8.3224   -3.7070    0.8993 C   0  0  0  0  0  0  0  0  0  0  0  0
    5.1281   -1.4609   -1.8579 N   0  0  0  0  0  0  0  0  0  0  0  0
    4.4576   -1.7813   -3.1125 C   0  0  0  0  0  0  0  0  0  0  0  0
    5.5331   -0.1688   -1.5734 C   0  0  0  0  0  0  0  0  0  0  0  0
    6.0064    0.0670   -0.4733 O   0  0  0  0  0  0  0  0  0  0  0  0
    5.3837    1.0228   -2.5425 C   0  0  2  0  0  0  0  0  0  0  0  0
    6.7481    1.8442   -2.6253 C   0  0  1  0  0  0  0  0  0  0  0  0
    6.7980    2.9158   -3.7257 C   0  0  0  0  0  0  0  0  0  0  0  0
    7.3353    2.4236   -1.3038 C   0  0  0  0  0  0  0  0  0  0  0  0
    6.4149    3.3716   -0.5478 C   0  0  0  0  0  0  0  0  0  0  0  0
    4.0936    1.7620   -2.3974 N   0  0  0  0  0  0  0  0  0  0  0  0
    3.1737    1.5527   -1.3801 C   0  0  0  0  0  0  0  0  0  0  0  0
    3.4512    0.8972   -0.3880 O   0  0  0  0  0  0  0  0  0  0  0  0
    1.6985    1.8933   -1.6059 C   0  0  2  0  0  0  0  0  0  0  0  0
    1.3984    1.4109   -3.0294 C   0  0  0  0  0  0  0  0  0  0  0  0
    2.2853    2.1256   -4.0764 C   0  0  0  0  0  0  0  0  0  0  0  0
    3.6348    2.6268   -3.4992 C   0  0  1  0  0  0  0  0  0  0  0  0
    3.4582    3.9412   -3.0243 O   0  0  0  0  0  0  0  0  0  0  0  0
    1.3841    3.3050   -1.5218 N   0  0  0  0  0  0  0  0  0  0  0  0
    0.3821    3.8409   -0.8959 C   0  0  0  0  0  0  0  0  0  0  0  0
    0.2030    5.1744   -1.0329 O   0  0  0  0  0  0  0  0  0  0  0  0
   -0.6126    3.0227   -0.0562 C   0  0  2  0  0  0  0  0  0  0  0  0
   -1.8371    3.8862    0.3515 C   0  0  0  0  0  0  0  0  0  0  0  0
   -1.5078    4.9674    1.4119 C   0  0  0  0  0  0  0  0  0  0  0  0
   -2.5215    6.0851    1.4282 C   0  0  0  0  0  0  0  0  0  0  0  0
   -2.6233    6.9348    0.3135 C   0  0  0  0  0  0  0  0  0  0  0  0
   -3.5122    8.0099    0.3176 C   0  0  0  0  0  0  0  0  0  0  0  0
   -4.3205    8.2597    1.4300 C   0  0  0  0  0  0  0  0  0  0  0  0
   -5.1571    9.3289    1.3830 O   0  0  0  0  0  0  0  0  0  0  0  0
   -6.0089    9.7339    2.3884 C   0  0  0  0  0  0  0  0  0  0  0  0
   -4.2293    7.4053    2.5495 C   0  0  0  0  0  0  0  0  0  0  0  0
   -3.3316    6.3284    2.5479 C   0  0  0  0  0  0  0  0  0  0  0  0
    0.1106    2.5790    1.1159 N   0  0  0  0  0  0  0  0  0  0  0  0
   -0.0915    1.6699    2.0153 C   0  0  0  0  0  0  0  0  0  0  0  0
    0.7641    1.6703    3.0634 O   0  0  0  0  0  0  0  0  0  0  0  0
   -1.1809    0.5911    2.0728 C   0  0  1  0  0  0  0  0  0  0  0  0
   -2.0305    0.4021    0.9010 N   0  0  0  0  0  0  0  0  0  0  0  0
   -3.3780    0.2026    1.0442 C   0  0  0  0  0  0  0  0  0  0  0  0
   -3.9234    0.4314    2.1173 O   0  0  0  0  0  0  0  0  0  0  0  0
   -4.1732   -0.4987   -0.0459 C   0  0  2  0  0  0  0  0  0  0  0  0
   -4.2869    0.3590   -1.3168 C   0  0  0  0  0  0  0  0  0  0  0  0
   -4.9635   -0.3605   -2.4989 C   0  0  0  0  0  0  0  0  0  0  0  0
   -6.4683   -0.4191   -2.4047 C   0  0  0  0  0  0  0  0  0  0  0  0
   -7.2079    0.7757   -2.3716 C   0  0  0  0  0  0  0  0  0  0  0  0
   -8.6026    0.7460   -2.3390 C   0  0  0  0  0  0  0  0  0  0  0  0
   -9.2802   -0.4795   -2.3453 C   0  0  0  0  0  0  0  0  0  0  0  0
  -10.6276   -0.5198   -2.3296 O   0  0  0  0  0  0  0  0  0  0  0  0
   -8.5509   -1.6733   -2.3759 C   0  0  0  0  0  0  0  0  0  0  0  0
   -7.1510   -1.6468   -2.4042 C   0  0  0  0  0  0  0  0  0  0  0  0
   -5.4646   -0.9202    0.5059 N   0  0  0  0  0  0  0  0  0  0  0  0
   -5.7082   -2.2222    0.8607 C   0  0  0  0  0  0  0  0  0  0  0  0
   -4.8870   -3.0939    0.6062 O   0  0  0  0  0  0  0  0  0  0  0  0
   -6.9317   -2.6013    1.6776 C   0  0  1  0  0  0  0  0  0  0  0  0
   -8.2468   -2.3863    0.9300 C   0  0  0  0  0  0  0  0  0  0  0  0
   -9.3007   -2.7364    1.7954 O   0  0  0  0  0  0  0  0  0  0  0  0
  -10.7875   -2.7392    0.9135 S   0  0  0  0  0  0  0  0  0  0  0  0
  -10.6946   -3.6286   -0.3370 O   0  0  0  0  0  0  0  0  0  0  0  0
  -11.0768   -1.3273    0.3846 O   0  0  0  0  0  0  0  0  0  0  0  0
  -12.1421   -3.2374    1.8441 O   0  0  0  0  0  0  0  0  0  0  0  0
   -6.8467   -3.9770    2.0358 O   0  0  0  0  0  0  0  0  0  0  0  0
   -6.9035   -4.1449    3.4363 C   0  0  0  0  0  0  0  0  0  0  0  0
   -0.5170   -0.7801    2.3952 C   0  0  1  0  0  0  0  0  0  0  0  0
   -1.5398   -1.8913    2.6600 C   0  0  0  0  0  0  0  0  0  0  0  0
    0.3313   -1.1870    1.3660 O   0  0  0  0  0  0  0  0  0  0  0  0
    1.6670   -1.3836    1.5286 C   0  0  0  0  0  0  0  0  0  0  0  0
    2.1986   -1.0273    2.5752 O   0  0  0  0  0  0  0  0  0  0  0  0
    3.0690   -5.4828    2.8937 H   0  0  0  0  0  0  0  0  0  0  0  0
    3.6461   -3.8266    2.5949 H   0  0  0  0  0  0  0  0  0  0  0  0
    4.0120   -5.1408    1.3942 H   0  0  0  0  0  0  0  0  0  0  0  0
    1.1982   -4.0538    2.0797 H   0  0  0  0  0  0  0  0  0  0  0  0
    1.5723   -5.4371    0.9996 H   0  0  0  0  0  0  0  0  0  0  0  0
    2.7991   -3.9506   -0.5788 H   0  0  0  0  0  0  0  0  0  0  0  0
   -0.1078   -3.1346    0.0209 H   0  0  0  0  0  0  0  0  0  0  0  0
    0.4557   -4.5325   -0.9349 H   0  0  0  0  0  0  0  0  0  0  0  0
    0.7819   -2.8707   -1.5292 H   0  0  0  0  0  0  0  0  0  0  0  0
    2.5033   -1.4343   -0.4694 H   0  0  0  0  0  0  0  0  0  0  0  0
    5.9098   -1.8826    2.3559 H   0  0  0  0  0  0  0  0  0  0  0  0
    4.9149   -3.4966   -1.2197 H   0  0  0  0  0  0  0  0  0  0  0  0
    7.5290   -1.9392   -0.8152 H   0  0  0  0  0  0  0  0  0  0  0  0
    7.2100   -3.1269   -2.1089 H   0  0  0  0  0  0  0  0  0  0  0  0
    6.2916   -5.5344   -1.1376 H   0  0  0  0  0  0  0  0  0  0  0  0
    7.0085   -7.3170    0.4036 H   0  0  0  0  0  0  0  0  0  0  0  0
    9.3852   -7.8777    4.1288 H   0  0  0  0  0  0  0  0  0  0  0  0
    8.7135   -6.2189    4.3392 H   0  0  0  0  0  0  0  0  0  0  0  0
   10.2818   -6.4688    3.4498 H   0  0  0  0  0  0  0  0  0  0  0  0
    9.3760   -4.4516    2.5967 H   0  0  0  0  0  0  0  0  0  0  0  0
    8.6929   -2.7010    1.0575 H   0  0  0  0  0  0  0  0  0  0  0  0
    4.2042   -2.8595   -3.1888 H   0  0  0  0  0  0  0  0  0  0  0  0
    5.1258   -1.5594   -3.9717 H   0  0  0  0  0  0  0  0  0  0  0  0
    3.5167   -1.2024   -3.2030 H   0  0  0  0  0  0  0  0  0  0  0  0
    5.3047    0.5740   -3.5494 H   0  0  0  0  0  0  0  0  0  0  0  0
    7.5062    1.0956   -2.9527 H   0  0  0  0  0  0  0  0  0  0  0  0
    6.1503    3.7798   -3.4976 H   0  0  0  0  0  0  0  0  0  0  0  0
    6.5293    2.4772   -4.7093 H   0  0  0  0  0  0  0  0  0  0  0  0
    7.8332    3.3076   -3.8236 H   0  0  0  0  0  0  0  0  0  0  0  0
    8.2879    2.9504   -1.5301 H   0  0  0  0  0  0  0  0  0  0  0  0
    7.6412    1.6126   -0.6182 H   0  0  0  0  0  0  0  0  0  0  0  0
    6.1803    4.2629   -1.1596 H   0  0  0  0  0  0  0  0  0  0  0  0
    6.9309    3.7078    0.3769 H   0  0  0  0  0  0  0  0  0  0  0  0
    5.4822    2.8526   -0.2510 H   0  0  0  0  0  0  0  0  0  0  0  0
    1.0833    1.2965   -0.9032 H   0  0  0  0  0  0  0  0  0  0  0  0
    0.3266    1.4987   -3.3102 H   0  0  0  0  0  0  0  0  0  0  0  0
    1.6482    0.3276   -3.0478 H   0  0  0  0  0  0  0  0  0  0  0  0
    1.7672    3.0109   -4.5081 H   0  0  0  0  0  0  0  0  0  0  0  0
    2.4440    1.4074   -4.9097 H   0  0  0  0  0  0  0  0  0  0  0  0
    4.3334    2.6781   -4.3496 H   0  0  0  0  0  0  0  0  0  0  0  0
    4.2241    4.1673   -2.4401 H   0  0  0  0  0  0  0  0  0  0  0  0
    0.8066    5.7227   -1.5547 H   0  0  0  0  0  0  0  0  0  0  0  0
   -0.9696    2.1890   -0.6919 H   0  0  0  0  0  0  0  0  0  0  0  0
   -2.6531    3.2518    0.7601 H   0  0  0  0  0  0  0  0  0  0  0  0
   -2.2242    4.3443   -0.5850 H   0  0  0  0  0  0  0  0  0  0  0  0
   -0.5307    5.4527    1.2203 H   0  0  0  0  0  0  0  0  0  0  0  0
   -1.4232    4.4683    2.4021 H   0  0  0  0  0  0  0  0  0  0  0  0
   -1.9980    6.7769   -0.5561 H   0  0  0  0  0  0  0  0  0  0  0  0
   -3.5652    8.6598   -0.5473 H   0  0  0  0  0  0  0  0  0  0  0  0
   -6.5492   10.6450    2.0579 H   0  0  0  0  0  0  0  0  0  0  0  0
   -5.4318    9.9792    3.3053 H   0  0  0  0  0  0  0  0  0  0  0  0
   -6.7524    8.9380    2.6037 H   0  0  0  0  0  0  0  0  0  0  0  0
   -4.8393    7.5708    3.4271 H   0  0  0  0  0  0  0  0  0  0  0  0
   -3.2661    5.6911    3.4207 H   0  0  0  0  0  0  0  0  0  0  0  0
    1.4886    2.3082    3.1373 H   0  0  0  0  0  0  0  0  0  0  0  0
   -1.7897    0.8473    2.9675 H   0  0  0  0  0  0  0  0  0  0  0  0
   -1.5797    0.1361    0.0129 H   0  0  0  0  0  0  0  0  0  0  0  0
   -3.5733   -1.3967   -0.3118 H   0  0  0  0  0  0  0  0  0  0  0  0
   -3.2462    0.5801   -1.6400 H   0  0  0  0  0  0  0  0  0  0  0  0
   -4.7776    1.3318   -1.1046 H   0  0  0  0  0  0  0  0  0  0  0  0
   -4.5150   -1.3718   -2.6198 H   0  0  0  0  0  0  0  0  0  0  0  0
   -4.7370    0.2107   -3.4248 H   0  0  0  0  0  0  0  0  0  0  0  0
   -6.7047    1.7338   -2.3872 H   0  0  0  0  0  0  0  0  0  0  0  0
   -9.1547    1.6772   -2.3208 H   0  0  0  0  0  0  0  0  0  0  0  0
  -11.1651    0.2853   -2.3109 H   0  0  0  0  0  0  0  0  0  0  0  0
   -9.0700   -2.6232   -2.3828 H   0  0  0  0  0  0  0  0  0  0  0  0
   -6.6052   -2.5815   -2.4366 H   0  0  0  0  0  0  0  0  0  0  0  0
   -6.1463   -0.1936    0.7730 H   0  0  0  0  0  0  0  0  0  0  0  0
   -6.9285   -1.9236    2.5673 H   0  0  0  0  0  0  0  0  0  0  0  0
   -8.2322   -3.0499    0.0378 H   0  0  0  0  0  0  0  0  0  0  0  0
   -8.3378   -1.3196    0.6310 H   0  0  0  0  0  0  0  0  0  0  0  0
  -11.9584   -4.1842    2.0704 H   0  0  0  0  0  0  0  0  0  0  0  0
   -6.8634   -5.2303    3.6630 H   0  0  0  0  0  0  0  0  0  0  0  0
   -7.8621   -3.7608    3.8499 H   0  0  0  0  0  0  0  0  0  0  0  0
   -6.0273   -3.6705    3.9306 H   0  0  0  0  0  0  0  0  0  0  0  0
    0.0310   -0.6676    3.3574 H   0  0  0  0  0  0  0  0  0  0  0  0
   -2.1380   -2.1169    1.7541 H   0  0  0  0  0  0  0  0  0  0  0  0
   -2.2201   -1.5987    3.4883 H   0  0  0  0  0  0  0  0  0  0  0  0
   -1.0085   -2.8205    2.9569 H   0  0  0  0  0  0  0  0  0  0  0  0
  1  2  1  0  0  0  0
  1 84  1  0  0  0  0
  1 85  1  0  0  0  0
  1 86  1  0  0  0  0
  2  3  1  0  0  0  0
  2 87  1  0  0  0  0
  2 88  1  0  0  0  0
  3  4  1  0  0  0  0
  3  5  1  0  0  0  0
  3 89  1  6  0  0  0
  4 90  1  0  0  0  0
  4 91  1  0  0  0  0
  4 92  1  0  0  0  0
  5  6  1  0  0  0  0
  5 82  1  0  0  0  0
  5 93  1  6  0  0  0
  6  7  2  0  0  0  0
  7  8  1  0  0  0  0
  7  9  1  0  0  0  0
  8 94  1  0  0  0  0
  9 10  1  0  0  0  0
  9 19  1  0  0  0  0
  9 95  1  6  0  0  0
 10 11  1  0  0  0  0
 10 96  1  0  0  0  0
 10 97  1  0  0  0  0
 11 12  2  0  0  0  0
 12 13  1  0  0  0  0
 12 98  1  0  0  0  0
 13 14  2  0  0  0  0
 13 99  1  0  0  0  0
 14 15  1  0  0  0  0
 14 17  1  0  0  0  0
 15 16  1  0  0  0  0
 16100  1  0  0  0  0
 16101  1  0  0  0  0
 16102  1  0  0  0  0
 17 18  2  0  0  0  0
 17103  1  0  0  0  0
 18 11  1  0  0  0  0
 18104  1  0  0  0  0
 19 20  1  0  0  0  0
 19 21  1  0  0  0  0
 20105  1  0  0  0  0
 20106  1  0  0  0  0
 20107  1  0  0  0  0
 21 22  2  0  0  0  0
 21 23  1  0  0  0  0
 23 24  1  0  0  0  0
 23 28  1  0  0  0  0
 23108  1  6  0  0  0
 24 25  1  0  0  0  0
 24 26  1  0  0  0  0
 24109  1  6  0  0  0
 25110  1  0  0  0  0
 25111  1  0  0  0  0
 25112  1  0  0  0  0
 26 27  1  0  0  0  0
 26113  1  0  0  0  0
 26114  1  0  0  0  0
 27115  1  0  0  0  0
 27116  1  0  0  0  0
 27117  1  0  0  0  0
 28 29  1  0  0  0  0
 29 30  2  0  0  0  0
 29 31  1  0  0  0  0
 31 32  1  0  0  0  0
 31 36  1  0  0  0  0
 31118  1  1  0  0  0
 32 33  1  0  0  0  0
 32119  1  0  0  0  0
 32120  1  0  0  0  0
 33 34  1  0  0  0  0
 33121  1  0  0  0  0
 33122  1  0  0  0  0
 34 35  1  0  0  0  0
 34 28  1  0  0  0  0
 34123  1  6  0  0  0
 35124  1  0  0  0  0
 36 37  2  3  0  0  0
 37 38  1  0  0  0  0
 37 39  1  0  0  0  0
 38125  1  0  0  0  0
 39 40  1  0  0  0  0
 39 50  1  0  0  0  0
 39126  1  6  0  0  0
 40 41  1  0  0  0  0
 40127  1  0  0  0  0
 40128  1  0  0  0  0
 41 42  1  0  0  0  0
 41129  1  0  0  0  0
 41130  1  0  0  0  0
 42 43  2  0  0  0  0
 43 44  1  0  0  0  0
 43131  1  0  0  0  0
 44 45  2  0  0  0  0
 44132  1  0  0  0  0
 45 46  1  0  0  0  0
 45 48  1  0  0  0  0
 46 47  1  0  0  0  0
 47133  1  0  0  0  0
 47134  1  0  0  0  0
 47135  1  0  0  0  0
 48 49  2  0  0  0  0
 48136  1  0  0  0  0
 49 42  1  0  0  0  0
 49137  1  0  0  0  0
 50 51  2  0  0  0  0
 51 52  1  0  0  0  0
 51 53  1  0  0  0  0
 52138  1  0  0  0  0
 53 54  1  0  0  0  0
 53 79  1  0  0  0  0
 53139  1  1  0  0  0
 54 55  1  0  0  0  0
 54140  1  0  0  0  0
 55 56  2  0  0  0  0
 55 57  1  0  0  0  0
 57 58  1  0  0  0  0
 57 67  1  0  0  0  0
 57141  1  6  0  0  0
 58 59  1  0  0  0  0
 58142  1  0  0  0  0
 58143  1  0  0  0  0
 59 60  1  0  0  0  0
 59144  1  0  0  0  0
 59145  1  0  0  0  0
 60 61  2  0  0  0  0
 61 62  1  0  0  0  0
 61146  1  0  0  0  0
 62 63  2  0  0  0  0
 62147  1  0  0  0  0
 63 64  1  0  0  0  0
 63 65  1  0  0  0  0
 64148  1  0  0  0  0
 65 66  2  0  0  0  0
 65149  1  0  0  0  0
 66 60  1  0  0  0  0
 66150  1  0  0  0  0
 67 68  1  0  0  0  0
 67151  1  0  0  0  0
 68 69  2  0  0  0  0
 68 70  1  0  0  0  0
 70 71  1  0  0  0  0
 70 77  1  0  0  0  0
 70152  1  1  0  0  0
 71 72  1  0  0  0  0
 71153  1  0  0  0  0
 71154  1  0  0  0  0
 72 73  1  0  0  0  0
 73 74  2  0  0  0  0
 73 75  2  0  0  0  0
 73 76  1  0  0  0  0
 76155  1  0  0  0  0
 77 78  1  0  0  0  0
 78156  1  0  0  0  0
 78157  1  0  0  0  0
 78158  1  0  0  0  0
 79 80  1  0  0  0  0
 79 81  1  0  0  0  0
 79159  1  1  0  0  0
 80160  1  0  0  0  0
 80161  1  0  0  0  0
 80162  1  0  0  0  0
 81 82  1  0  0  0  0
 82 83  2  0  0  0  0
M  END
>  <IDENTIFIER>
CNP0527586.1

>  <Energy>
1718.04

$$$$
