
 OpenBabel09052504313D

 48 49  0  0  0  0  0  0  0  0999 V2000
   -1.0979   -1.9329   -2.2942 O   0  0  0  0  0  0  0  0  0  0  0  0
   -2.0910   -1.1972   -2.9502 C   0  0  0  0  0  0  0  0  0  0  0  0
   -3.1063   -0.6613   -1.9387 C   0  0  0  0  0  0  0  0  0  0  0  0
   -2.5890    0.4656   -1.0103 C   0  0  1  0  0  0  0  0  0  0  0  0
   -3.6463    0.9233   -0.0812 N   0  0  0  0  0  0  0  0  0  0  0  0
   -3.0153    1.0121    1.2403 C   0  0  2  0  0  0  0  0  0  0  0  0
   -3.6195    2.1389    2.0849 C   0  0  0  0  0  0  0  0  0  0  0  0
   -3.4915    3.3788    1.4398 O   0  0  0  0  0  0  0  0  0  0  0  0
   -1.5232    1.1582    0.9571 C   0  0  1  0  0  0  0  0  0  0  0  0
   -0.7142    0.9377    2.0848 O   0  0  0  0  0  0  0  0  0  0  0  0
   -1.3588    0.1249   -0.1463 C   0  0  2  0  0  0  0  0  0  0  0  0
   -0.1600    0.3072   -0.8861 O   0  0  0  0  0  0  0  0  0  0  0  0
    0.9015   -0.5099   -0.4249 C   0  0  2  0  0  0  0  0  0  0  0  0
    1.5495    0.1153    0.6753 O   0  0  0  0  0  0  0  0  0  0  0  0
    2.5670   -0.7264    1.2091 C   0  0  2  0  0  0  0  0  0  0  0  0
    3.1226   -0.0809    2.4863 C   0  0  0  0  0  0  0  0  0  0  0  0
    3.6656    1.1857    2.2183 O   0  0  0  0  0  0  0  0  0  0  0  0
    3.6919   -0.9634    0.1619 C   0  0  1  0  0  0  0  0  0  0  0  0
    4.7015   -1.8028    0.6672 O   0  0  0  0  0  0  0  0  0  0  0  0
    3.0744   -1.5609   -1.1171 C   0  0  2  0  0  0  0  0  0  0  0  0
    4.0320   -1.7441   -2.1301 O   0  0  0  0  0  0  0  0  0  0  0  0
    1.9010   -0.6867   -1.5946 C   0  0  2  0  0  0  0  0  0  0  0  0
    2.3436    0.5560   -2.0945 O   0  0  0  0  0  0  0  0  0  0  0  0
   -0.6211   -2.4473   -2.9963 H   0  0  0  0  0  0  0  0  0  0  0  0
   -2.6409   -1.8760   -3.6415 H   0  0  0  0  0  0  0  0  0  0  0  0
   -1.6431   -0.3610   -3.5299 H   0  0  0  0  0  0  0  0  0  0  0  0
   -3.4842   -1.5141   -1.3330 H   0  0  0  0  0  0  0  0  0  0  0  0
   -3.9631   -0.2408   -2.5096 H   0  0  0  0  0  0  0  0  0  0  0  0
   -2.3227    1.3497   -1.6344 H   0  0  0  0  0  0  0  0  0  0  0  0
   -4.4616    0.2680   -0.0264 H   0  0  0  0  0  0  0  0  0  0  0  0
   -3.1797    0.0445    1.7743 H   0  0  0  0  0  0  0  0  0  0  0  0
   -3.1462    2.1599    3.0941 H   0  0  0  0  0  0  0  0  0  0  0  0
   -4.7005    1.9384    2.2448 H   0  0  0  0  0  0  0  0  0  0  0  0
   -2.6780    3.8136    1.8064 H   0  0  0  0  0  0  0  0  0  0  0  0
   -1.3140    2.1695    0.5387 H   0  0  0  0  0  0  0  0  0  0  0  0
   -0.8940    0.0174    2.4110 H   0  0  0  0  0  0  0  0  0  0  0  0
   -1.5046   -0.9021    0.2696 H   0  0  0  0  0  0  0  0  0  0  0  0
    0.5302   -1.5263   -0.1436 H   0  0  0  0  0  0  0  0  0  0  0  0
    2.1241   -1.7025    1.5164 H   0  0  0  0  0  0  0  0  0  0  0  0
    3.8798   -0.7456    2.9658 H   0  0  0  0  0  0  0  0  0  0  0  0
    2.3025    0.0413    3.2248 H   0  0  0  0  0  0  0  0  0  0  0  0
    4.6399    1.0600    2.0731 H   0  0  0  0  0  0  0  0  0  0  0  0
    4.1576    0.0131   -0.0906 H   0  0  0  0  0  0  0  0  0  0  0  0
    4.2790   -2.6681    0.9095 H   0  0  0  0  0  0  0  0  0  0  0  0
    2.6608   -2.5618   -0.8593 H   0  0  0  0  0  0  0  0  0  0  0  0
    4.4514   -0.8637   -2.3134 H   0  0  0  0  0  0  0  0  0  0  0  0
    1.3937   -1.2086   -2.4316 H   0  0  0  0  0  0  0  0  0  0  0  0
    2.6002    1.1383   -1.3344 H   0  0  0  0  0  0  0  0  0  0  0  0
  1  2  1  0  0  0  0
  1 24  1  0  0  0  0
  2  3  1  0  0  0  0
  2 25  1  0  0  0  0
  2 26  1  0  0  0  0
  3 27  1  0  0  0  0
  3 28  1  0  0  0  0
  4  3  1  0  0  0  0
  4  5  1  0  0  0  0
  4 29  1  6  0  0  0
  5  6  1  0  0  0  0
  5 30  1  0  0  0  0
  6  7  1  0  0  0  0
  6  9  1  0  0  0  0
  6 31  1  1  0  0  0
  7  8  1  0  0  0  0
  7 32  1  0  0  0  0
  7 33  1  0  0  0  0
  8 34  1  0  0  0  0
  9 10  1  0  0  0  0
  9 11  1  0  0  0  0
  9 35  1  6  0  0  0
 10 36  1  0  0  0  0
 11 12  1  0  0  0  0
 11  4  1  0  0  0  0
 11 37  1  1  0  0  0
 13 12  1  0  0  0  0
 13 14  1  0  0  0  0
 13 38  1  1  0  0  0
 14 15  1  0  0  0  0
 15 16  1  0  0  0  0
 15 18  1  0  0  0  0
 15 39  1  1  0  0  0
 16 17  1  0  0  0  0
 16 40  1  0  0  0  0
 16 41  1  0  0  0  0
 17 42  1  0  0  0  0
 18 19  1  0  0  0  0
 18 20  1  0  0  0  0
 18 43  1  6  0  0  0
 19 44  1  0  0  0  0
 20 21  1  0  0  0  0
 20 22  1  0  0  0  0
 20 45  1  1  0  0  0
 21 46  1  0  0  0  0
 22 23  1  0  0  0  0
 22 13  1  0  0  0  0
 22 47  1  6  0  0  0
 23 48  1  0  0  0  0
M  END
>  <IDENTIFIER>
CNP0294350.1

>  <Energy>
471.738

$$$$
