
 OpenBabel09092514433D

 80 85  0  0  0  0  0  0  0  0999 V2000
   -7.2493   -3.1998    1.4575 C   0  0  0  0  0  0  0  0  0  0  0  0
   -6.6663   -2.0795    0.6625 C   0  0  0  0  0  0  0  0  0  0  0  0
   -7.2150   -1.7240   -0.3719 O   0  0  0  0  0  0  0  0  0  0  0  0
   -5.5332   -1.4666    1.1045 O   0  0  0  0  0  0  0  0  0  0  0  0
   -4.8737   -0.4423    0.4437 C   0  0  1  0  0  0  0  0  0  0  0  0
   -4.8054    0.8126    1.3000 C   0  0  0  0  0  0  0  0  0  0  0  0
   -3.5523    1.5825    0.8232 C   0  0  2  0  0  0  0  0  0  0  0  0
   -3.8868    2.8404    0.3453 O   0  0  0  0  0  0  0  0  0  0  0  0
   -3.4333    4.0286    0.8206 C   0  0  0  0  0  0  0  0  0  0  0  0
   -3.8904    5.2954    0.1726 C   0  0  0  0  0  0  0  0  0  0  0  0
   -2.6529    4.0800    1.7600 O   0  0  0  0  0  0  0  0  0  0  0  0
   -2.8508    0.6814   -0.2734 C   0  0  2  0  0  0  0  0  0  0  0  0
   -3.3675    1.1704   -1.6752 C   0  0  0  0  0  0  0  0  0  0  0  0
   -3.3889   -0.7389    0.1661 C   0  0  2  0  0  0  0  0  0  0  0  0
   -3.1753   -2.0211   -0.7313 C   0  0  2  0  0  0  0  0  0  0  0  0
   -3.0948   -3.2892    0.1339 C   0  0  0  0  0  0  0  0  0  0  0  0
   -1.9936   -1.9839   -1.7268 C   0  0  0  0  0  0  0  0  0  0  0  0
   -0.5973   -1.5454   -1.2622 C   0  0  2  0  0  0  0  0  0  0  0  0
    0.2578   -2.5492   -0.8603 O   0  0  0  0  0  0  0  0  0  0  0  0
    1.3038   -1.9679   -0.2218 C   0  0  0  0  0  0  0  0  0  0  0  0
    2.3603   -2.5441   -0.0201 O   0  0  0  0  0  0  0  0  0  0  0  0
    1.0345   -0.5304    0.1313 C   0  0  1  0  0  0  0  0  0  0  0  0
    1.8058    0.4546   -0.7843 C   0  0  0  0  0  0  0  0  0  0  0  0
    3.2812    0.4510   -0.6090 N   0  0  0  0  0  0  0  0  0  0  0  0
    3.8443    1.3184   -1.6717 C   0  0  0  0  0  0  0  0  0  0  0  0
    5.3688    1.5194   -1.5606 C   0  0  1  0  0  0  0  0  0  0  0  0
    5.6955    2.1291   -0.2035 C   0  0  0  0  0  0  0  0  0  0  0  0
    5.1911    1.1463    0.8569 C   0  0  1  0  0  0  0  0  0  0  0  0
    3.6623    0.9690    0.7289 C   0  0  0  0  0  0  0  0  0  0  0  0
    5.8897   -0.1856    0.6927 C   0  0  0  0  0  0  0  0  0  0  0  0
    6.1197   -0.9708    1.8326 C   0  0  0  0  0  0  0  0  0  0  0  0
    6.8004   -2.1782    1.7188 C   0  0  0  0  0  0  0  0  0  0  0  0
    7.2497   -2.6040    0.4750 C   0  0  0  0  0  0  0  0  0  0  0  0
    7.0146   -1.8132   -0.6532 C   0  0  0  0  0  0  0  0  0  0  0  0
    7.4292   -2.1962   -1.7357 O   0  0  0  0  0  0  0  0  0  0  0  0
    6.3332   -0.6098   -0.5400 N   0  0  0  0  0  0  0  0  0  0  0  0
    6.1761    0.2175   -1.7603 C   0  0  0  0  0  0  0  0  0  0  0  0
   -0.4927   -0.5455   -0.1149 C   0  0  1  0  0  0  0  0  0  0  0  0
   -1.2518    0.8082   -0.2516 C   0  0  2  0  0  0  0  0  0  0  0  0
   -0.8174    1.6962    0.7526 O   0  0  0  0  0  0  0  0  0  0  0  0
   -8.1699   -3.5885    0.9717 H   0  0  0  0  0  0  0  0  0  0  0  0
   -7.5040   -2.8397    2.4753 H   0  0  0  0  0  0  0  0  0  0  0  0
   -6.5084   -4.0234    1.5334 H   0  0  0  0  0  0  0  0  0  0  0  0
   -5.3783   -0.2040   -0.5123 H   0  0  0  0  0  0  0  0  0  0  0  0
   -4.5904    0.4669    2.3399 H   0  0  0  0  0  0  0  0  0  0  0  0
   -5.7492    1.3963    1.3461 H   0  0  0  0  0  0  0  0  0  0  0  0
   -2.9353    1.6601    1.7439 H   0  0  0  0  0  0  0  0  0  0  0  0
   -4.5920    5.0690   -0.6587 H   0  0  0  0  0  0  0  0  0  0  0  0
   -3.0161    5.8433   -0.2363 H   0  0  0  0  0  0  0  0  0  0  0  0
   -4.4097    5.9327    0.9179 H   0  0  0  0  0  0  0  0  0  0  0  0
   -4.4686    1.2096   -1.7631 H   0  0  0  0  0  0  0  0  0  0  0  0
   -2.9878    0.6157   -2.5376 H   0  0  0  0  0  0  0  0  0  0  0  0
   -3.0155    2.2096   -1.8534 H   0  0  0  0  0  0  0  0  0  0  0  0
   -2.9264   -0.9472    1.1577 H   0  0  0  0  0  0  0  0  0  0  0  0
   -4.0689   -2.1284   -1.3870 H   0  0  0  0  0  0  0  0  0  0  0  0
   -2.1946   -3.2597    0.7839 H   0  0  0  0  0  0  0  0  0  0  0  0
   -3.0350   -4.1914   -0.5119 H   0  0  0  0  0  0  0  0  0  0  0  0
   -3.9910   -3.3966    0.7755 H   0  0  0  0  0  0  0  0  0  0  0  0
   -2.2862   -1.2614   -2.4928 H   0  0  0  0  0  0  0  0  0  0  0  0
   -1.9182   -2.9254   -2.3136 H   0  0  0  0  0  0  0  0  0  0  0  0
   -0.1370   -1.1129   -2.1819 H   0  0  0  0  0  0  0  0  0  0  0  0
    1.2131   -0.2962    1.2011 H   0  0  0  0  0  0  0  0  0  0  0  0
    1.4198    1.4815   -0.5978 H   0  0  0  0  0  0  0  0  0  0  0  0
    1.5674    0.2107   -1.8415 H   0  0  0  0  0  0  0  0  0  0  0  0
    3.3685    2.3272   -1.6310 H   0  0  0  0  0  0  0  0  0  0  0  0
    3.6196    0.8857   -2.6722 H   0  0  0  0  0  0  0  0  0  0  0  0
    5.6499    2.2164   -2.3813 H   0  0  0  0  0  0  0  0  0  0  0  0
    5.1863    3.1115   -0.0844 H   0  0  0  0  0  0  0  0  0  0  0  0
    6.7909    2.2955   -0.1033 H   0  0  0  0  0  0  0  0  0  0  0  0
    5.4219    1.5714    1.8592 H   0  0  0  0  0  0  0  0  0  0  0  0
    3.1736    1.9518    0.9196 H   0  0  0  0  0  0  0  0  0  0  0  0
    3.3350    0.2624    1.5205 H   0  0  0  0  0  0  0  0  0  0  0  0
    5.7848   -0.6412    2.8086 H   0  0  0  0  0  0  0  0  0  0  0  0
    6.9884   -2.7807    2.5979 H   0  0  0  0  0  0  0  0  0  0  0  0
    7.7870   -3.5408    0.3887 H   0  0  0  0  0  0  0  0  0  0  0  0
    5.7229   -0.3665   -2.5918 H   0  0  0  0  0  0  0  0  0  0  0  0
    7.2031    0.5066   -2.0765 H   0  0  0  0  0  0  0  0  0  0  0  0
   -0.8790   -1.0625    0.7884 H   0  0  0  0  0  0  0  0  0  0  0  0
   -0.9033    1.2627   -1.2040 H   0  0  0  0  0  0  0  0  0  0  0  0
   -0.7734    1.2003    1.6130 H   0  0  0  0  0  0  0  0  0  0  0  0
  1  2  1  0  0  0  0
  1 41  1  0  0  0  0
  1 42  1  0  0  0  0
  1 43  1  0  0  0  0
  2  3  2  0  0  0  0
  2  4  1  0  0  0  0
  5  4  1  0  0  0  0
  5  6  1  0  0  0  0
  5 44  1  6  0  0  0
  6  7  1  0  0  0  0
  6 45  1  0  0  0  0
  6 46  1  0  0  0  0
  7  8  1  0  0  0  0
  7 12  1  0  0  0  0
  7 47  1  1  0  0  0
  8  9  1  0  0  0  0
  9 10  1  0  0  0  0
  9 11  2  0  0  0  0
 10 48  1  0  0  0  0
 10 49  1  0  0  0  0
 10 50  1  0  0  0  0
 12 13  1  6  0  0  0
 12 14  1  0  0  0  0
 13 51  1  0  0  0  0
 13 52  1  0  0  0  0
 13 53  1  0  0  0  0
 14 15  1  0  0  0  0
 14  5  1  0  0  0  0
 14 54  1  1  0  0  0
 15 16  1  0  0  0  0
 15 17  1  0  0  0  0
 15 55  1  6  0  0  0
 16 56  1  0  0  0  0
 16 57  1  0  0  0  0
 16 58  1  0  0  0  0
 17 59  1  0  0  0  0
 17 60  1  0  0  0  0
 18 17  1  0  0  0  0
 18 19  1  0  0  0  0
 18 61  1  6  0  0  0
 19 20  1  0  0  0  0
 20 21  2  0  0  0  0
 20 22  1  0  0  0  0
 22 23  1  0  0  0  0
 22 62  1  1  0  0  0
 23 24  1  0  0  0  0
 23 63  1  0  0  0  0
 23 64  1  0  0  0  0
 24 25  1  0  0  0  0
 25 65  1  0  0  0  0
 25 66  1  0  0  0  0
 26 25  1  0  0  0  0
 26 27  1  0  0  0  0
 26 67  1  6  0  0  0
 27 28  1  0  0  0  0
 27 68  1  0  0  0  0
 27 69  1  0  0  0  0
 28 29  1  0  0  0  0
 28 30  1  0  0  0  0
 28 70  1  1  0  0  0
 29 24  1  0  0  0  0
 29 71  1  0  0  0  0
 29 72  1  0  0  0  0
 30 31  2  0  0  0  0
 31 32  1  0  0  0  0
 31 73  1  0  0  0  0
 32 33  2  0  0  0  0
 32 74  1  0  0  0  0
 33 34  1  0  0  0  0
 33 75  1  0  0  0  0
 34 35  2  0  0  0  0
 34 36  1  0  0  0  0
 36 37  1  0  0  0  0
 36 30  1  0  0  0  0
 37 26  1  0  0  0  0
 37 76  1  0  0  0  0
 37 77  1  0  0  0  0
 38 22  1  0  0  0  0
 38 39  1  0  0  0  0
 38 18  1  0  0  0  0
 38 78  1  1  0  0  0
 39 40  1  0  0  0  0
 39 12  1  0  0  0  0
 39 79  1  6  0  0  0
 40 80  1  0  0  0  0
M  END
>  <IDENTIFIER>
CNP0358375.1

>  <Energy>
1051.45

$$$$
