
 OpenBabel09062502473D

 52 54  0  0  0  0  0  0  0  0999 V2000
   -2.7084   -2.7485    0.7094 C   0  0  0  0  0  0  0  0  0  0  0  0
   -3.2874   -1.9385   -0.4575 C   0  0  0  0  0  0  0  0  0  0  0  0
   -2.5291   -0.6108   -0.7499 C   0  0  1  0  0  0  0  0  0  0  0  0
   -1.1033   -0.9275   -1.1948 C   0  0  0  0  0  0  0  0  0  0  0  0
   -0.7976   -0.8100   -2.3736 O   0  0  0  0  0  0  0  0  0  0  0  0
   -0.1738   -1.2738   -0.2635 O   0  0  0  0  0  0  0  0  0  0  0  0
    1.1858   -0.9747   -0.2362 C   0  0  1  0  0  0  0  0  0  0  0  0
    2.0436   -2.1893    0.0907 C   0  0  0  0  0  0  0  0  0  0  0  0
    3.5117   -1.7590    0.2065 C   0  0  0  0  0  0  0  0  0  0  0  0
    3.6306   -0.5482    1.0736 N   0  0  0  0  0  0  0  0  0  0  0  0
    4.4904   -0.8407    2.2321 C   0  0  0  0  0  0  0  0  0  0  0  0
    4.1354    0.6360    0.3229 C   0  0  0  0  0  0  0  0  0  0  0  0
    3.0867    1.5382   -0.3496 C   0  0  0  0  0  0  0  0  0  0  0  0
    2.1001    1.1811   -1.2161 C   0  0  0  0  0  0  0  0  0  0  0  0
    1.2659    2.2257   -1.9382 C   0  0  0  0  0  0  0  0  0  0  0  0
   -0.0957    2.0147   -1.7487 O   0  0  0  0  0  0  0  0  0  0  0  0
   -0.7327    2.0306   -0.5477 C   0  0  0  0  0  0  0  0  0  0  0  0
   -0.0982    2.2439    0.4778 O   0  0  0  0  0  0  0  0  0  0  0  0
   -2.2374    1.7955   -0.4465 C   0  0  1  0  0  0  0  0  0  0  0  0
   -2.8518    3.0866    0.1359 C   0  0  0  0  0  0  0  0  0  0  0  0
   -2.8025    1.5431   -1.6898 O   0  0  0  0  0  0  0  0  0  0  0  0
   -3.1476    0.2410   -1.8209 C   0  0  0  0  0  0  0  0  0  0  0  0
   -3.9694   -0.1431   -2.6380 O   0  0  0  0  0  0  0  0  0  0  0  0
   -2.5442    0.4801    0.3720 C   0  0  1  0  0  0  0  0  0  0  0  0
   -3.9377    0.5567    1.0585 C   0  0  0  0  0  0  0  0  0  0  0  0
    1.7223   -0.2164   -1.4419 C   0  0  0  0  0  0  0  0  0  0  0  0
    1.7117   -0.6918   -2.5677 O   0  0  0  0  0  0  0  0  0  0  0  0
   -3.3272   -3.6566    0.8680 H   0  0  0  0  0  0  0  0  0  0  0  0
   -2.7074   -2.1581    1.6477 H   0  0  0  0  0  0  0  0  0  0  0  0
   -1.6744   -3.0828    0.4938 H   0  0  0  0  0  0  0  0  0  0  0  0
   -4.3548   -1.7250   -0.2406 H   0  0  0  0  0  0  0  0  0  0  0  0
   -3.2700   -2.5776   -1.3675 H   0  0  0  0  0  0  0  0  0  0  0  0
    1.2711   -0.3006    0.6433 H   0  0  0  0  0  0  0  0  0  0  0  0
    1.9431   -2.9798   -0.6844 H   0  0  0  0  0  0  0  0  0  0  0  0
    1.7008   -2.6020    1.0650 H   0  0  0  0  0  0  0  0  0  0  0  0
    3.8942   -1.5662   -0.8203 H   0  0  0  0  0  0  0  0  0  0  0  0
    4.1055   -2.6263    0.5765 H   0  0  0  0  0  0  0  0  0  0  0  0
    4.0859   -1.7080    2.7984 H   0  0  0  0  0  0  0  0  0  0  0  0
    4.5044    0.0241    2.9290 H   0  0  0  0  0  0  0  0  0  0  0  0
    5.5304   -1.0684    1.9076 H   0  0  0  0  0  0  0  0  0  0  0  0
    4.8789    0.3221   -0.4420 H   0  0  0  0  0  0  0  0  0  0  0  0
    4.7073    1.3120    0.9984 H   0  0  0  0  0  0  0  0  0  0  0  0
    3.2339    2.6011   -0.1763 H   0  0  0  0  0  0  0  0  0  0  0  0
    1.4691    2.1377   -3.0257 H   0  0  0  0  0  0  0  0  0  0  0  0
    1.5385    3.2584   -1.6283 H   0  0  0  0  0  0  0  0  0  0  0  0
   -2.5901    3.9536   -0.5091 H   0  0  0  0  0  0  0  0  0  0  0  0
   -2.4720    3.2799    1.1621 H   0  0  0  0  0  0  0  0  0  0  0  0
   -3.9600    3.0355    0.1623 H   0  0  0  0  0  0  0  0  0  0  0  0
   -1.8258    0.2896    1.2002 H   0  0  0  0  0  0  0  0  0  0  0  0
   -4.7504    0.7460    0.3250 H   0  0  0  0  0  0  0  0  0  0  0  0
   -3.9492    1.3595    1.8247 H   0  0  0  0  0  0  0  0  0  0  0  0
   -4.1689   -0.3764    1.6080 H   0  0  0  0  0  0  0  0  0  0  0  0
  1  2  1  0  0  0  0
  1 28  1  0  0  0  0
  1 29  1  0  0  0  0
  1 30  1  0  0  0  0
  2 31  1  0  0  0  0
  2 32  1  0  0  0  0
  3  2  1  1  0  0  0
  3  4  1  0  0  0  0
  4  5  2  0  0  0  0
  4  6  1  0  0  0  0
  6  7  1  0  0  0  0
  7  8  1  0  0  0  0
  7 33  1  1  0  0  0
  8  9  1  0  0  0  0
  8 34  1  0  0  0  0
  8 35  1  0  0  0  0
  9 10  1  0  0  0  0
  9 36  1  0  0  0  0
  9 37  1  0  0  0  0
 10 11  1  0  0  0  0
 10 12  1  0  0  0  0
 11 38  1  0  0  0  0
 11 39  1  0  0  0  0
 11 40  1  0  0  0  0
 12 13  1  0  0  0  0
 12 41  1  0  0  0  0
 12 42  1  0  0  0  0
 13 14  2  0  0  0  0
 13 43  1  0  0  0  0
 14 15  1  0  0  0  0
 14 26  1  0  0  0  0
 15 16  1  0  0  0  0
 15 44  1  0  0  0  0
 15 45  1  0  0  0  0
 16 17  1  0  0  0  0
 17 18  2  0  0  0  0
 17 19  1  0  0  0  0
 19 20  1  1  0  0  0
 19 21  1  0  0  0  0
 19 24  1  0  0  0  0
 20 46  1  0  0  0  0
 20 47  1  0  0  0  0
 20 48  1  0  0  0  0
 21 22  1  0  0  0  0
 22 23  2  0  0  0  0
 22  3  1  0  0  0  0
 24 25  1  0  0  0  0
 24  3  1  0  0  0  0
 24 49  1  1  0  0  0
 25 50  1  0  0  0  0
 25 51  1  0  0  0  0
 25 52  1  0  0  0  0
 26 27  2  0  0  0  0
 26  7  1  0  0  0  0
M  END
>  <IDENTIFIER>
CNP0256755.2

>  <Energy>
706.608

$$$$
