
 OpenBabel09072516573D

 41 43  0  0  0  0  0  0  0  0999 V2000
   -3.6562   -1.4030   -1.5937 C   0  0  0  0  0  0  0  0  0  0  0  0
   -3.0406   -0.8012   -0.5697 C   0  0  0  0  0  0  0  0  0  0  0  0
   -3.3505   -1.0304    0.8746 C   0  0  0  0  0  0  0  0  0  0  0  0
   -2.4298   -0.2318    1.6061 O   0  0  0  0  0  0  0  0  0  0  0  0
   -2.0970    0.8211    0.7195 C   0  0  1  0  0  0  0  0  0  0  0  0
   -3.1908    1.7165    0.6623 O   0  0  0  0  0  0  0  0  0  0  0  0
   -0.8583    1.6238    1.1631 C   0  0  0  0  0  0  0  0  0  0  0  0
    0.4999    1.0221    0.8619 C   0  0  0  0  0  0  0  0  0  0  0  0
    1.5545    1.4806    1.5719 C   0  0  0  0  0  0  0  0  0  0  0  0
    2.9539    1.1380    1.1654 C   0  0  0  0  0  0  0  0  0  0  0  0
    3.1048   -0.3432    0.7900 C   0  0  2  0  0  0  0  0  0  0  0  0
    4.3070   -0.5372    0.0851 O   0  0  0  0  0  0  0  0  0  0  0  0
    1.8466   -0.9502    0.0586 C   0  0  2  0  0  0  0  0  0  0  0  0
    2.2309   -1.9633   -1.0398 C   0  0  0  0  0  0  0  0  0  0  0  0
    0.7305    0.1031   -0.3517 C   0  0  2  0  0  0  0  0  0  0  0  0
    1.1229    0.9349   -1.5983 C   0  0  0  0  0  0  0  0  0  0  0  0
   -0.5846   -0.6813   -0.6572 C   0  0  0  0  0  0  0  0  0  0  0  0
   -1.9004    0.1486   -0.6431 C   0  0  1  0  0  0  0  0  0  0  0  0
   -2.0003    1.0880   -1.6842 O   0  0  0  0  0  0  0  0  0  0  0  0
   -4.4672   -2.1003   -1.4093 H   0  0  0  0  0  0  0  0  0  0  0  0
   -3.3591   -1.2064   -2.6179 H   0  0  0  0  0  0  0  0  0  0  0  0
   -3.1900   -2.1014    1.1204 H   0  0  0  0  0  0  0  0  0  0  0  0
   -4.3962   -0.7348    1.1095 H   0  0  0  0  0  0  0  0  0  0  0  0
   -3.4183    1.9656    1.5968 H   0  0  0  0  0  0  0  0  0  0  0  0
   -0.9637    1.9170    2.2315 H   0  0  0  0  0  0  0  0  0  0  0  0
   -0.8577    2.5733    0.5832 H   0  0  0  0  0  0  0  0  0  0  0  0
    1.4110    2.1531    2.4134 H   0  0  0  0  0  0  0  0  0  0  0  0
    3.7050    1.4649    1.9155 H   0  0  0  0  0  0  0  0  0  0  0  0
    3.1629    1.7495    0.2705 H   0  0  0  0  0  0  0  0  0  0  0  0
    3.2073   -0.9092    1.7439 H   0  0  0  0  0  0  0  0  0  0  0  0
    4.2471   -0.0170   -0.7576 H   0  0  0  0  0  0  0  0  0  0  0  0
    1.3653   -1.5557    0.8618 H   0  0  0  0  0  0  0  0  0  0  0  0
    2.7258   -1.4545   -1.8926 H   0  0  0  0  0  0  0  0  0  0  0  0
    1.3446   -2.5079   -1.4198 H   0  0  0  0  0  0  0  0  0  0  0  0
    2.9302   -2.7215   -0.6274 H   0  0  0  0  0  0  0  0  0  0  0  0
    1.2103    0.2791   -2.4900 H   0  0  0  0  0  0  0  0  0  0  0  0
    2.0847    1.4593   -1.4963 H   0  0  0  0  0  0  0  0  0  0  0  0
    0.3612    1.7081   -1.8179 H   0  0  0  0  0  0  0  0  0  0  0  0
   -0.6964   -1.4439    0.1465 H   0  0  0  0  0  0  0  0  0  0  0  0
   -0.5052   -1.2461   -1.6108 H   0  0  0  0  0  0  0  0  0  0  0  0
   -1.8448    0.6032   -2.5357 H   0  0  0  0  0  0  0  0  0  0  0  0
  1  2  2  0  0  0  0
  1 20  1  0  0  0  0
  1 21  1  0  0  0  0
  2  3  1  0  0  0  0
  3  4  1  0  0  0  0
  3 22  1  0  0  0  0
  3 23  1  0  0  0  0
  4  5  1  0  0  0  0
  5  6  1  6  0  0  0
  5  7  1  0  0  0  0
  6 24  1  0  0  0  0
  7  8  1  0  0  0  0
  7 25  1  0  0  0  0
  7 26  1  0  0  0  0
  8  9  2  0  0  0  0
  9 10  1  0  0  0  0
  9 27  1  0  0  0  0
 10 11  1  0  0  0  0
 10 28  1  0  0  0  0
 10 29  1  0  0  0  0
 11 12  1  0  0  0  0
 11 13  1  0  0  0  0
 11 30  1  1  0  0  0
 12 31  1  0  0  0  0
 13 14  1  0  0  0  0
 13 15  1  0  0  0  0
 13 32  1  1  0  0  0
 14 33  1  0  0  0  0
 14 34  1  0  0  0  0
 14 35  1  0  0  0  0
 15 16  1  6  0  0  0
 15 17  1  0  0  0  0
 15  8  1  0  0  0  0
 16 36  1  0  0  0  0
 16 37  1  0  0  0  0
 16 38  1  0  0  0  0
 17 18  1  0  0  0  0
 17 39  1  0  0  0  0
 17 40  1  0  0  0  0
 18 19  1  6  0  0  0
 18  2  1  0  0  0  0
 18  5  1  0  0  0  0
 19 41  1  0  0  0  0
M  END
>  <IDENTIFIER>
CNP0526193.1

>  <Energy>
551.967

$$$$
