
 OpenBabel09102513293D

 43 45  0  0  0  0  0  0  0  0999 V2000
   -3.3988   -1.6454    3.3347 C   0  0  0  0  0  0  0  0  0  0  0  0
   -3.7894   -1.4689    2.0235 O   0  0  0  0  0  0  0  0  0  0  0  0
   -3.0356   -0.9172    1.0358 C   0  0  0  0  0  0  0  0  0  0  0  0
   -1.7299   -0.4327    1.2638 C   0  0  0  0  0  0  0  0  0  0  0  0
   -0.9787    0.1199    0.2139 C   0  0  0  0  0  0  0  0  0  0  0  0
    0.4312    0.6166    0.4633 C   0  0  1  0  0  0  0  0  0  0  0  0
    1.4358   -0.1070   -0.4243 C   0  0  0  0  0  0  0  0  0  0  0  0
    1.6349   -1.5904   -0.3502 C   0  0  0  0  0  0  0  0  0  0  0  0
    0.7321   -2.2556    0.1339 O   0  0  0  0  0  0  0  0  0  0  0  0
    2.8592   -2.3300   -0.7383 C   0  0  0  0  0  0  0  0  0  0  0  0
    4.1345   -1.8362   -0.9551 C   0  0  0  0  0  0  0  0  0  0  0  0
    4.9206   -2.9289   -1.2428 C   0  0  0  0  0  0  0  0  0  0  0  0
    4.0927   -4.0274   -1.1691 C   0  0  0  0  0  0  0  0  0  0  0  0
    2.8779   -3.6406   -0.8555 O   0  0  0  0  0  0  0  0  0  0  0  0
    2.0134    0.8000   -1.2384 C   0  0  0  0  0  0  0  0  0  0  0  0
    2.8804    0.5847   -2.2507 O   0  0  0  0  0  0  0  0  0  0  0  0
    1.4902    2.1091   -0.8981 C   0  0  0  0  0  0  0  0  0  0  0  0
    1.8405    3.1594   -1.4134 O   0  0  0  0  0  0  0  0  0  0  0  0
    0.5693    2.0081    0.0793 N   0  0  0  0  0  0  0  0  0  0  0  0
   -0.1586    3.1077    0.6994 C   0  0  0  0  0  0  0  0  0  0  0  0
   -1.1698    3.7585   -0.2573 C   0  0  0  0  0  0  0  0  0  0  0  0
   -0.5467    4.3429   -1.3668 O   0  0  0  0  0  0  0  0  0  0  0  0
   -1.5432    0.1916   -1.0703 C   0  0  0  0  0  0  0  0  0  0  0  0
   -2.8342   -0.2813   -1.3013 C   0  0  0  0  0  0  0  0  0  0  0  0
   -3.5822   -0.8366   -0.2543 C   0  0  0  0  0  0  0  0  0  0  0  0
   -4.8288   -1.3003   -0.4805 O   0  0  0  0  0  0  0  0  0  0  0  0
   -4.2256   -2.1254    3.8972 H   0  0  0  0  0  0  0  0  0  0  0  0
   -3.1731   -0.6643    3.8039 H   0  0  0  0  0  0  0  0  0  0  0  0
   -2.5075   -2.3070    3.3834 H   0  0  0  0  0  0  0  0  0  0  0  0
   -1.2902   -0.4897    2.2504 H   0  0  0  0  0  0  0  0  0  0  0  0
    0.7234    0.4913    1.5295 H   0  0  0  0  0  0  0  0  0  0  0  0
    4.4740   -0.8121   -0.8957 H   0  0  0  0  0  0  0  0  0  0  0  0
    5.9785   -2.9284   -1.4676 H   0  0  0  0  0  0  0  0  0  0  0  0
    4.3842   -5.0565   -1.3301 H   0  0  0  0  0  0  0  0  0  0  0  0
    3.0670   -0.2908   -2.6076 H   0  0  0  0  0  0  0  0  0  0  0  0
    0.5569    3.8616    1.0929 H   0  0  0  0  0  0  0  0  0  0  0  0
   -0.7421    2.7146    1.5603 H   0  0  0  0  0  0  0  0  0  0  0  0
   -1.7631    4.5268    0.2887 H   0  0  0  0  0  0  0  0  0  0  0  0
   -1.8923    2.9953   -0.6142 H   0  0  0  0  0  0  0  0  0  0  0  0
   -0.1698    5.2076   -1.0576 H   0  0  0  0  0  0  0  0  0  0  0  0
   -0.9806    0.6125   -1.8943 H   0  0  0  0  0  0  0  0  0  0  0  0
   -3.2519   -0.2190   -2.2983 H   0  0  0  0  0  0  0  0  0  0  0  0
   -5.2393   -1.2683   -1.3566 H   0  0  0  0  0  0  0  0  0  0  0  0
  1  2  1  0  0  0  0
  1 27  1  0  0  0  0
  1 28  1  0  0  0  0
  1 29  1  0  0  0  0
  2  3  1  0  0  0  0
  3  4  2  0  0  0  0
  4  5  1  0  0  0  0
  4 30  1  0  0  0  0
  5 23  2  0  0  0  0
  6  5  1  0  0  0  0
  6  7  1  0  0  0  0
  6 31  1  1  0  0  0
  7  8  1  0  0  0  0
  7 15  2  0  0  0  0
  8  9  2  0  0  0  0
  8 10  1  0  0  0  0
 10 11  2  0  0  0  0
 11 12  1  0  0  0  0
 11 32  1  0  0  0  0
 12 13  2  0  0  0  0
 12 33  1  0  0  0  0
 13 14  1  0  0  0  0
 13 34  1  0  0  0  0
 14 10  1  0  0  0  0
 15 16  1  0  0  0  0
 15 17  1  0  0  0  0
 16 35  1  0  0  0  0
 17 18  2  0  0  0  0
 17 19  1  0  0  0  0
 19 20  1  0  0  0  0
 19  6  1  0  0  0  0
 20 21  1  0  0  0  0
 20 36  1  0  0  0  0
 20 37  1  0  0  0  0
 21 22  1  0  0  0  0
 21 38  1  0  0  0  0
 21 39  1  0  0  0  0
 22 40  1  0  0  0  0
 23 24  1  0  0  0  0
 23 41  1  0  0  0  0
 24 25  2  0  0  0  0
 24 42  1  0  0  0  0
 25 26  1  0  0  0  0
 25  3  1  0  0  0  0
 26 43  1  0  0  0  0
M  END
>  <IDENTIFIER>
CNP0244466.2

>  <Energy>
452.631

$$$$
