
 OpenBabel09052521313D

 90 92  0  0  0  0  0  0  0  0999 V2000
    1.8468    0.8762    2.6400 C   0  0  0  0  0  0  0  0  0  0  0  0
    1.7443    1.2197    1.1667 C   0  0  0  0  0  0  0  0  0  0  0  0
    1.3521    0.3453    0.1997 C   0  0  0  0  0  0  0  0  0  0  0  0
    0.9408   -1.1062    0.3744 C   0  0  0  0  0  0  0  0  0  0  0  0
   -0.4378   -1.3977   -0.2647 C   0  0  0  0  0  0  0  0  0  0  0  0
   -1.6890   -0.7396    0.3296 C   0  0  0  0  0  0  0  0  0  0  0  0
   -2.9683   -1.0385   -0.3923 C   0  0  0  0  0  0  0  0  0  0  0  0
   -1.6226    0.0450    1.4343 C   0  0  0  0  0  0  0  0  0  0  0  0
   -2.6362    0.8416    2.2456 C   0  0  0  0  0  0  0  0  0  0  0  0
   -4.1731    1.0310    1.9945 C   0  0  1  0  0  0  0  0  0  0  0  0
   -4.6557    1.8496    3.0397 O   0  0  0  0  0  0  0  0  0  0  0  0
   -4.4712    1.7405    0.7020 C   0  0  0  0  0  0  0  0  0  0  0  0
   -3.8510    2.7702    0.4715 O   0  0  0  0  0  0  0  0  0  0  0  0
   -5.5678    1.3051   -0.2157 C   0  0  0  0  0  0  0  0  0  0  0  0
   -6.3211    0.1195    0.0378 C   0  0  0  0  0  0  0  0  0  0  0  0
   -6.0146   -0.6971    1.1721 C   0  0  0  0  0  0  0  0  0  0  0  0
   -6.7682   -1.8930    1.3890 C   0  0  0  0  0  0  0  0  0  0  0  0
   -6.5378   -2.7531    2.4131 O   0  0  0  0  0  0  0  0  0  0  0  0
   -7.8147   -2.2418    0.5221 C   0  0  0  0  0  0  0  0  0  0  0  0
   -8.6194   -3.5056    0.7782 C   0  0  0  0  0  0  0  0  0  0  0  0
   -8.1317   -1.4308   -0.5833 C   0  0  0  0  0  0  0  0  0  0  0  0
   -9.1483   -1.8015   -1.3892 O   0  0  0  0  0  0  0  0  0  0  0  0
   -7.3945   -0.2442   -0.8569 C   0  0  0  0  0  0  0  0  0  0  0  0
   -7.6811    0.6118   -1.9818 C   0  0  0  0  0  0  0  0  0  0  0  0
   -8.7719    0.4607   -3.0361 C   0  0  0  0  0  0  0  0  0  0  0  0
   -6.9024    1.7479   -2.1899 C   0  0  0  0  0  0  0  0  0  0  0  0
   -5.8679    2.0992   -1.3420 C   0  0  0  0  0  0  0  0  0  0  0  0
   -5.1668    3.2231   -1.6126 O   0  0  0  0  0  0  0  0  0  0  0  0
   -4.9311   -0.2618    2.1326 C   0  0  0  0  0  0  0  0  0  0  0  0
   -4.7092   -0.8942    3.1506 O   0  0  0  0  0  0  0  0  0  0  0  0
    2.0986    2.6438    0.7590 C   0  0  0  0  0  0  0  0  0  0  0  0
    3.5682    3.0010    1.0350 C   0  0  0  0  0  0  0  0  0  0  0  0
    4.4751    2.0897    0.2337 C   0  0  0  0  0  0  0  0  0  0  0  0
    5.4711    1.2522    0.6463 C   0  0  0  0  0  0  0  0  0  0  0  0
    5.9752    1.0347    2.0758 C   0  0  0  0  0  0  0  0  0  0  0  0
    5.3620    1.8192    3.0548 O   0  0  0  0  0  0  0  0  0  0  0  0
    6.1425    0.3989   -0.4252 C   0  0  0  0  0  0  0  0  0  0  0  0
    7.6397    0.6982   -0.5683 C   0  0  0  0  0  0  0  0  0  0  0  0
    8.3708    0.0443   -1.7797 C   0  0  1  0  0  0  0  0  0  0  0  0
    9.6800    0.5635   -1.8149 O   0  0  0  0  0  0  0  0  0  0  0  0
    8.4218   -1.5271   -1.8981 C   0  0  0  0  0  0  0  0  0  0  0  0
    8.8423   -2.2002   -0.5705 C   0  0  0  0  0  0  0  0  0  0  0  0
    7.0771   -2.1303   -2.3544 C   0  0  0  0  0  0  0  0  0  0  0  0
    9.3401   -1.8649   -2.9154 O   0  0  0  0  0  0  0  0  0  0  0  0
    1.5741   -0.1587    2.8999 H   0  0  0  0  0  0  0  0  0  0  0  0
    1.1802    1.5504    3.2173 H   0  0  0  0  0  0  0  0  0  0  0  0
    2.8857    1.0206    2.9914 H   0  0  0  0  0  0  0  0  0  0  0  0
    1.3337    0.6957   -0.8289 H   0  0  0  0  0  0  0  0  0  0  0  0
    0.9426   -1.4692    1.4161 H   0  0  0  0  0  0  0  0  0  0  0  0
    1.6923   -1.7151   -0.1727 H   0  0  0  0  0  0  0  0  0  0  0  0
   -0.5945   -2.4979   -0.2283 H   0  0  0  0  0  0  0  0  0  0  0  0
   -0.3717   -1.1035   -1.3354 H   0  0  0  0  0  0  0  0  0  0  0  0
   -2.7888   -1.7063   -1.2621 H   0  0  0  0  0  0  0  0  0  0  0  0
   -3.4059   -0.1092   -0.7908 H   0  0  0  0  0  0  0  0  0  0  0  0
   -3.6604   -1.5753    0.2793 H   0  0  0  0  0  0  0  0  0  0  0  0
   -0.6543    0.1625    1.8845 H   0  0  0  0  0  0  0  0  0  0  0  0
   -2.2034    1.8665    2.2670 H   0  0  0  0  0  0  0  0  0  0  0  0
   -2.5362    0.4492    3.2817 H   0  0  0  0  0  0  0  0  0  0  0  0
   -4.1924    2.7287    3.0097 H   0  0  0  0  0  0  0  0  0  0  0  0
   -5.8360   -2.7569    3.0666 H   0  0  0  0  0  0  0  0  0  0  0  0
   -8.2964   -4.0781    1.6701 H   0  0  0  0  0  0  0  0  0  0  0  0
   -8.5318   -4.1899   -0.0920 H   0  0  0  0  0  0  0  0  0  0  0  0
   -9.6867   -3.2424    0.9381 H   0  0  0  0  0  0  0  0  0  0  0  0
   -9.7089   -2.5801   -1.2819 H   0  0  0  0  0  0  0  0  0  0  0  0
   -9.4715   -0.3765   -2.9859 H   0  0  0  0  0  0  0  0  0  0  0  0
   -8.2997    0.3961   -4.0396 H   0  0  0  0  0  0  0  0  0  0  0  0
   -9.4130    1.3687   -3.0144 H   0  0  0  0  0  0  0  0  0  0  0  0
   -7.1098    2.3927   -3.0382 H   0  0  0  0  0  0  0  0  0  0  0  0
   -5.3530    3.7882   -2.3762 H   0  0  0  0  0  0  0  0  0  0  0  0
    1.4385    3.3491    1.3084 H   0  0  0  0  0  0  0  0  0  0  0  0
    1.9094    2.8052   -0.3258 H   0  0  0  0  0  0  0  0  0  0  0  0
    3.7246    2.9996    2.1187 H   0  0  0  0  0  0  0  0  0  0  0  0
    3.7424    4.0444    0.6958 H   0  0  0  0  0  0  0  0  0  0  0  0
    4.2558    2.1218   -0.8307 H   0  0  0  0  0  0  0  0  0  0  0  0
    7.0727    1.2074    2.1242 H   0  0  0  0  0  0  0  0  0  0  0  0
    5.8186   -0.0305    2.3463 H   0  0  0  0  0  0  0  0  0  0  0  0
    5.8560    2.6808    3.0841 H   0  0  0  0  0  0  0  0  0  0  0  0
    5.6719    0.5599   -1.4200 H   0  0  0  0  0  0  0  0  0  0  0  0
    5.9883   -0.6499   -0.1218 H   0  0  0  0  0  0  0  0  0  0  0  0
    8.1695    0.4249    0.3667 H   0  0  0  0  0  0  0  0  0  0  0  0
    7.7392    1.7983   -0.7054 H   0  0  0  0  0  0  0  0  0  0  0  0
    7.8793    0.4187   -2.7046 H   0  0  0  0  0  0  0  0  0  0  0  0
   10.1336    0.3173   -0.9677 H   0  0  0  0  0  0  0  0  0  0  0  0
    8.0996   -1.9953    0.2290 H   0  0  0  0  0  0  0  0  0  0  0  0
    9.8339   -1.8386   -0.2290 H   0  0  0  0  0  0  0  0  0  0  0  0
    8.9096   -3.3014   -0.7025 H   0  0  0  0  0  0  0  0  0  0  0  0
    6.2589   -2.0294   -1.6304 H   0  0  0  0  0  0  0  0  0  0  0  0
    7.1972   -3.2218   -2.5280 H   0  0  0  0  0  0  0  0  0  0  0  0
    6.7566   -1.6715   -3.3141 H   0  0  0  0  0  0  0  0  0  0  0  0
   10.2626   -1.7383   -2.5705 H   0  0  0  0  0  0  0  0  0  0  0  0
  1  2  1  0  0  0  0
  1 45  1  0  0  0  0
  1 46  1  0  0  0  0
  1 47  1  0  0  0  0
  2  3  2  0  0  0  0
  2 31  1  0  0  0  0
  3  4  1  0  0  0  0
  3 48  1  0  0  0  0
  4  5  1  0  0  0  0
  4 49  1  0  0  0  0
  4 50  1  0  0  0  0
  5  6  1  0  0  0  0
  5 51  1  0  0  0  0
  5 52  1  0  0  0  0
  6  7  1  0  0  0  0
  6  8  2  0  0  0  0
  7 53  1  0  0  0  0
  7 54  1  0  0  0  0
  7 55  1  0  0  0  0
  8  9  1  0  0  0  0
  8 56  1  0  0  0  0
  9 10  1  0  0  0  0
  9 57  1  0  0  0  0
  9 58  1  0  0  0  0
 10 11  1  1  0  0  0
 10 12  1  0  0  0  0
 11 59  1  0  0  0  0
 12 13  2  0  0  0  0
 12 14  1  0  0  0  0
 14 15  1  0  0  0  0
 15 16  2  0  0  0  0
 16 17  1  0  0  0  0
 16 29  1  0  0  0  0
 17 18  1  0  0  0  0
 17 19  2  0  0  0  0
 18 60  1  0  0  0  0
 19 20  1  0  0  0  0
 19 21  1  0  0  0  0
 20 61  1  0  0  0  0
 20 62  1  0  0  0  0
 20 63  1  0  0  0  0
 21 22  1  0  0  0  0
 21 23  2  0  0  0  0
 22 64  1  0  0  0  0
 23 24  1  0  0  0  0
 23 15  1  0  0  0  0
 24 25  1  0  0  0  0
 24 26  2  0  0  0  0
 25 65  1  0  0  0  0
 25 66  1  0  0  0  0
 25 67  1  0  0  0  0
 26 27  1  0  0  0  0
 26 68  1  0  0  0  0
 27 28  1  0  0  0  0
 27 14  2  0  0  0  0
 28 69  1  0  0  0  0
 29 30  2  0  0  0  0
 29 10  1  0  0  0  0
 31 32  1  0  0  0  0
 31 70  1  0  0  0  0
 31 71  1  0  0  0  0
 32 33  1  0  0  0  0
 32 72  1  0  0  0  0
 32 73  1  0  0  0  0
 33 34  2  0  0  0  0
 33 74  1  0  0  0  0
 34 35  1  0  0  0  0
 34 37  1  0  0  0  0
 35 36  1  0  0  0  0
 35 75  1  0  0  0  0
 35 76  1  0  0  0  0
 36 77  1  0  0  0  0
 37 38  1  0  0  0  0
 37 78  1  0  0  0  0
 37 79  1  0  0  0  0
 38 39  1  0  0  0  0
 38 80  1  0  0  0  0
 38 81  1  0  0  0  0
 39 40  1  0  0  0  0
 39 41  1  0  0  0  0
 39 82  1  6  0  0  0
 40 83  1  0  0  0  0
 41 42  1  0  0  0  0
 41 43  1  0  0  0  0
 41 44  1  0  0  0  0
 42 84  1  0  0  0  0
 42 85  1  0  0  0  0
 42 86  1  0  0  0  0
 43 87  1  0  0  0  0
 43 88  1  0  0  0  0
 43 89  1  0  0  0  0
 44 90  1  0  0  0  0
M  END
>  <IDENTIFIER>
CNP0087368.2

>  <Energy>
768.179

$$$$
