
 OpenBabel09112516563D

 27 27  0  0  0  0  0  0  0  0999 V2000
    3.4885    1.5188   -1.4457 C   0  0  0  0  0  0  0  0  0  0  0  0
    2.7440    0.6137   -0.5116 C   0  0  0  0  0  0  0  0  0  0  0  0
    1.4651    0.2838   -0.7564 C   0  0  0  0  0  0  0  0  0  0  0  0
    0.5917   -0.6135    0.0675 C   0  0  0  0  0  0  0  0  0  0  0  0
    0.8736   -1.2332    1.2289 C   0  0  0  0  0  0  0  0  0  0  0  0
    2.3558   -1.2007    2.1799 Cl  0  0  0  0  0  0  0  0  0  0  0  0
   -0.2696   -2.0197    1.6474 C   0  0  0  0  0  0  0  0  0  0  0  0
   -0.2949   -2.7221    2.6460 O   0  0  0  0  0  0  0  0  0  0  0  0
   -1.3756   -1.9322    0.6554 C   0  0  1  0  0  0  0  0  0  0  0  0
   -2.6088   -1.5506    1.2237 O   0  0  0  0  0  0  0  0  0  0  0  0
   -0.8279   -0.9130   -0.3926 C   0  0  2  0  0  0  0  0  0  0  0  0
   -0.7750   -1.5126   -1.6662 O   0  0  0  0  0  0  0  0  0  0  0  0
   -1.6165    0.3890   -0.4426 C   0  0  0  0  0  0  0  0  0  0  0  0
   -2.1318    0.7524   -1.4921 O   0  0  0  0  0  0  0  0  0  0  0  0
   -1.7429    1.1427    0.6809 O   0  0  0  0  0  0  0  0  0  0  0  0
   -2.4878    2.3016    0.7470 C   0  0  0  0  0  0  0  0  0  0  0  0
    4.5263    1.6662   -1.0805 H   0  0  0  0  0  0  0  0  0  0  0  0
    2.9833    2.5062   -1.5007 H   0  0  0  0  0  0  0  0  0  0  0  0
    3.5272    1.0673   -2.4597 H   0  0  0  0  0  0  0  0  0  0  0  0
    3.2858    0.2475    0.3420 H   0  0  0  0  0  0  0  0  0  0  0  0
    1.0080    0.6983   -1.6516 H   0  0  0  0  0  0  0  0  0  0  0  0
   -1.4823   -2.9511    0.2231 H   0  0  0  0  0  0  0  0  0  0  0  0
   -2.4340   -0.9387    1.9867 H   0  0  0  0  0  0  0  0  0  0  0  0
   -1.6977   -1.7962   -1.9013 H   0  0  0  0  0  0  0  0  0  0  0  0
   -2.4259    2.7157    1.7739 H   0  0  0  0  0  0  0  0  0  0  0  0
   -3.5517    2.0826    0.5140 H   0  0  0  0  0  0  0  0  0  0  0  0
   -2.0931    3.0531    0.0304 H   0  0  0  0  0  0  0  0  0  0  0  0
  1  2  1  0  0  0  0
  1 17  1  0  0  0  0
  1 18  1  0  0  0  0
  1 19  1  0  0  0  0
  2  3  2  0  0  0  0
  2 20  1  0  0  0  0
  3  4  1  0  0  0  0
  3 21  1  0  0  0  0
  4  5  2  0  0  0  0
  5  6  1  0  0  0  0
  5  7  1  0  0  0  0
  7  8  2  0  0  0  0
  7  9  1  0  0  0  0
  9 10  1  0  0  0  0
  9 11  1  0  0  0  0
  9 22  1  6  0  0  0
 10 23  1  0  0  0  0
 11 12  1  6  0  0  0
 11 13  1  0  0  0  0
 11  4  1  0  0  0  0
 12 24  1  0  0  0  0
 13 14  2  0  0  0  0
 13 15  1  0  0  0  0
 15 16  1  0  0  0  0
 16 25  1  0  0  0  0
 16 26  1  0  0  0  0
 16 27  1  0  0  0  0
M  END
>  <IDENTIFIER>
CNP0409104.1

>  <Energy>
260.357

$$$$
