
 OpenBabel09062503243D

171179  0  0  0  0  0  0  0  0999 V2000
   12.9478   -3.2373    1.2223 C   0  0  0  0  0  0  0  0  0  0  0  0
   12.2190   -1.9550    0.9373 C   0  0  0  0  0  0  0  0  0  0  0  0
   12.8171   -0.7429    0.8544 C   0  0  0  0  0  0  0  0  0  0  0  0
   14.3051   -0.5602    1.0691 C   0  0  0  0  0  0  0  0  0  0  0  0
   12.0113    0.4761    0.5549 C   0  0  0  0  0  0  0  0  0  0  0  0
   12.5679    1.5655    0.5402 O   0  0  0  0  0  0  0  0  0  0  0  0
   10.6722    0.3849    0.3031 O   0  0  0  0  0  0  0  0  0  0  0  0
    9.7950    1.4557    0.2203 C   0  0  1  0  0  0  0  0  0  0  0  0
    9.1853    1.5905   -1.2167 C   0  0  2  0  0  0  0  0  0  0  0  0
    8.4705    2.7970   -1.2940 O   0  0  0  0  0  0  0  0  0  0  0  0
    8.2880    0.3790   -1.6989 C   0  0  2  0  0  0  0  0  0  0  0  0
    9.2104   -0.7764   -2.2476 C   0  0  0  0  0  0  0  0  0  0  0  0
    9.9698   -1.3914   -1.2542 O   0  0  0  0  0  0  0  0  0  0  0  0
    7.3869    0.7598   -2.9494 C   0  0  2  0  0  0  0  0  0  0  0  0
    8.1392    1.2800   -4.0202 O   0  0  0  0  0  0  0  0  0  0  0  0
    6.0659    1.5871   -2.6900 C   0  0  0  0  0  0  0  0  0  0  0  0
    5.1726    1.1143   -1.4323 C   0  0  2  0  0  0  0  0  0  0  0  0
    5.4476    2.1305   -0.3213 C   0  0  0  0  0  0  0  0  0  0  0  0
    5.8410   -0.1992   -1.0114 C   0  0  0  0  0  0  0  0  0  0  0  0
    5.2355   -1.3838   -1.2479 C   0  0  0  0  0  0  0  0  0  0  0  0
    3.9041   -1.4763   -1.9204 C   0  0  0  0  0  0  0  0  0  0  0  0
    2.9859   -0.4468   -1.2698 C   0  0  2  0  0  0  0  0  0  0  0  0
    1.4281   -0.7211   -1.4523 C   0  0  1  0  0  0  0  0  0  0  0  0
    1.0542   -0.7368   -2.9752 C   0  0  0  0  0  0  0  0  0  0  0  0
    1.0424   -2.1197   -0.8716 C   0  0  0  0  0  0  0  0  0  0  0  0
   -0.4728   -2.3819   -0.9682 C   0  0  0  0  0  0  0  0  0  0  0  0
   -1.3299   -1.3207   -0.2531 C   0  0  2  0  0  0  0  0  0  0  0  0
   -2.6669   -1.4291   -0.7260 O   0  0  0  0  0  0  0  0  0  0  0  0
   -3.4861   -2.3702   -0.0764 C   0  0  2  0  0  0  0  0  0  0  0  0
   -3.7627   -3.4318   -0.9877 O   0  0  0  0  0  0  0  0  0  0  0  0
   -4.5154   -3.0451   -2.1595 C   0  0  2  0  0  0  0  0  0  0  0  0
   -3.6533   -2.9983   -3.4058 C   0  0  0  0  0  0  0  0  0  0  0  0
   -2.4645   -3.2439   -3.3320 O   0  0  0  0  0  0  0  0  0  0  0  0
   -4.1780   -2.7473   -4.6257 O   0  0  0  0  0  0  0  0  0  0  0  0
   -5.3889   -1.7600   -1.9682 C   0  0  1  0  0  0  0  0  0  0  0  0
   -6.4021   -1.6692   -2.9392 O   0  0  0  0  0  0  0  0  0  0  0  0
   -5.9575   -1.8507   -0.5489 C   0  0  2  0  0  0  0  0  0  0  0  0
   -6.9684   -0.8753   -0.2923 O   0  0  0  0  0  0  0  0  0  0  0  0
   -8.2554   -1.4725   -0.2042 C   0  0  2  0  0  0  0  0  0  0  0  0
   -8.8063   -1.5817   -1.5245 O   0  0  0  0  0  0  0  0  0  0  0  0
  -10.2306   -1.6791   -1.5932 C   0  0  0  0  0  0  0  0  0  0  0  0
  -10.8401   -2.2841   -0.3166 C   0  0  2  0  0  0  0  0  0  0  0  0
  -12.2099   -2.5607   -0.4154 O   0  0  0  0  0  0  0  0  0  0  0  0
  -10.5031   -1.3956    0.9129 C   0  0  2  0  0  0  0  0  0  0  0  0
  -11.5382   -0.5164    1.2609 O   0  0  0  0  0  0  0  0  0  0  0  0
   -9.1583   -0.6320    0.7197 C   0  0  2  0  0  0  0  0  0  0  0  0
   -9.3630    0.6197    0.0741 O   0  0  0  0  0  0  0  0  0  0  0  0
   -9.3581    1.7366    0.9570 C   0  0  2  0  0  0  0  0  0  0  0  0
  -10.6969    2.1623    1.2231 O   0  0  0  0  0  0  0  0  0  0  0  0
  -11.2813    3.0335    0.2462 C   0  0  0  0  0  0  0  0  0  0  0  0
  -10.5757    3.0105   -1.1217 C   0  0  1  0  0  0  0  0  0  0  0  0
  -11.2225    3.8194   -2.0705 O   0  0  0  0  0  0  0  0  0  0  0  0
   -9.0860    3.3942   -0.9773 C   0  0  2  0  0  0  0  0  0  0  0  0
   -8.3664    2.9293   -2.0928 O   0  0  0  0  0  0  0  0  0  0  0  0
   -8.4880    2.8655    0.3590 C   0  0  1  0  0  0  0  0  0  0  0  0
   -8.3484    3.9081    1.2986 O   0  0  0  0  0  0  0  0  0  0  0  0
   -4.7772   -1.6352    0.4098 C   0  0  1  0  0  0  0  0  0  0  0  0
   -5.1440   -2.0388    1.7207 O   0  0  0  0  0  0  0  0  0  0  0  0
   -4.7245   -1.0956    2.7016 C   0  0  2  0  0  0  0  0  0  0  0  0
   -4.1594   -1.7798    3.8021 O   0  0  0  0  0  0  0  0  0  0  0  0
   -3.4576   -0.8704    4.6632 C   0  0  2  0  0  0  0  0  0  0  0  0
   -3.1656   -1.5996    5.9874 C   0  0  0  0  0  0  0  0  0  0  0  0
   -4.3360   -2.0379    6.6202 O   0  0  0  0  0  0  0  0  0  0  0  0
   -4.1906    0.5173    4.8178 C   0  0  2  0  0  0  0  0  0  0  0  0
   -3.8531    1.1930    6.0042 O   0  0  0  0  0  0  0  0  0  0  0  0
   -5.7097    0.3599    4.5935 C   0  0  2  0  0  0  0  0  0  0  0  0
   -6.2714   -0.4446    5.6073 O   0  0  0  0  0  0  0  0  0  0  0  0
   -5.9399   -0.2427    3.1655 C   0  0  1  0  0  0  0  0  0  0  0  0
   -6.1983    0.7610    2.2129 O   0  0  0  0  0  0  0  0  0  0  0  0
   -0.8977    0.1810   -0.4588 C   0  0  1  0  0  0  0  0  0  0  0  0
   -1.5931    0.8354   -1.6902 C   0  0  0  0  0  0  0  0  0  0  0  0
   -1.4707    0.9255    0.7516 C   0  0  0  0  0  0  0  0  0  0  0  0
   -0.7619    1.4706    1.5842 O   0  0  0  0  0  0  0  0  0  0  0  0
    0.6810    0.3235   -0.5235 C   0  0  2  0  0  0  0  0  0  0  0  0
    1.1518    1.7791   -0.7932 C   0  0  0  0  0  0  0  0  0  0  0  0
    2.6834    1.9409   -0.6611 C   0  0  0  0  0  0  0  0  0  0  0  0
    3.5218    1.0230   -1.6310 C   0  0  1  0  0  0  0  0  0  0  0  0
    3.2110    1.5514   -3.0668 C   0  0  0  0  0  0  0  0  0  0  0  0
    7.3329   -0.1886   -0.5640 C   0  0  2  0  0  0  0  0  0  0  0  0
    7.6656    0.1833    0.9424 C   0  0  0  0  0  0  0  0  0  0  0  0
    8.6989    1.3259    1.3247 C   0  0  0  0  0  0  0  0  0  0  0  0
    8.0862    2.7277    1.6513 C   0  0  0  0  0  0  0  0  0  0  0  0
    9.3566    0.9164    2.6791 C   0  0  0  0  0  0  0  0  0  0  0  0
   12.2295   -4.0839    1.2287 H   0  0  0  0  0  0  0  0  0  0  0  0
   13.4422   -3.1873    2.2151 H   0  0  0  0  0  0  0  0  0  0  0  0
   13.7050   -3.4279    0.4323 H   0  0  0  0  0  0  0  0  0  0  0  0
   11.1481   -2.0384    0.7979 H   0  0  0  0  0  0  0  0  0  0  0  0
   14.8460   -1.5008    1.2898 H   0  0  0  0  0  0  0  0  0  0  0  0
   14.4681    0.1284    1.9249 H   0  0  0  0  0  0  0  0  0  0  0  0
   14.7568   -0.1153    0.1582 H   0  0  0  0  0  0  0  0  0  0  0  0
   10.3615    2.3930    0.4237 H   0  0  0  0  0  0  0  0  0  0  0  0
   10.0487    1.6709   -1.9246 H   0  0  0  0  0  0  0  0  0  0  0  0
    8.8523    3.3501   -2.0250 H   0  0  0  0  0  0  0  0  0  0  0  0
    9.8750   -0.3732   -3.0475 H   0  0  0  0  0  0  0  0  0  0  0  0
    8.5871   -1.5783   -2.7038 H   0  0  0  0  0  0  0  0  0  0  0  0
   10.7284   -1.8391   -1.7125 H   0  0  0  0  0  0  0  0  0  0  0  0
    6.9724   -0.2083   -3.3201 H   0  0  0  0  0  0  0  0  0  0  0  0
    8.1512    2.2666   -3.9393 H   0  0  0  0  0  0  0  0  0  0  0  0
    5.5651    1.4342   -3.6596 H   0  0  0  0  0  0  0  0  0  0  0  0
    6.2492    2.6822   -2.6450 H   0  0  0  0  0  0  0  0  0  0  0  0
    6.5040    2.2097   -0.2397 H   0  0  0  0  0  0  0  0  0  0  0  0
    5.0564    1.8192    0.6673 H   0  0  0  0  0  0  0  0  0  0  0  0
    5.0922    3.1474   -0.5889 H   0  0  0  0  0  0  0  0  0  0  0  0
    5.7182   -2.3214   -0.9851 H   0  0  0  0  0  0  0  0  0  0  0  0
    3.5774   -2.5254   -1.8072 H   0  0  0  0  0  0  0  0  0  0  0  0
    3.9976   -1.2665   -3.0057 H   0  0  0  0  0  0  0  0  0  0  0  0
    3.1485   -0.5911   -0.1735 H   0  0  0  0  0  0  0  0  0  0  0  0
    1.6924   -1.4642   -3.5169 H   0  0  0  0  0  0  0  0  0  0  0  0
    1.0976    0.2113   -3.4903 H   0  0  0  0  0  0  0  0  0  0  0  0
    0.0366   -1.0459   -3.2164 H   0  0  0  0  0  0  0  0  0  0  0  0
    1.3469   -2.1992    0.1982 H   0  0  0  0  0  0  0  0  0  0  0  0
    1.5353   -2.9486   -1.4171 H   0  0  0  0  0  0  0  0  0  0  0  0
   -0.7155   -3.3860   -0.5545 H   0  0  0  0  0  0  0  0  0  0  0  0
   -0.7532   -2.4430   -2.0163 H   0  0  0  0  0  0  0  0  0  0  0  0
   -1.2030   -1.5426    0.8349 H   0  0  0  0  0  0  0  0  0  0  0  0
   -2.9822   -2.7978    0.8213 H   0  0  0  0  0  0  0  0  0  0  0  0
   -5.2336   -3.8799   -2.3124 H   0  0  0  0  0  0  0  0  0  0  0  0
   -5.1159   -2.5796   -4.7749 H   0  0  0  0  0  0  0  0  0  0  0  0
   -4.7757   -0.8347   -2.0514 H   0  0  0  0  0  0  0  0  0  0  0  0
   -6.9175   -2.5155   -2.9266 H   0  0  0  0  0  0  0  0  0  0  0  0
   -6.3154   -2.9005   -0.4169 H   0  0  0  0  0  0  0  0  0  0  0  0
   -8.2046   -2.4765    0.2817 H   0  0  0  0  0  0  0  0  0  0  0  0
  -10.4813   -2.3496   -2.4430 H   0  0  0  0  0  0  0  0  0  0  0  0
  -10.6680   -0.6811   -1.8034 H   0  0  0  0  0  0  0  0  0  0  0  0
  -10.3137   -3.2591   -0.2105 H   0  0  0  0  0  0  0  0  0  0  0  0
  -12.6477   -1.7862   -0.8547 H   0  0  0  0  0  0  0  0  0  0  0  0
  -10.4008   -2.1227    1.7508 H   0  0  0  0  0  0  0  0  0  0  0  0
  -11.8120   -0.0345    0.4384 H   0  0  0  0  0  0  0  0  0  0  0  0
   -8.6674   -0.5363    1.7121 H   0  0  0  0  0  0  0  0  0  0  0  0
   -8.8814    1.5143    1.9376 H   0  0  0  0  0  0  0  0  0  0  0  0
  -11.3069    4.0687    0.6459 H   0  0  0  0  0  0  0  0  0  0  0  0
  -12.3329    2.7128    0.0887 H   0  0  0  0  0  0  0  0  0  0  0  0
  -10.6539    1.9606   -1.4750 H   0  0  0  0  0  0  0  0  0  0  0  0
  -11.2462    4.7424   -1.7059 H   0  0  0  0  0  0  0  0  0  0  0  0
   -8.9723    4.5005   -0.9579 H   0  0  0  0  0  0  0  0  0  0  0  0
   -8.3540    1.9371   -2.0513 H   0  0  0  0  0  0  0  0  0  0  0  0
   -7.4567    2.4939    0.1754 H   0  0  0  0  0  0  0  0  0  0  0  0
   -9.2339    4.3197    1.4594 H   0  0  0  0  0  0  0  0  0  0  0  0
   -4.5694   -0.5369    0.3478 H   0  0  0  0  0  0  0  0  0  0  0  0
   -3.9145   -0.4251    2.3175 H   0  0  0  0  0  0  0  0  0  0  0  0
   -2.4459   -0.6583    4.2467 H   0  0  0  0  0  0  0  0  0  0  0  0
   -2.5524   -0.9511    6.6567 H   0  0  0  0  0  0  0  0  0  0  0  0
   -2.5421   -2.4937    5.7716 H   0  0  0  0  0  0  0  0  0  0  0  0
   -4.4438   -1.5035    7.4488 H   0  0  0  0  0  0  0  0  0  0  0  0
   -3.8559    1.1718    3.9829 H   0  0  0  0  0  0  0  0  0  0  0  0
   -4.3916    0.8056    6.7404 H   0  0  0  0  0  0  0  0  0  0  0  0
   -6.2373    1.3369    4.6512 H   0  0  0  0  0  0  0  0  0  0  0  0
   -6.3102   -1.3875    5.3025 H   0  0  0  0  0  0  0  0  0  0  0  0
   -6.8588   -0.8645    3.2244 H   0  0  0  0  0  0  0  0  0  0  0  0
   -5.4583    1.4205    2.2542 H   0  0  0  0  0  0  0  0  0  0  0  0
   -2.6992    0.7873   -1.5931 H   0  0  0  0  0  0  0  0  0  0  0  0
   -1.3490    0.3763   -2.6524 H   0  0  0  0  0  0  0  0  0  0  0  0
   -1.3687    1.9189   -1.7486 H   0  0  0  0  0  0  0  0  0  0  0  0
   -2.5434    0.9300    0.9115 H   0  0  0  0  0  0  0  0  0  0  0  0
    1.0368    0.0846    0.5077 H   0  0  0  0  0  0  0  0  0  0  0  0
    0.6935    2.4712   -0.0593 H   0  0  0  0  0  0  0  0  0  0  0  0
    0.8054    2.1187   -1.7802 H   0  0  0  0  0  0  0  0  0  0  0  0
    2.9159    1.6903    0.3964 H   0  0  0  0  0  0  0  0  0  0  0  0
    2.9176    3.0132   -0.8251 H   0  0  0  0  0  0  0  0  0  0  0  0
    3.6988    2.5392   -3.2088 H   0  0  0  0  0  0  0  0  0  0  0  0
    2.1844    1.8424   -3.2850 H   0  0  0  0  0  0  0  0  0  0  0  0
    3.5326    0.8390   -3.8524 H   0  0  0  0  0  0  0  0  0  0  0  0
    7.5464   -1.2811   -0.5538 H   0  0  0  0  0  0  0  0  0  0  0  0
    8.1587   -0.7454    1.3097 H   0  0  0  0  0  0  0  0  0  0  0  0
    6.7531    0.2140    1.5772 H   0  0  0  0  0  0  0  0  0  0  0  0
    7.2792    2.6340    2.4097 H   0  0  0  0  0  0  0  0  0  0  0  0
    7.7188    3.3544    0.8324 H   0  0  0  0  0  0  0  0  0  0  0  0
    8.8726    3.3846    2.0858 H   0  0  0  0  0  0  0  0  0  0  0  0
    8.5900    0.8483    3.4824 H   0  0  0  0  0  0  0  0  0  0  0  0
   10.1308    1.6509    2.9912 H   0  0  0  0  0  0  0  0  0  0  0  0
    9.8557   -0.0739    2.6161 H   0  0  0  0  0  0  0  0  0  0  0  0
  1  2  1  0  0  0  0
  1 84  1  0  0  0  0
  1 85  1  0  0  0  0
  1 86  1  0  0  0  0
  2  3  2  0  0  0  0
  2 87  1  0  0  0  0
  3  4  1  0  0  0  0
  3  5  1  0  0  0  0
  4 88  1  0  0  0  0
  4 89  1  0  0  0  0
  4 90  1  0  0  0  0
  5  6  2  0  0  0  0
  5  7  1  0  0  0  0
  8  7  1  0  0  0  0
  8  9  1  0  0  0  0
  8 91  1  1  0  0  0
  9 10  1  0  0  0  0
  9 11  1  0  0  0  0
  9 92  1  6  0  0  0
 10 93  1  0  0  0  0
 11 12  1  6  0  0  0
 11 14  1  0  0  0  0
 12 13  1  0  0  0  0
 12 94  1  0  0  0  0
 12 95  1  0  0  0  0
 13 96  1  0  0  0  0
 14 15  1  0  0  0  0
 14 16  1  0  0  0  0
 14 97  1  6  0  0  0
 15 98  1  0  0  0  0
 16 17  1  0  0  0  0
 16 99  1  0  0  0  0
 16100  1  0  0  0  0
 17 18  1  1  0  0  0
 17 19  1  0  0  0  0
 18101  1  0  0  0  0
 18102  1  0  0  0  0
 18103  1  0  0  0  0
 19 20  2  0  0  0  0
 19 79  1  0  0  0  0
 20 21  1  0  0  0  0
 20104  1  0  0  0  0
 21105  1  0  0  0  0
 21106  1  0  0  0  0
 22 21  1  0  0  0  0
 22 23  1  0  0  0  0
 22107  1  1  0  0  0
 23 24  1  6  0  0  0
 23 25  1  0  0  0  0
 24108  1  0  0  0  0
 24109  1  0  0  0  0
 24110  1  0  0  0  0
 25 26  1  0  0  0  0
 25111  1  0  0  0  0
 25112  1  0  0  0  0
 26 27  1  0  0  0  0
 26113  1  0  0  0  0
 26114  1  0  0  0  0
 27 28  1  0  0  0  0
 27 70  1  0  0  0  0
 27115  1  1  0  0  0
 29 28  1  0  0  0  0
 29 30  1  0  0  0  0
 29116  1  1  0  0  0
 30 31  1  0  0  0  0
 31 32  1  0  0  0  0
 31 35  1  0  0  0  0
 31117  1  6  0  0  0
 32 33  2  0  0  0  0
 32 34  1  0  0  0  0
 34118  1  0  0  0  0
 35 36  1  0  0  0  0
 35 37  1  0  0  0  0
 35119  1  6  0  0  0
 36120  1  0  0  0  0
 37 38  1  0  0  0  0
 37 57  1  0  0  0  0
 37121  1  1  0  0  0
 39 38  1  0  0  0  0
 39 40  1  0  0  0  0
 39122  1  1  0  0  0
 40 41  1  0  0  0  0
 41 42  1  0  0  0  0
 41123  1  0  0  0  0
 41124  1  0  0  0  0
 42 43  1  0  0  0  0
 42 44  1  0  0  0  0
 42125  1  1  0  0  0
 43126  1  0  0  0  0
 44 45  1  0  0  0  0
 44 46  1  0  0  0  0
 44127  1  1  0  0  0
 45128  1  0  0  0  0
 46 47  1  0  0  0  0
 46 39  1  0  0  0  0
 46129  1  1  0  0  0
 48 47  1  0  0  0  0
 48 49  1  0  0  0  0
 48130  1  1  0  0  0
 49 50  1  0  0  0  0
 50 51  1  0  0  0  0
 50131  1  0  0  0  0
 50132  1  0  0  0  0
 51 52  1  0  0  0  0
 51 53  1  0  0  0  0
 51133  1  6  0  0  0
 52134  1  0  0  0  0
 53 54  1  0  0  0  0
 53 55  1  0  0  0  0
 53135  1  1  0  0  0
 54136  1  0  0  0  0
 55 56  1  0  0  0  0
 55 48  1  0  0  0  0
 55137  1  6  0  0  0
 56138  1  0  0  0  0
 57 58  1  0  0  0  0
 57 29  1  0  0  0  0
 57139  1  1  0  0  0
 59 58  1  0  0  0  0
 59 60  1  0  0  0  0
 59140  1  6  0  0  0
 60 61  1  0  0  0  0
 61 62  1  0  0  0  0
 61 64  1  0  0  0  0
 61141  1  6  0  0  0
 62 63  1  0  0  0  0
 62142  1  0  0  0  0
 62143  1  0  0  0  0
 63144  1  0  0  0  0
 64 65  1  0  0  0  0
 64 66  1  0  0  0  0
 64145  1  6  0  0  0
 65146  1  0  0  0  0
 66 67  1  0  0  0  0
 66 68  1  0  0  0  0
 66147  1  1  0  0  0
 67148  1  0  0  0  0
 68 69  1  0  0  0  0
 68 59  1  0  0  0  0
 68149  1  1  0  0  0
 69150  1  0  0  0  0
 70 71  1  0  0  0  0
 70 72  1  1  0  0  0
 70 74  1  0  0  0  0
 71151  1  0  0  0  0
 71152  1  0  0  0  0
 71153  1  0  0  0  0
 72 73  2  0  0  0  0
 72154  1  0  0  0  0
 74 75  1  0  0  0  0
 74 23  1  0  0  0  0
 74155  1  1  0  0  0
 75 76  1  0  0  0  0
 75156  1  0  0  0  0
 75157  1  0  0  0  0
 76 77  1  0  0  0  0
 76158  1  0  0  0  0
 76159  1  0  0  0  0
 77 78  1  6  0  0  0
 77 17  1  0  0  0  0
 77 22  1  0  0  0  0
 78160  1  0  0  0  0
 78161  1  0  0  0  0
 78162  1  0  0  0  0
 79 80  1  0  0  0  0
 79 11  1  0  0  0  0
 79163  1  6  0  0  0
 80 81  1  0  0  0  0
 80164  1  0  0  0  0
 80165  1  0  0  0  0
 81 82  1  0  0  0  0
 81 83  1  0  0  0  0
 81  8  1  0  0  0  0
 82166  1  0  0  0  0
 82167  1  0  0  0  0
 82168  1  0  0  0  0
 83169  1  0  0  0  0
 83170  1  0  0  0  0
 83171  1  0  0  0  0
M  END
>  <IDENTIFIER>
CNP0173310.3

>  <Energy>
2853.77

$$$$
