
 OpenBabel09072500593D

 95 98  0  0  0  0  0  0  0  0999 V2000
    2.6555   -0.5069   -5.4811 C   0  0  0  0  0  0  0  0  0  0  0  0
    2.4137    0.0734   -4.0869 C   0  0  0  0  0  0  0  0  0  0  0  0
    1.1522   -0.4946   -3.3854 C   0  0  1  0  0  0  0  0  0  0  0  0
    1.2569   -2.0174   -3.1513 C   0  0  0  0  0  0  0  0  0  0  0  0
    0.8758    0.2905   -2.0590 C   0  0  2  0  0  0  0  0  0  0  0  0
    2.0137    0.1325   -1.1683 N   0  0  0  0  0  0  0  0  0  0  0  0
    2.8480    1.1617   -0.8270 C   0  0  0  0  0  0  0  0  0  0  0  0
    2.6412    2.2841   -1.2694 O   0  0  0  0  0  0  0  0  0  0  0  0
    4.0511    0.9791    0.0940 C   0  0  2  0  0  0  0  0  0  0  0  0
    5.3524    1.3506   -0.6807 C   0  0  0  0  0  0  0  0  0  0  0  0
    6.5850    1.4349    0.1852 C   0  0  0  0  0  0  0  0  0  0  0  0
    6.6626    2.3883    1.2158 C   0  0  0  0  0  0  0  0  0  0  0  0
    7.8107    2.4788    2.0085 C   0  0  0  0  0  0  0  0  0  0  0  0
    8.8887    1.6195    1.7815 C   0  0  0  0  0  0  0  0  0  0  0  0
    8.8229    0.6718    0.7573 C   0  0  0  0  0  0  0  0  0  0  0  0
    7.6798    0.5818   -0.0422 C   0  0  0  0  0  0  0  0  0  0  0  0
    4.0625   -0.3766    0.7198 N   0  0  0  0  0  0  0  0  0  0  0  0
    4.6666   -1.4565   -0.0837 C   0  0  0  0  0  0  0  0  0  0  0  0
    4.6026   -0.3839    2.0898 C   0  0  0  0  0  0  0  0  0  0  0  0
   -0.4920   -0.1105   -1.4688 C   0  0  0  0  0  0  0  0  0  0  0  0
   -1.4077   -0.0289   -2.2727 O   0  0  0  0  0  0  0  0  0  0  0  0
   -0.7798   -0.5294   -0.1719 N   0  0  0  0  0  0  0  0  0  0  0  0
    0.1157   -0.6752    0.9614 C   0  0  0  0  0  0  0  0  0  0  0  0
   -0.1586   -2.0900    1.4789 C   0  0  0  0  0  0  0  0  0  0  0  0
   -1.5232   -2.4469    0.8606 C   0  0  1  0  0  0  0  0  0  0  0  0
   -2.3038   -3.1892    1.7398 O   0  0  0  0  0  0  0  0  0  0  0  0
   -3.4787   -2.7204    2.1725 C   0  0  0  0  0  0  0  0  0  0  0  0
   -3.5200   -1.9576    3.3405 C   0  0  0  0  0  0  0  0  0  0  0  0
   -4.6911   -1.2965    3.6856 C   0  0  0  0  0  0  0  0  0  0  0  0
   -5.8045   -1.3779    2.8412 C   0  0  0  0  0  0  0  0  0  0  0  0
   -6.9270   -0.4883    3.1134 C   0  0  0  0  0  0  0  0  0  0  0  0
   -7.6651    0.1423    2.1835 C   0  0  0  0  0  0  0  0  0  0  0  0
   -7.5104    0.1418    0.7565 N   0  0  0  0  0  0  0  0  0  0  0  0
   -6.5055    0.2172   -0.0776 C   0  0  0  0  0  0  0  0  0  0  0  0
   -6.8196    0.2549   -1.3937 O   0  0  0  0  0  0  0  0  0  0  0  0
   -4.9955    0.3593    0.2275 C   0  0  2  0  0  0  0  0  0  0  0  0
   -4.5937    1.8397   -0.1098 C   0  0  1  0  0  0  0  0  0  0  0  0
   -5.3179    2.8054    0.8577 C   0  0  0  0  0  0  0  0  0  0  0  0
   -3.0695    2.0803   -0.0465 C   0  0  0  0  0  0  0  0  0  0  0  0
   -2.6345    3.4779   -0.4976 C   0  0  0  0  0  0  0  0  0  0  0  0
   -4.3492   -0.6189   -0.6646 N   0  0  0  0  0  0  0  0  0  0  0  0
   -3.1878   -1.2226   -0.7041 C   0  0  0  0  0  0  0  0  0  0  0  0
   -2.9691   -2.0792   -1.7281 O   0  0  0  0  0  0  0  0  0  0  0  0
   -2.0546   -1.0767    0.3184 C   0  0  2  0  0  0  0  0  0  0  0  0
   -5.7857   -2.2242    1.7209 C   0  0  0  0  0  0  0  0  0  0  0  0
   -4.6218   -2.9048    1.3943 C   0  0  0  0  0  0  0  0  0  0  0  0
    3.5359   -0.0075   -5.9378 H   0  0  0  0  0  0  0  0  0  0  0  0
    1.7719   -0.3286   -6.1302 H   0  0  0  0  0  0  0  0  0  0  0  0
    2.8701   -1.5932   -5.4358 H   0  0  0  0  0  0  0  0  0  0  0  0
    2.2832    1.1711   -4.2103 H   0  0  0  0  0  0  0  0  0  0  0  0
    3.3174   -0.0997   -3.4631 H   0  0  0  0  0  0  0  0  0  0  0  0
    0.2916   -0.3163   -4.0681 H   0  0  0  0  0  0  0  0  0  0  0  0
    2.1433   -2.2751   -2.5364 H   0  0  0  0  0  0  0  0  0  0  0  0
    1.3379   -2.5603   -4.1138 H   0  0  0  0  0  0  0  0  0  0  0  0
    0.3454   -2.3979   -2.6450 H   0  0  0  0  0  0  0  0  0  0  0  0
    0.7588    1.3580   -2.3517 H   0  0  0  0  0  0  0  0  0  0  0  0
    2.2112   -0.8190   -0.8398 H   0  0  0  0  0  0  0  0  0  0  0  0
    3.8879    1.7356    0.8941 H   0  0  0  0  0  0  0  0  0  0  0  0
    5.2296    2.3499   -1.1523 H   0  0  0  0  0  0  0  0  0  0  0  0
    5.5029    0.6286   -1.5117 H   0  0  0  0  0  0  0  0  0  0  0  0
    5.8384    3.0653    1.4009 H   0  0  0  0  0  0  0  0  0  0  0  0
    7.8655    3.2171    2.7978 H   0  0  0  0  0  0  0  0  0  0  0  0
    9.7764    1.6904    2.3964 H   0  0  0  0  0  0  0  0  0  0  0  0
    9.6595    0.0082    0.5804 H   0  0  0  0  0  0  0  0  0  0  0  0
    7.6506   -0.1548   -0.8351 H   0  0  0  0  0  0  0  0  0  0  0  0
    4.3278   -1.4194   -1.1391 H   0  0  0  0  0  0  0  0  0  0  0  0
    4.3625   -2.4410    0.3317 H   0  0  0  0  0  0  0  0  0  0  0  0
    5.7728   -1.4038   -0.0659 H   0  0  0  0  0  0  0  0  0  0  0  0
    4.0839    0.3719    2.7177 H   0  0  0  0  0  0  0  0  0  0  0  0
    5.6930   -0.1827    2.1003 H   0  0  0  0  0  0  0  0  0  0  0  0
    4.4247   -1.3735    2.5624 H   0  0  0  0  0  0  0  0  0  0  0  0
   -0.2584    0.0326    1.7388 H   0  0  0  0  0  0  0  0  0  0  0  0
    1.1740   -0.4212    0.9074 H   0  0  0  0  0  0  0  0  0  0  0  0
   -0.1490   -2.0692    2.5905 H   0  0  0  0  0  0  0  0  0  0  0  0
    0.5897   -2.8263    1.1109 H   0  0  0  0  0  0  0  0  0  0  0  0
   -1.3140   -3.0657   -0.0424 H   0  0  0  0  0  0  0  0  0  0  0  0
   -2.6283   -1.8203    3.9388 H   0  0  0  0  0  0  0  0  0  0  0  0
   -4.6969   -0.6477    4.5533 H   0  0  0  0  0  0  0  0  0  0  0  0
   -7.1531   -0.2713    4.1542 H   0  0  0  0  0  0  0  0  0  0  0  0
   -8.4885    0.7399    2.5621 H   0  0  0  0  0  0  0  0  0  0  0  0
   -7.7346    0.2110   -1.7062 H   0  0  0  0  0  0  0  0  0  0  0  0
   -4.7305    0.1849    1.2794 H   0  0  0  0  0  0  0  0  0  0  0  0
   -4.9203    2.0635   -1.1502 H   0  0  0  0  0  0  0  0  0  0  0  0
   -4.9879    2.6228    1.9038 H   0  0  0  0  0  0  0  0  0  0  0  0
   -6.4178    2.6795    0.8094 H   0  0  0  0  0  0  0  0  0  0  0  0
   -5.1223    3.8646    0.6009 H   0  0  0  0  0  0  0  0  0  0  0  0
   -2.5975    1.3900   -0.7518 H   0  0  0  0  0  0  0  0  0  0  0  0
   -2.6808    1.8865    0.9760 H   0  0  0  0  0  0  0  0  0  0  0  0
   -3.0076    3.6841   -1.5238 H   0  0  0  0  0  0  0  0  0  0  0  0
   -1.5250    3.5292   -0.5118 H   0  0  0  0  0  0  0  0  0  0  0  0
   -2.9948    4.2651    0.1932 H   0  0  0  0  0  0  0  0  0  0  0  0
   -3.6358   -2.2389   -2.4119 H   0  0  0  0  0  0  0  0  0  0  0  0
   -2.4095   -0.4369    1.1570 H   0  0  0  0  0  0  0  0  0  0  0  0
   -6.6460   -2.3171    1.0714 H   0  0  0  0  0  0  0  0  0  0  0  0
   -4.5829   -3.5049    0.4938 H   0  0  0  0  0  0  0  0  0  0  0  0
  1  2  1  0  0  0  0
  1 47  1  0  0  0  0
  1 48  1  0  0  0  0
  1 49  1  0  0  0  0
  2  3  1  0  0  0  0
  2 50  1  0  0  0  0
  2 51  1  0  0  0  0
  3  4  1  0  0  0  0
  3  5  1  0  0  0  0
  3 52  1  6  0  0  0
  4 53  1  0  0  0  0
  4 54  1  0  0  0  0
  4 55  1  0  0  0  0
  5  6  1  0  0  0  0
  5 20  1  0  0  0  0
  5 56  1  6  0  0  0
  6  7  1  0  0  0  0
  6 57  1  0  0  0  0
  7  8  2  0  0  0  0
  7  9  1  0  0  0  0
  9 10  1  0  0  0  0
  9 17  1  0  0  0  0
  9 58  1  1  0  0  0
 10 11  1  0  0  0  0
 10 59  1  0  0  0  0
 10 60  1  0  0  0  0
 11 12  2  0  0  0  0
 12 13  1  0  0  0  0
 12 61  1  0  0  0  0
 13 14  2  0  0  0  0
 13 62  1  0  0  0  0
 14 15  1  0  0  0  0
 14 63  1  0  0  0  0
 15 16  2  0  0  0  0
 15 64  1  0  0  0  0
 16 11  1  0  0  0  0
 16 65  1  0  0  0  0
 17 18  1  0  0  0  0
 17 19  1  0  0  0  0
 18 66  1  0  0  0  0
 18 67  1  0  0  0  0
 18 68  1  0  0  0  0
 19 69  1  0  0  0  0
 19 70  1  0  0  0  0
 19 71  1  0  0  0  0
 20 21  2  0  0  0  0
 20 22  1  0  0  0  0
 22 23  1  0  0  0  0
 23 24  1  0  0  0  0
 23 72  1  0  0  0  0
 23 73  1  0  0  0  0
 24 74  1  0  0  0  0
 24 75  1  0  0  0  0
 25 24  1  0  0  0  0
 25 26  1  0  0  0  0
 25 76  1  6  0  0  0
 26 27  1  0  0  0  0
 27 28  2  0  0  0  0
 28 29  1  0  0  0  0
 28 77  1  0  0  0  0
 29 30  2  0  0  0  0
 29 78  1  0  0  0  0
 30 31  1  0  0  0  0
 30 45  1  0  0  0  0
 31 32  2  0  0  0  0
 31 79  1  0  0  0  0
 32 33  1  0  0  0  0
 32 80  1  0  0  0  0
 33 34  2  0  0  0  0
 34 35  1  0  0  0  0
 34 36  1  0  0  0  0
 35 81  1  0  0  0  0
 36 37  1  0  0  0  0
 36 41  1  0  0  0  0
 36 82  1  1  0  0  0
 37 38  1  0  0  0  0
 37 39  1  0  0  0  0
 37 83  1  6  0  0  0
 38 84  1  0  0  0  0
 38 85  1  0  0  0  0
 38 86  1  0  0  0  0
 39 40  1  0  0  0  0
 39 87  1  0  0  0  0
 39 88  1  0  0  0  0
 40 89  1  0  0  0  0
 40 90  1  0  0  0  0
 40 91  1  0  0  0  0
 41 42  2  0  0  0  0
 42 43  1  0  0  0  0
 42 44  1  0  0  0  0
 43 92  1  0  0  0  0
 44 22  1  0  0  0  0
 44 25  1  0  0  0  0
 44 93  1  1  0  0  0
 45 46  2  0  0  0  0
 45 94  1  0  0  0  0
 46 27  1  0  0  0  0
 46 95  1  0  0  0  0
M  END
>  <IDENTIFIER>
CNP0585553.1

>  <Energy>
1111.31

$$$$
