
 OpenBabel09122513103D

 88 93  0  0  0  0  0  0  0  0999 V2000
    8.8863   -1.4892   -0.0545 C   0  0  0  0  0  0  0  0  0  0  0  0
    7.7893   -0.9854    0.5373 C   0  0  0  0  0  0  0  0  0  0  0  0
    7.6849   -0.9815    2.0438 C   0  0  0  0  0  0  0  0  0  0  0  0
    6.6485   -0.4411   -0.3026 C   0  0  2  0  0  0  0  0  0  0  0  0
    6.4522    1.0803   -0.0634 C   0  0  0  0  0  0  0  0  0  0  0  0
    5.1635    1.3294    0.7125 C   0  0  0  0  0  0  0  0  0  0  0  0
    3.9807    0.7716   -0.1188 C   0  0  2  0  0  0  0  0  0  0  0  0
    2.6196    0.9796    0.6368 C   0  0  1  0  0  0  0  0  0  0  0  0
    2.3350    2.4987    0.8881 C   0  0  0  0  0  0  0  0  0  0  0  0
    0.8273    2.7243    0.6618 C   0  0  0  0  0  0  0  0  0  0  0  0
    0.2095    1.3356    0.8336 C   0  0  1  0  0  0  0  0  0  0  0  0
    0.1160    1.0839    2.3814 C   0  0  0  0  0  0  0  0  0  0  0  0
   -1.1892    1.1551    0.1472 C   0  0  2  0  0  0  0  0  0  0  0  0
   -2.3123    2.0450    0.7006 C   0  0  0  0  0  0  0  0  0  0  0  0
   -3.5991    1.8139   -0.0982 C   0  0  0  0  0  0  0  0  0  0  0  0
   -4.1429    0.3894    0.1988 C   0  0  1  0  0  0  0  0  0  0  0  0
   -5.5139    0.0058   -0.5056 C   0  0  2  0  0  0  0  0  0  0  0  0
   -5.3576    0.0058   -2.0508 C   0  0  0  0  0  0  0  0  0  0  0  0
   -6.6491    0.9801   -0.1746 C   0  0  0  0  0  0  0  0  0  0  0  0
   -6.4955    1.8915    0.6268 O   0  0  0  0  0  0  0  0  0  0  0  0
   -7.8525    0.8145   -0.7851 O   0  0  0  0  0  0  0  0  0  0  0  0
   -8.9142    1.6841   -0.6592 C   0  0  0  0  0  0  0  0  0  0  0  0
   -5.9526   -1.4120    0.0246 C   0  0  1  0  0  0  0  0  0  0  0  0
   -7.1775   -1.8289   -0.5330 O   0  0  0  0  0  0  0  0  0  0  0  0
   -4.8737   -2.5087   -0.1703 C   0  0  0  0  0  0  0  0  0  0  0  0
   -3.5164   -2.1403    0.4556 C   0  0  2  0  0  0  0  0  0  0  0  0
   -3.5408   -2.2001    1.8634 O   0  0  0  0  0  0  0  0  0  0  0  0
   -3.0755   -0.7374   -0.0380 C   0  0  1  0  0  0  0  0  0  0  0  0
   -2.2298   -0.7163   -1.3075 C   0  0  0  0  0  0  0  0  0  0  0  0
   -1.5779   -0.3656    0.0617 C   0  0  1  0  0  0  0  0  0  0  0  0
   -0.5400   -1.4445    0.4968 C   0  0  0  0  0  0  0  0  0  0  0  0
    0.9611   -1.0737    0.3328 C   0  0  0  0  0  0  0  0  0  0  0  0
    1.2586    0.4382    0.0696 C   0  0  2  0  0  0  0  0  0  0  0  0
    1.2471    0.6398   -1.4902 C   0  0  0  0  0  0  0  0  0  0  0  0
    4.3102   -0.6892   -0.5759 C   0  0  1  0  0  0  0  0  0  0  0  0
    4.4203   -0.7307   -1.9917 O   0  0  0  0  0  0  0  0  0  0  0  0
    4.1987   -2.0388   -2.4669 C   0  0  0  0  0  0  0  0  0  0  0  0
    5.4908   -1.2009    0.0218 O   0  0  0  0  0  0  0  0  0  0  0  0
    9.7087   -1.8909    0.5285 H   0  0  0  0  0  0  0  0  0  0  0  0
    8.9833   -1.5093   -1.1373 H   0  0  0  0  0  0  0  0  0  0  0  0
    8.5841   -1.4251    2.5220 H   0  0  0  0  0  0  0  0  0  0  0  0
    6.8015   -1.5776    2.3538 H   0  0  0  0  0  0  0  0  0  0  0  0
    7.5715    0.0564    2.4156 H   0  0  0  0  0  0  0  0  0  0  0  0
    6.9140   -0.5877   -1.3756 H   0  0  0  0  0  0  0  0  0  0  0  0
    6.3376    1.5904   -1.0461 H   0  0  0  0  0  0  0  0  0  0  0  0
    7.3374    1.5409    0.4277 H   0  0  0  0  0  0  0  0  0  0  0  0
    5.0438    2.4182    0.8924 H   0  0  0  0  0  0  0  0  0  0  0  0
    5.2222    0.8186    1.6993 H   0  0  0  0  0  0  0  0  0  0  0  0
    3.9175    1.3845   -1.0469 H   0  0  0  0  0  0  0  0  0  0  0  0
    2.7244    0.4991    1.6335 H   0  0  0  0  0  0  0  0  0  0  0  0
    2.8832    3.1940    0.2155 H   0  0  0  0  0  0  0  0  0  0  0  0
    2.6278    2.7281    1.9362 H   0  0  0  0  0  0  0  0  0  0  0  0
    0.6879    3.0388   -0.3912 H   0  0  0  0  0  0  0  0  0  0  0  0
    0.3894    3.5467    1.2677 H   0  0  0  0  0  0  0  0  0  0  0  0
   -0.5439    1.8411    2.8516 H   0  0  0  0  0  0  0  0  0  0  0  0
    1.0863    1.1811    2.9036 H   0  0  0  0  0  0  0  0  0  0  0  0
   -0.2917    0.1057    2.6624 H   0  0  0  0  0  0  0  0  0  0  0  0
   -1.0706    1.5260   -0.8911 H   0  0  0  0  0  0  0  0  0  0  0  0
   -2.0084    3.1092    0.5963 H   0  0  0  0  0  0  0  0  0  0  0  0
   -2.5115    1.8420    1.7734 H   0  0  0  0  0  0  0  0  0  0  0  0
   -3.4102    1.9851   -1.1771 H   0  0  0  0  0  0  0  0  0  0  0  0
   -4.3209    2.5855    0.2234 H   0  0  0  0  0  0  0  0  0  0  0  0
   -4.3451    0.3986    1.2916 H   0  0  0  0  0  0  0  0  0  0  0  0
   -5.0682    1.0103   -2.4213 H   0  0  0  0  0  0  0  0  0  0  0  0
   -6.3118   -0.2589   -2.5523 H   0  0  0  0  0  0  0  0  0  0  0  0
   -4.6084   -0.7251   -2.4034 H   0  0  0  0  0  0  0  0  0  0  0  0
   -9.7660    1.3043   -1.2601 H   0  0  0  0  0  0  0  0  0  0  0  0
   -8.6290    2.6871   -1.0428 H   0  0  0  0  0  0  0  0  0  0  0  0
   -9.2271    1.7598    0.4033 H   0  0  0  0  0  0  0  0  0  0  0  0
   -6.1301   -1.3201    1.1171 H   0  0  0  0  0  0  0  0  0  0  0  0
   -7.0067   -2.1615   -1.4517 H   0  0  0  0  0  0  0  0  0  0  0  0
   -4.7198   -2.6691   -1.2581 H   0  0  0  0  0  0  0  0  0  0  0  0
   -5.2253   -3.4730    0.2571 H   0  0  0  0  0  0  0  0  0  0  0  0
   -2.8165   -2.9353    0.1331 H   0  0  0  0  0  0  0  0  0  0  0  0
   -4.2490   -1.6040    2.2084 H   0  0  0  0  0  0  0  0  0  0  0  0
   -2.4784    0.1257   -1.9813 H   0  0  0  0  0  0  0  0  0  0  0  0
   -2.0563   -1.7402   -1.7017 H   0  0  0  0  0  0  0  0  0  0  0  0
   -0.7044   -2.4594    0.0822 H   0  0  0  0  0  0  0  0  0  0  0  0
   -0.7339   -1.6005    1.5737 H   0  0  0  0  0  0  0  0  0  0  0  0
    1.3901   -1.6917   -0.4835 H   0  0  0  0  0  0  0  0  0  0  0  0
    1.4609   -1.4187    1.2643 H   0  0  0  0  0  0  0  0  0  0  0  0
    2.0294    0.0213   -1.9644 H   0  0  0  0  0  0  0  0  0  0  0  0
    1.4516    1.6770   -1.8145 H   0  0  0  0  0  0  0  0  0  0  0  0
    0.3083    0.2937   -1.9625 H   0  0  0  0  0  0  0  0  0  0  0  0
    3.4937   -1.3371   -0.2215 H   0  0  0  0  0  0  0  0  0  0  0  0
    4.4105   -2.0517   -3.5567 H   0  0  0  0  0  0  0  0  0  0  0  0
    3.1355   -2.3340   -2.3334 H   0  0  0  0  0  0  0  0  0  0  0  0
    4.8905   -2.7699   -1.9945 H   0  0  0  0  0  0  0  0  0  0  0  0
  1  2  2  0  0  0  0
  1 39  1  0  0  0  0
  1 40  1  0  0  0  0
  2  3  1  0  0  0  0
  3 41  1  0  0  0  0
  3 42  1  0  0  0  0
  3 43  1  0  0  0  0
  4  2  1  0  0  0  0
  4  5  1  0  0  0  0
  4 44  1  6  0  0  0
  5  6  1  0  0  0  0
  5 45  1  0  0  0  0
  5 46  1  0  0  0  0
  6 47  1  0  0  0  0
  6 48  1  0  0  0  0
  7  6  1  0  0  0  0
  7  8  1  0  0  0  0
  7 35  1  0  0  0  0
  7 49  1  6  0  0  0
  8  9  1  0  0  0  0
  8 50  1  1  0  0  0
  9 10  1  0  0  0  0
  9 51  1  0  0  0  0
  9 52  1  0  0  0  0
 10 11  1  0  0  0  0
 10 53  1  0  0  0  0
 10 54  1  0  0  0  0
 11 12  1  1  0  0  0
 11 13  1  0  0  0  0
 12 55  1  0  0  0  0
 12 56  1  0  0  0  0
 12 57  1  0  0  0  0
 13 14  1  0  0  0  0
 13 58  1  6  0  0  0
 14 15  1  0  0  0  0
 14 59  1  0  0  0  0
 14 60  1  0  0  0  0
 15 61  1  0  0  0  0
 15 62  1  0  0  0  0
 16 15  1  0  0  0  0
 16 17  1  0  0  0  0
 16 63  1  1  0  0  0
 17 18  1  0  0  0  0
 17 19  1  1  0  0  0
 17 23  1  0  0  0  0
 18 64  1  0  0  0  0
 18 65  1  0  0  0  0
 18 66  1  0  0  0  0
 19 20  2  0  0  0  0
 19 21  1  0  0  0  0
 21 22  1  0  0  0  0
 22 67  1  0  0  0  0
 22 68  1  0  0  0  0
 22 69  1  0  0  0  0
 23 24  1  0  0  0  0
 23 25  1  0  0  0  0
 23 70  1  1  0  0  0
 24 71  1  0  0  0  0
 25 26  1  0  0  0  0
 25 72  1  0  0  0  0
 25 73  1  0  0  0  0
 26 27  1  0  0  0  0
 26 28  1  0  0  0  0
 26 74  1  6  0  0  0
 27 75  1  0  0  0  0
 28 29  1  6  0  0  0
 28 16  1  0  0  0  0
 29 76  1  0  0  0  0
 29 77  1  0  0  0  0
 30 29  1  6  0  0  0
 30 31  1  0  0  0  0
 30 13  1  0  0  0  0
 30 28  1  0  0  0  0
 31 32  1  0  0  0  0
 31 78  1  0  0  0  0
 31 79  1  0  0  0  0
 32 33  1  0  0  0  0
 32 80  1  0  0  0  0
 32 81  1  0  0  0  0
 33 34  1  6  0  0  0
 33  8  1  0  0  0  0
 33 11  1  0  0  0  0
 34 82  1  0  0  0  0
 34 83  1  0  0  0  0
 34 84  1  0  0  0  0
 35 36  1  0  0  0  0
 35 38  1  0  0  0  0
 35 85  1  1  0  0  0
 36 37  1  0  0  0  0
 37 86  1  0  0  0  0
 37 87  1  0  0  0  0
 37 88  1  0  0  0  0
 38  4  1  0  0  0  0
M  END
>  <IDENTIFIER>
CNP0215143.1

>  <Energy>
2513.34

$$$$
