
 OpenBabel09082505403D

 81 84  0  0  0  0  0  0  0  0999 V2000
    3.3563    5.7249   -2.1450 C   0  0  0  0  0  0  0  0  0  0  0  0
    3.6118    4.2530   -2.1909 C   0  0  0  0  0  0  0  0  0  0  0  0
    4.2245    3.7705   -3.1335 O   0  0  0  0  0  0  0  0  0  0  0  0
    3.1491    3.4693   -1.1852 O   0  0  0  0  0  0  0  0  0  0  0  0
    3.3055    2.0998   -1.1459 C   0  0  0  0  0  0  0  0  0  0  0  0
    2.6618    1.4889    0.1200 C   0  0  2  0  0  0  0  0  0  0  0  0
    2.9657    0.0991    0.1177 O   0  0  0  0  0  0  0  0  0  0  0  0
    4.1287   -0.2537    0.8506 C   0  0  2  0  0  0  0  0  0  0  0  0
    5.2624   -0.3270   -0.0095 O   0  0  0  0  0  0  0  0  0  0  0  0
    5.0787   -1.2994   -1.0322 C   0  0  0  0  0  0  0  0  0  0  0  0
    4.8959   -2.7179   -0.4398 C   0  0  2  0  0  0  0  0  0  0  0  0
    4.7511   -3.6945   -1.4410 O   0  0  0  0  0  0  0  0  0  0  0  0
    3.7156   -2.7490    0.5623 C   0  0  2  0  0  0  0  0  0  0  0  0
    2.4505   -2.6592   -0.0592 O   0  0  0  0  0  0  0  0  0  0  0  0
    3.9011   -1.6059    1.5815 C   0  0  1  0  0  0  0  0  0  0  0  0
    4.9677   -1.8967    2.4581 O   0  0  0  0  0  0  0  0  0  0  0  0
    1.0958    1.5937    0.1824 C   0  0  2  0  0  0  0  0  0  0  0  0
    0.6314    3.0709    0.1422 C   0  0  0  0  0  0  0  0  0  0  0  0
    0.6614    0.9725    1.5374 C   0  0  0  0  0  0  0  0  0  0  0  0
   -0.8098    0.5949    1.5407 C   0  0  0  0  0  0  0  0  0  0  0  0
   -1.0137   -0.4664    0.4284 C   0  0  1  0  0  0  0  0  0  0  0  0
   -2.4253   -1.2563    0.4262 C   0  0  1  0  0  0  0  0  0  0  0  0
   -2.1216   -2.7290   -0.0230 C   0  0  0  0  0  0  0  0  0  0  0  0
   -3.0032   -1.4354    1.8891 C   0  0  0  0  0  0  0  0  0  0  0  0
   -3.9297   -0.2915    2.2903 C   0  0  0  0  0  0  0  0  0  0  0  0
   -5.1872   -0.2152    1.3860 C   0  0  0  0  0  0  0  0  0  0  0  0
   -5.0011   -0.7540   -0.0753 C   0  0  0  0  0  0  0  0  0  0  0  0
   -5.4352   -2.2480   -0.1610 C   0  0  0  0  0  0  0  0  0  0  0  0
   -6.0116   -0.0241   -1.0034 C   0  0  0  0  0  0  0  0  0  0  0  0
   -3.5011   -0.5614   -0.5534 C   0  0  1  0  0  0  0  0  0  0  0  0
   -3.1590    0.9422   -0.7589 C   0  0  0  0  0  0  0  0  0  0  0  0
   -1.7783    1.1959   -1.4004 C   0  0  0  0  0  0  0  0  0  0  0  0
   -0.6517    0.2170   -0.9451 C   0  0  2  0  0  0  0  0  0  0  0  0
   -0.4864   -0.8389   -2.0621 C   0  0  0  0  0  0  0  0  0  0  0  0
    0.6189    0.8782   -0.9624 O   0  0  0  0  0  0  0  0  0  0  0  0
    3.7877    6.2277   -3.0369 H   0  0  0  0  0  0  0  0  0  0  0  0
    3.8176    6.1528   -1.2309 H   0  0  0  0  0  0  0  0  0  0  0  0
    2.2618    5.9085   -2.1227 H   0  0  0  0  0  0  0  0  0  0  0  0
    4.3944    1.8782   -1.1345 H   0  0  0  0  0  0  0  0  0  0  0  0
    2.8637    1.6346   -2.0545 H   0  0  0  0  0  0  0  0  0  0  0  0
    3.0719    2.0226    1.0089 H   0  0  0  0  0  0  0  0  0  0  0  0
    4.3480    0.4757    1.6623 H   0  0  0  0  0  0  0  0  0  0  0  0
    5.9876   -1.3068   -1.6698 H   0  0  0  0  0  0  0  0  0  0  0  0
    4.2453   -1.0021   -1.7046 H   0  0  0  0  0  0  0  0  0  0  0  0
    5.8285   -2.9535    0.1152 H   0  0  0  0  0  0  0  0  0  0  0  0
    4.0230   -3.4040   -2.0491 H   0  0  0  0  0  0  0  0  0  0  0  0
    3.7232   -3.7250    1.0942 H   0  0  0  0  0  0  0  0  0  0  0  0
    2.5037   -2.0893   -0.8651 H   0  0  0  0  0  0  0  0  0  0  0  0
    2.9911   -1.5341    2.2152 H   0  0  0  0  0  0  0  0  0  0  0  0
    5.8270   -1.6987    2.0060 H   0  0  0  0  0  0  0  0  0  0  0  0
    1.1594    3.6604    0.9225 H   0  0  0  0  0  0  0  0  0  0  0  0
   -0.4451    3.1871    0.3542 H   0  0  0  0  0  0  0  0  0  0  0  0
    0.8142    3.5290   -0.8489 H   0  0  0  0  0  0  0  0  0  0  0  0
    0.9031    1.6620    2.3768 H   0  0  0  0  0  0  0  0  0  0  0  0
    1.2184    0.0352    1.7455 H   0  0  0  0  0  0  0  0  0  0  0  0
   -1.4368    1.4931    1.4194 H   0  0  0  0  0  0  0  0  0  0  0  0
   -1.0057    0.1802    2.5473 H   0  0  0  0  0  0  0  0  0  0  0  0
   -0.2403   -1.2320    0.6672 H   0  0  0  0  0  0  0  0  0  0  0  0
   -1.4013   -3.2017    0.6804 H   0  0  0  0  0  0  0  0  0  0  0  0
   -1.6893   -2.8412   -1.0220 H   0  0  0  0  0  0  0  0  0  0  0  0
   -3.0040   -3.3833   -0.0351 H   0  0  0  0  0  0  0  0  0  0  0  0
   -2.1841   -1.6093    2.6161 H   0  0  0  0  0  0  0  0  0  0  0  0
   -3.6187   -2.3437    2.0036 H   0  0  0  0  0  0  0  0  0  0  0  0
   -3.3624    0.6495    2.2217 H   0  0  0  0  0  0  0  0  0  0  0  0
   -4.2521   -0.3667    3.3510 H   0  0  0  0  0  0  0  0  0  0  0  0
   -5.4837    0.8571    1.3957 H   0  0  0  0  0  0  0  0  0  0  0  0
   -6.0363   -0.7644    1.8495 H   0  0  0  0  0  0  0  0  0  0  0  0
   -6.5164   -2.3528    0.0756 H   0  0  0  0  0  0  0  0  0  0  0  0
   -4.9549   -2.9274    0.5477 H   0  0  0  0  0  0  0  0  0  0  0  0
   -5.2773   -2.6412   -1.1888 H   0  0  0  0  0  0  0  0  0  0  0  0
   -7.0578   -0.2279   -0.6863 H   0  0  0  0  0  0  0  0  0  0  0  0
   -5.8936   -0.3617   -2.0561 H   0  0  0  0  0  0  0  0  0  0  0  0
   -5.9079    1.0774   -0.9667 H   0  0  0  0  0  0  0  0  0  0  0  0
   -3.4168   -0.9942   -1.5709 H   0  0  0  0  0  0  0  0  0  0  0  0
   -3.2160    1.4535    0.2135 H   0  0  0  0  0  0  0  0  0  0  0  0
   -3.8761    1.4714   -1.4132 H   0  0  0  0  0  0  0  0  0  0  0  0
   -1.5436    2.2508   -1.1918 H   0  0  0  0  0  0  0  0  0  0  0  0
   -1.8613    1.1680   -2.5102 H   0  0  0  0  0  0  0  0  0  0  0  0
   -0.1042   -0.3489   -2.9849 H   0  0  0  0  0  0  0  0  0  0  0  0
   -1.4298   -1.3082   -2.3788 H   0  0  0  0  0  0  0  0  0  0  0  0
    0.2592   -1.6077   -1.7698 H   0  0  0  0  0  0  0  0  0  0  0  0
  1  2  1  0  0  0  0
  1 36  1  0  0  0  0
  1 37  1  0  0  0  0
  1 38  1  0  0  0  0
  2  3  2  0  0  0  0
  2  4  1  0  0  0  0
  4  5  1  0  0  0  0
  5 39  1  0  0  0  0
  5 40  1  0  0  0  0
  6  5  1  0  0  0  0
  6  7  1  0  0  0  0
  6 17  1  0  0  0  0
  6 41  1  1  0  0  0
  8  7  1  0  0  0  0
  8  9  1  0  0  0  0
  8 42  1  1  0  0  0
  9 10  1  0  0  0  0
 10 11  1  0  0  0  0
 10 43  1  0  0  0  0
 10 44  1  0  0  0  0
 11 12  1  0  0  0  0
 11 13  1  0  0  0  0
 11 45  1  1  0  0  0
 12 46  1  0  0  0  0
 13 14  1  0  0  0  0
 13 15  1  0  0  0  0
 13 47  1  1  0  0  0
 14 48  1  0  0  0  0
 15 16  1  0  0  0  0
 15  8  1  0  0  0  0
 15 49  1  1  0  0  0
 16 50  1  0  0  0  0
 17 18  1  6  0  0  0
 17 19  1  0  0  0  0
 18 51  1  0  0  0  0
 18 52  1  0  0  0  0
 18 53  1  0  0  0  0
 19 20  1  0  0  0  0
 19 54  1  0  0  0  0
 19 55  1  0  0  0  0
 20 56  1  0  0  0  0
 20 57  1  0  0  0  0
 21 20  1  0  0  0  0
 21 22  1  0  0  0  0
 21 58  1  1  0  0  0
 22 23  1  6  0  0  0
 22 24  1  0  0  0  0
 23 59  1  0  0  0  0
 23 60  1  0  0  0  0
 23 61  1  0  0  0  0
 24 25  1  0  0  0  0
 24 62  1  0  0  0  0
 24 63  1  0  0  0  0
 25 26  1  0  0  0  0
 25 64  1  0  0  0  0
 25 65  1  0  0  0  0
 26 27  1  0  0  0  0
 26 66  1  0  0  0  0
 26 67  1  0  0  0  0
 27 28  1  0  0  0  0
 27 29  1  0  0  0  0
 27 30  1  0  0  0  0
 28 68  1  0  0  0  0
 28 69  1  0  0  0  0
 28 70  1  0  0  0  0
 29 71  1  0  0  0  0
 29 72  1  0  0  0  0
 29 73  1  0  0  0  0
 30 31  1  0  0  0  0
 30 22  1  0  0  0  0
 30 74  1  6  0  0  0
 31 32  1  0  0  0  0
 31 75  1  0  0  0  0
 31 76  1  0  0  0  0
 32 33  1  0  0  0  0
 32 77  1  0  0  0  0
 32 78  1  0  0  0  0
 33 34  1  6  0  0  0
 33 35  1  0  0  0  0
 33 21  1  0  0  0  0
 34 79  1  0  0  0  0
 34 80  1  0  0  0  0
 34 81  1  0  0  0  0
 35 17  1  0  0  0  0
M  END
>  <IDENTIFIER>
CNP0322944.1

>  <Energy>
1031.95

$$$$
