
 OpenBabel09062506222D

141140  0  0  0  0  0  0  0  0999 V2000
   14.2894    8.2500   -0.0000 C   0  0  0  0  0  0  0  0  0  0  0  0
   12.9904    7.5000   -0.0000 C   0  0  0  0  0  0  0  0  0  0  0  0
   11.6913    6.7500    0.0000 C   0  0  0  0  0  0  0  0  0  0  0  0
   10.3923    6.0000    0.0000 C   0  0  0  0  0  0  0  0  0  0  0  0
    9.0933    5.2500    0.0000 C   0  0  0  0  0  0  0  0  0  0  0  0
    7.7942    4.5000    0.0000 C   0  0  0  0  0  0  0  0  0  0  0  0
    6.4952    3.7500    0.0000 C   0  0  0  0  0  0  0  0  0  0  0  0
    5.1962    3.0000    0.0000 C   0  0  0  0  0  0  0  0  0  0  0  0
    3.5857    2.7466   -0.2287 C   0  0  0  0  0  0  0  0  0  0  0  0
    3.0324    1.1866   -0.0019 C   0  0  0  0  0  0  0  0  0  0  0  0
    1.4676    0.7359   -0.2788 C   0  0  0  0  0  0  0  0  0  0  0  0
    0.8470   -0.6930    0.2016 C   0  0  0  0  0  0  0  0  0  0  0  0
    1.0657   -0.9913    1.3647 O   0  0  0  0  0  0  0  0  0  0  0  0
   -0.1329   -1.4810   -0.5125 O   0  0  0  0  0  0  0  0  0  0  0  0
   -1.2990   -2.2500    0.0000 C   0  0  1  0  0  0  0  0  0  0  0  0
   -2.0490   -0.9510   -0.0000 C   0  0  0  0  0  0  0  0  0  0  0  0
   -2.9396   -0.1296   -0.8448 O   0  0  0  0  0  0  0  0  0  0  0  0
   -3.8785    0.8383   -0.2640 C   0  0  0  0  0  0  0  0  0  0  0  0
   -3.9727    0.8414    0.9540 O   0  0  0  0  0  0  0  0  0  0  0  0
   -4.8285    1.9849   -0.9877 C   0  0  0  0  0  0  0  0  0  0  0  0
   -5.7990    2.9462    0.0000 C   0  0  0  0  0  0  0  0  0  0  0  0
   -6.5490    4.2452    0.0000 C   0  0  0  0  0  0  0  0  0  0  0  0
   -7.2990    5.5442    0.0000 C   0  0  0  0  0  0  0  0  0  0  0  0
   -8.0490    6.8433    0.0000 C   0  0  0  0  0  0  0  0  0  0  0  0
   -8.7990    8.1423    0.0000 C   0  0  0  0  0  0  0  0  0  0  0  0
   -9.5490    9.4413    0.0000 C   0  0  0  0  0  0  0  0  0  0  0  0
  -10.0276   11.0021    0.3994 C   0  0  0  0  0  0  0  0  0  0  0  0
  -11.3677   11.7503   -0.3404 C   0  0  0  0  0  0  0  0  0  0  0  0
  -11.7990   13.3385    0.0000 C   0  0  0  0  0  0  0  0  0  0  0  0
  -12.5490   14.6375    0.0000 C   0  0  0  0  0  0  0  0  0  0  0  0
  -13.2990   15.9365    0.0000 C   0  0  0  0  0  0  0  0  0  0  0  0
  -14.0490   17.2356    0.0000 C   0  0  0  0  0  0  0  0  0  0  0  0
  -14.7990   18.5346    0.0000 C   0  0  0  0  0  2  0  0  0  0  0  0
  -15.5490   19.8336    0.0000 C   0  0  0  0  0  0  0  0  0  0  0  0
  -16.2990   21.1327    0.0000 C   0  0  0  0  0  0  0  0  0  0  0  0
  -16.8481   19.0836    0.0000 C   0  0  0  0  0  0  0  0  0  0  0  0
   -0.5490   -3.5490    0.0000 C   0  0  0  0  0  0  0  0  0  0  0  0
    0.8245   -3.9413    0.3713 O   0  0  0  0  0  0  0  0  0  0  0  0
    1.4103   -5.2293    0.0417 C   0  0  0  0  0  0  0  0  0  0  0  0
    0.7779   -5.9257   -0.7381 O   0  0  0  0  0  0  0  0  0  0  0  0
    2.8139   -5.9242    0.5838 C   0  0  0  0  0  0  0  0  0  0  0  0
    3.2010   -7.4462    0.0000 C   0  0  0  0  0  0  0  0  0  0  0  0
    3.9510   -8.7452    0.0000 C   0  0  0  0  0  0  0  0  0  0  0  0
    4.7010  -10.0442    0.0000 C   0  0  0  0  0  0  0  0  0  0  0  0
    5.4510  -11.3433    0.0000 C   0  0  0  0  0  0  0  0  0  0  0  0
    6.2010  -12.6423    0.0000 C   0  0  0  0  0  0  0  0  0  0  0  0
    6.9510  -13.9413    0.0000 C   0  0  0  0  0  0  0  0  0  0  0  0
    7.3648  -15.5383   -0.3181 C   0  0  0  0  0  0  0  0  0  0  0  0
    8.7432  -16.2632    0.3714 C   0  0  0  0  0  0  0  0  0  0  0  0
    9.2010  -17.8385    0.0000 C   0  0  0  0  0  0  0  0  0  0  0  0
    9.9510  -19.1375    0.0000 C   0  0  0  0  0  0  0  0  0  0  0  0
   10.7010  -20.4365    0.0000 C   0  0  0  0  0  0  0  0  0  0  0  0
   11.2500  -18.3875    0.0000 C   0  0  0  0  0  0  0  0  0  0  0  0
   15.0440    7.4144   -0.0558 H   0  0  0  0  0  0  0  0  0  0  0  0
   14.1362    8.7776   -0.9711 H   0  0  0  0  0  0  0  0  0  0  0  0
   15.2160    8.7850    0.0000 H   0  0  0  0  0  0  0  0  0  0  0  0
   13.2903    6.9915    0.9571 H   0  0  0  0  0  0  0  0  0  0  0  0
   13.3047    6.8541   -0.8758 H   0  0  0  0  0  0  0  0  0  0  0  0
   11.3535    7.3152   -0.9198 H   0  0  0  0  0  0  0  0  0  0  0  0
   11.3149    7.4478    0.8121 H   0  0  0  0  0  0  0  0  0  0  0  0
   10.8064    5.5480    0.9671 H   0  0  0  0  0  0  0  0  0  0  0  0
   10.7448    5.3779   -0.8702 H   0  0  0  0  0  0  0  0  0  0  0  0
    8.7826    5.8295    0.9201 H   0  0  0  0  0  0  0  0  0  0  0  0
    9.5408    4.2609    0.3655 H   0  0  0  0  0  0  0  0  0  0  0  0
    7.3475    5.4717   -0.4000 H   0  0  0  0  0  0  0  0  0  0  0  0
    8.1196    3.8968   -0.9064 H   0  0  0  0  0  0  0  0  0  0  0  0
    6.1426    4.0792   -1.0334 H   0  0  0  0  0  0  0  0  0  0  0  0
    6.0779    4.4338    0.7876 H   0  0  0  0  0  0  0  0  0  0  0  0
    5.5180    2.1652   -0.6754 H   0  0  0  0  0  0  0  0  0  0  0  0
    5.2653    2.5312    1.0124 H   0  0  0  0  0  0  0  0  0  0  0  0
    3.3537    3.0305   -1.2766 H   0  0  0  0  0  0  0  0  0  0  0  0
    3.0174    3.4244    0.4403 H   0  0  0  0  0  0  0  0  0  0  0  0
    3.6609    0.5133   -0.6214 H   0  0  0  0  0  0  0  0  0  0  0  0
    3.2452    0.9478    1.0614 H   0  0  0  0  0  0  0  0  0  0  0  0
    1.2177    0.8988   -1.3477 H   0  0  0  0  0  0  0  0  0  0  0  0
    0.8793    1.4826    0.2962 H   0  0  0  0  0  0  0  0  0  0  0  0
   -1.1820   -2.2667    1.1209 H   0  0  0  0  0  0  0  0  0  0  0  0
   -2.8464   -1.2967    0.7091 H   0  0  0  0  0  0  0  0  0  0  0  0
   -1.5331   -0.1894    0.6432 H   0  0  0  0  0  0  0  0  0  0  0  0
   -4.1472    2.6608   -1.5432 H   0  0  0  0  0  0  0  0  0  0  0  0
   -5.4909    1.4838   -1.7253 H   0  0  0  0  0  0  0  0  0  0  0  0
   -6.3846    2.1937    0.5946 H   0  0  0  0  0  0  0  0  0  0  0  0
   -5.0173    3.2425    0.7359 H   0  0  0  0  0  0  0  0  0  0  0  0
   -7.3731    3.5953   -0.4362 H   0  0  0  0  0  0  0  0  0  0  0  0
   -5.8494    4.6381   -0.7778 H   0  0  0  0  0  0  0  0  0  0  0  0
   -7.8586    5.3302   -0.9753 H   0  0  0  0  0  0  0  0  0  0  0  0
   -7.9380    5.1543    0.8423 H   0  0  0  0  0  0  0  0  0  0  0  0
   -7.3955    7.0990    0.8981 H   0  0  0  0  0  0  0  0  0  0  0  0
   -7.4740    7.2058   -0.9145 H   0  0  0  0  0  0  0  0  0  0  0  0
   -7.9005    8.8359    0.0949 H   0  0  0  0  0  0  0  0  0  0  0  0
   -9.2186    7.9124    1.0194 H   0  0  0  0  0  0  0  0  0  0  0  0
   -9.4311    9.6550   -1.0912 H   0  0  0  0  0  0  0  0  0  0  0  0
  -10.5895    9.0278    0.0330 H   0  0  0  0  0  0  0  0  0  0  0  0
  -10.2242   11.0134    1.4916 H   0  0  0  0  0  0  0  0  0  0  0  0
   -9.1482   11.6559    0.2179 H   0  0  0  0  0  0  0  0  0  0  0  0
  -12.2495   11.1185   -0.1027 H   0  0  0  0  0  0  0  0  0  0  0  0
  -11.2095   11.6932   -1.4376 H   0  0  0  0  0  0  0  0  0  0  0  0
  -10.7837   13.7504   -0.2273 H   0  0  0  0  0  0  0  0  0  0  0  0
  -11.7520   13.2096    1.1109 H   0  0  0  0  0  0  0  0  0  0  0  0
  -12.3518   14.7425   -1.1016 H   0  0  0  0  0  0  0  0  0  0  0  0
  -13.4463   13.9668    0.1966 H   0  0  0  0  0  0  0  0  0  0  0  0
  -13.5698   15.7771    1.0826 H   0  0  0  0  0  0  0  0  0  0  0  0
  -14.1544   15.5710   -0.6574 H   0  0  0  0  0  0  0  0  0  0  0  0
  -13.6883   17.5040   -1.0271 H   0  0  0  0  0  0  0  0  0  0  0  0
  -13.3179   17.7308    0.6893 H   0  0  0  0  0  0  0  0  0  0  0  0
  -15.0830   19.9883    1.0084 H   0  0  0  0  0  0  0  0  0  0  0  0
  -15.4068   21.7733   -0.1846 H   0  0  0  0  0  0  0  0  0  0  0  0
  -16.6359   21.2268    1.0741 H   0  0  0  0  0  0  0  0  0  0  0  0
  -16.8340   22.0594    0.0000 H   0  0  0  0  0  0  0  0  0  0  0  0
  -16.8789   18.6823   -1.0513 H   0  0  0  0  0  0  0  0  0  0  0  0
  -16.8525   18.5151    0.9768 H   0  0  0  0  0  0  0  0  0  0  0  0
  -17.7748   18.5486    0.0000 H   0  0  0  0  0  0  0  0  0  0  0  0
   -0.6441   -3.8397   -1.0704 H   0  0  0  0  0  0  0  0  0  0  0  0
   -1.2145   -4.2867    0.5107 H   0  0  0  0  0  0  0  0  0  0  0  0
    2.7143   -6.0047    1.6859 H   0  0  0  0  0  0  0  0  0  0  0  0
    3.6653   -5.2437    0.3679 H   0  0  0  0  0  0  0  0  0  0  0  0
    3.3003   -7.1583   -1.0745 H   0  0  0  0  0  0  0  0  0  0  0  0
    2.1423   -7.8075    0.1416 H   0  0  0  0  0  0  0  0  0  0  0  0
    3.2416   -9.2203   -0.7441 H   0  0  0  0  0  0  0  0  0  0  0  0
    3.5876   -8.9544    1.0440 H   0  0  0  0  0  0  0  0  0  0  0  0
    5.1408   -9.8039   -1.0163 H   0  0  0  0  0  0  0  0  0  0  0  0
    5.4864   -9.5705    0.6614 H   0  0  0  0  0  0  0  0  0  0  0  0
    4.5836  -11.7144   -0.6394 H   0  0  0  0  0  0  0  0  0  0  0  0
    5.1901  -11.4983    1.0873 H   0  0  0  0  0  0  0  0  0  0  0  0
    5.3092  -13.3119    0.2232 H   0  0  0  0  0  0  0  0  0  0  0  0
    6.3716  -12.5518   -1.1075 H   0  0  0  0  0  0  0  0  0  0  0  0
    7.0374  -14.0441    1.1110 H   0  0  0  0  0  0  0  0  0  0  0  0
    7.9583  -13.5382   -0.2747 H   0  0  0  0  0  0  0  0  0  0  0  0
    7.4686  -15.6253   -1.4199 H   0  0  0  0  0  0  0  0  0  0  0  0
    6.4967  -16.1630   -0.0197 H   0  0  0  0  0  0  0  0  0  0  0  0
    9.6081  -15.6173    0.1114 H   0  0  0  0  0  0  0  0  0  0  0  0
    8.6150  -16.2116    1.4728 H   0  0  0  0  0  0  0  0  0  0  0  0
    8.1808  -18.2622    0.1758 H   0  0  0  0  0  0  0  0  0  0  0  0
    9.1704  -17.6805   -1.1073 H   0  0  0  0  0  0  0  0  0  0  0  0
    9.6995  -19.2990    1.0857 H   0  0  0  0  0  0  0  0  0  0  0  0
    9.8132  -21.1047    0.1292 H   0  0  0  0  0  0  0  0  0  0  0  0
   10.9072  -20.4768   -1.1009 H   0  0  0  0  0  0  0  0  0  0  0  0
   11.2360  -21.3631    0.0000 H   0  0  0  0  0  0  0  0  0  0  0  0
   11.3168  -18.0193   -1.0600 H   0  0  0  0  0  0  0  0  0  0  0  0
   11.2606  -17.7788    0.9539 H   0  0  0  0  0  0  0  0  0  0  0  0
   12.1766  -17.8525    0.0000 H   0  0  0  0  0  0  0  0  0  0  0  0
  1  2  1  0  0  0  0
  1 54  1  0  0  0  0
  1 55  1  0  0  0  0
  1 56  1  0  0  0  0
  2  3  1  0  0  0  0
  2 57  1  0  0  0  0
  2 58  1  0  0  0  0
  3  4  1  0  0  0  0
  3 59  1  0  0  0  0
  3 60  1  0  0  0  0
  4  5  1  0  0  0  0
  4 61  1  0  0  0  0
  4 62  1  0  0  0  0
  5  6  1  0  0  0  0
  5 63  1  0  0  0  0
  5 64  1  0  0  0  0
  6  7  1  0  0  0  0
  6 65  1  0  0  0  0
  6 66  1  0  0  0  0
  7  8  1  0  0  0  0
  7 67  1  0  0  0  0
  7 68  1  0  0  0  0
  8  9  1  0  0  0  0
  8 69  1  0  0  0  0
  8 70  1  0  0  0  0
  9 10  1  0  0  0  0
  9 71  1  0  0  0  0
  9 72  1  0  0  0  0
 10 11  1  0  0  0  0
 10 73  1  0  0  0  0
 10 74  1  0  0  0  0
 11 12  1  0  0  0  0
 11 75  1  0  0  0  0
 11 76  1  0  0  0  0
 12 13  2  0  0  0  0
 12 14  1  0  0  0  0
 14 15  1  0  0  0  0
 15 16  1  0  0  0  0
 15 37  1  0  0  0  0
 15 77  1  1  0  0  0
 16 17  1  0  0  0  0
 16 78  1  0  0  0  0
 16 79  1  0  0  0  0
 17 18  1  0  0  0  0
 18 19  2  0  0  0  0
 18 20  1  0  0  0  0
 20 21  1  0  0  0  0
 20 80  1  0  0  0  0
 20 81  1  0  0  0  0
 21 22  1  0  0  0  0
 21 82  1  0  0  0  0
 21 83  1  0  0  0  0
 22 23  1  0  0  0  0
 22 84  1  0  0  0  0
 22 85  1  0  0  0  0
 23 24  1  0  0  0  0
 23 86  1  0  0  0  0
 23 87  1  0  0  0  0
 24 25  1  0  0  0  0
 24 88  1  0  0  0  0
 24 89  1  0  0  0  0
 25 26  1  0  0  0  0
 25 90  1  0  0  0  0
 25 91  1  0  0  0  0
 26 27  1  0  0  0  0
 26 92  1  0  0  0  0
 26 93  1  0  0  0  0
 27 28  1  0  0  0  0
 27 94  1  0  0  0  0
 27 95  1  0  0  0  0
 28 29  1  0  0  0  0
 28 96  1  0  0  0  0
 28 97  1  0  0  0  0
 29 30  1  0  0  0  0
 29 98  1  0  0  0  0
 29 99  1  0  0  0  0
 30 31  1  0  0  0  0
 30100  1  0  0  0  0
 30101  1  0  0  0  0
 31 32  1  0  0  0  0
 31102  1  0  0  0  0
 31103  1  0  0  0  0
 32 33  1  0  0  0  0
 32104  1  0  0  0  0
 32105  1  0  0  0  0
 33 34  1  0  0  0  0
 34 35  1  0  0  0  0
 34 36  1  0  0  0  0
 34106  1  0  0  0  0
 35107  1  0  0  0  0
 35108  1  0  0  0  0
 35109  1  0  0  0  0
 36110  1  0  0  0  0
 36111  1  0  0  0  0
 36112  1  0  0  0  0
 37 38  1  0  0  0  0
 37113  1  0  0  0  0
 37114  1  0  0  0  0
 38 39  1  0  0  0  0
 39 40  2  0  0  0  0
 39 41  1  0  0  0  0
 41 42  1  0  0  0  0
 41115  1  0  0  0  0
 41116  1  0  0  0  0
 42 43  1  0  0  0  0
 42117  1  0  0  0  0
 42118  1  0  0  0  0
 43 44  1  0  0  0  0
 43119  1  0  0  0  0
 43120  1  0  0  0  0
 44 45  1  0  0  0  0
 44121  1  0  0  0  0
 44122  1  0  0  0  0
 45 46  1  0  0  0  0
 45123  1  0  0  0  0
 45124  1  0  0  0  0
 46 47  1  0  0  0  0
 46125  1  0  0  0  0
 46126  1  0  0  0  0
 47 48  1  0  0  0  0
 47127  1  0  0  0  0
 47128  1  0  0  0  0
 48 49  1  0  0  0  0
 48129  1  0  0  0  0
 48130  1  0  0  0  0
 49 50  1  0  0  0  0
 49131  1  0  0  0  0
 49132  1  0  0  0  0
 50 51  1  0  0  0  0
 50133  1  0  0  0  0
 50134  1  0  0  0  0
 51 52  1  0  0  0  0
 51 53  1  0  0  0  0
 51135  1  0  0  0  0
 52136  1  0  0  0  0
 52137  1  0  0  0  0
 52138  1  0  0  0  0
 53139  1  0  0  0  0
 53140  1  0  0  0  0
 53141  1  0  0  0  0
M  END
>  <IDENTIFIER>
CNP0585208.2

>  <Energy>
13332.8

$$$$
