
 OpenBabel09122522083D

109114  0  0  0  0  0  0  0  0999 V2000
   -8.7052   -3.4036    1.4176 O   0  0  0  0  0  0  0  0  0  0  0  0
   -7.4870   -4.0948    1.3958 C   0  0  0  0  0  0  0  0  0  0  0  0
   -6.3823   -3.1901    1.9487 C   0  0  2  0  0  0  0  0  0  0  0  0
   -6.2923   -2.0244    1.1428 O   0  0  0  0  0  0  0  0  0  0  0  0
   -5.4140   -1.0772    1.7357 C   0  0  2  0  0  0  0  0  0  0  0  0
   -5.4404    0.1118    0.9906 O   0  0  0  0  0  0  0  0  0  0  0  0
   -3.9604   -1.6158    1.8120 C   0  0  1  0  0  0  0  0  0  0  0  0
   -3.1802   -0.6478    2.4812 O   0  0  0  0  0  0  0  0  0  0  0  0
   -1.7868   -0.7560    2.2472 C   0  0  2  0  0  0  0  0  0  0  0  0
   -1.1580   -1.3648    3.3828 O   0  0  0  0  0  0  0  0  0  0  0  0
   -0.6093   -0.4493    4.3362 C   0  0  0  0  0  0  0  0  0  0  0  0
   -1.4791    0.8100    4.5078 C   0  0  2  0  0  0  0  0  0  0  0  0
   -2.7843    0.4145    4.8592 O   0  0  0  0  0  0  0  0  0  0  0  0
   -1.4940    1.5939    3.1658 C   0  0  2  0  0  0  0  0  0  0  0  0
   -2.6696    2.3605    3.0632 O   0  0  0  0  0  0  0  0  0  0  0  0
   -1.2304    0.6507    1.9427 C   0  0  2  0  0  0  0  0  0  0  0  0
   -1.7510    1.1079    0.7070 O   0  0  0  0  0  0  0  0  0  0  0  0
   -1.1741    2.3302    0.2672 C   0  0  2  0  0  0  0  0  0  0  0  0
   -2.0144    3.4226    0.6288 O   0  0  0  0  0  0  0  0  0  0  0  0
   -3.3202    3.2747    0.0817 C   0  0  0  0  0  0  0  0  0  0  0  0
   -3.2788    3.2578   -1.4597 C   0  0  2  0  0  0  0  0  0  0  0  0
   -4.5612    3.1437   -2.0236 O   0  0  0  0  0  0  0  0  0  0  0  0
   -2.3197    2.1615   -1.9836 C   0  0  2  0  0  0  0  0  0  0  0  0
   -2.8005    0.8441   -1.8222 O   0  0  0  0  0  0  0  0  0  0  0  0
   -0.9537    2.3426   -1.2693 C   0  0  2  0  0  0  0  0  0  0  0  0
    0.0124    1.3732   -1.6908 O   0  0  0  0  0  0  0  0  0  0  0  0
    0.4970    1.6773   -3.0036 C   0  0  2  0  0  0  0  0  0  0  0  0
    0.2945    0.5371   -3.8483 O   0  0  0  0  0  0  0  0  0  0  0  0
    1.1280    0.4993   -5.0161 C   0  0  0  0  0  0  0  0  0  0  0  0
    1.5323    1.9031   -5.5101 C   0  0  2  0  0  0  0  0  0  0  0  0
    2.2595    1.8664   -6.7109 O   0  0  0  0  0  0  0  0  0  0  0  0
    2.2952    2.6837   -4.4067 C   0  0  1  0  0  0  0  0  0  0  0  0
    1.9978    4.0574   -4.4972 O   0  0  0  0  0  0  0  0  0  0  0  0
    1.9922    2.1075   -2.9788 C   0  0  2  0  0  0  0  0  0  0  0  0
    2.7548    0.9301   -2.6937 O   0  0  0  0  0  0  0  0  0  0  0  0
    4.1115    1.1734   -2.3333 C   0  0  2  0  0  0  0  0  0  0  0  0
    4.8747    1.4454   -3.5031 O   0  0  0  0  0  0  0  0  0  0  0  0
    6.2181    1.7618   -3.1842 C   0  0  0  0  0  0  0  0  0  0  0  0
    6.9307    0.5224   -2.6172 C   0  0  2  0  0  0  0  0  0  0  0  0
    7.0228   -0.4995   -3.5891 O   0  0  0  0  0  0  0  0  0  0  0  0
    6.1748    0.0237   -1.3689 C   0  0  1  0  0  0  0  0  0  0  0  0
    6.3967    0.8710   -0.2610 O   0  0  0  0  0  0  0  0  0  0  0  0
    4.6623   -0.1237   -1.6804 C   0  0  1  0  0  0  0  0  0  0  0  0
    3.9372   -0.3946   -0.4916 O   0  0  0  0  0  0  0  0  0  0  0  0
    3.6250   -1.7734   -0.2990 C   0  0  2  0  0  0  0  0  0  0  0  0
    2.2916   -1.8941    0.1802 O   0  0  0  0  0  0  0  0  0  0  0  0
    2.1213   -1.2018    1.4104 C   0  0  0  0  0  0  0  0  0  0  0  0
    3.0230   -1.7701    2.5236 C   0  0  2  0  0  0  0  0  0  0  0  0
    2.8608   -1.0566    3.7233 O   0  0  0  0  0  0  0  0  0  0  0  0
    4.4916   -1.7505    2.0630 C   0  0  1  0  0  0  0  0  0  0  0  0
    5.3480   -2.3309    3.0150 O   0  0  0  0  0  0  0  0  0  0  0  0
    4.6133   -2.4429    0.6929 C   0  0  1  0  0  0  0  0  0  0  0  0
    4.3802   -3.8307    0.7923 O   0  0  0  0  0  0  0  0  0  0  0  0
   -3.9362   -2.9714    2.5663 C   0  0  1  0  0  0  0  0  0  0  0  0
   -4.1112   -2.8100    3.9575 O   0  0  0  0  0  0  0  0  0  0  0  0
   -5.0089   -3.9200    1.9839 C   0  0  2  0  0  0  0  0  0  0  0  0
   -4.6296   -4.3748    0.7041 O   0  0  0  0  0  0  0  0  0  0  0  0
   -9.3934   -4.0439    1.1009 H   0  0  0  0  0  0  0  0  0  0  0  0
   -7.2459   -4.3879    0.3500 H   0  0  0  0  0  0  0  0  0  0  0  0
   -7.5638   -5.0028    2.0351 H   0  0  0  0  0  0  0  0  0  0  0  0
   -6.7015   -2.9229    2.9816 H   0  0  0  0  0  0  0  0  0  0  0  0
   -5.7948   -0.8088    2.7457 H   0  0  0  0  0  0  0  0  0  0  0  0
   -5.3444   -0.1396    0.0352 H   0  0  0  0  0  0  0  0  0  0  0  0
   -3.6294   -1.7569    0.7574 H   0  0  0  0  0  0  0  0  0  0  0  0
   -1.5398   -1.3824    1.3587 H   0  0  0  0  0  0  0  0  0  0  0  0
    0.4262   -0.1694    4.0517 H   0  0  0  0  0  0  0  0  0  0  0  0
   -0.5500   -0.9705    5.3149 H   0  0  0  0  0  0  0  0  0  0  0  0
   -1.1022    1.4881    5.3062 H   0  0  0  0  0  0  0  0  0  0  0  0
   -2.7245   -0.0992    5.7069 H   0  0  0  0  0  0  0  0  0  0  0  0
   -0.6432    2.3098    3.1485 H   0  0  0  0  0  0  0  0  0  0  0  0
   -3.4173    1.7547    2.8290 H   0  0  0  0  0  0  0  0  0  0  0  0
   -0.1364    0.5015    1.8370 H   0  0  0  0  0  0  0  0  0  0  0  0
   -0.1691    2.5051    0.7178 H   0  0  0  0  0  0  0  0  0  0  0  0
   -3.9342    4.1415    0.4052 H   0  0  0  0  0  0  0  0  0  0  0  0
   -3.8247    2.3781    0.4994 H   0  0  0  0  0  0  0  0  0  0  0  0
   -2.8621    4.2413   -1.7712 H   0  0  0  0  0  0  0  0  0  0  0  0
   -5.0091    2.3587   -1.6125 H   0  0  0  0  0  0  0  0  0  0  0  0
   -2.2254    2.3218   -3.0773 H   0  0  0  0  0  0  0  0  0  0  0  0
   -3.4191    0.7973   -1.0540 H   0  0  0  0  0  0  0  0  0  0  0  0
   -0.5566    3.3676   -1.4776 H   0  0  0  0  0  0  0  0  0  0  0  0
   -0.0807    2.5130   -3.4559 H   0  0  0  0  0  0  0  0  0  0  0  0
    0.5592    0.0010   -5.8288 H   0  0  0  0  0  0  0  0  0  0  0  0
    2.0288   -0.1203   -4.8156 H   0  0  0  0  0  0  0  0  0  0  0  0
    0.5633    2.4087   -5.7117 H   0  0  0  0  0  0  0  0  0  0  0  0
    3.0760    1.3264   -6.5418 H   0  0  0  0  0  0  0  0  0  0  0  0
    3.3700    2.6304   -4.5976 H   0  0  0  0  0  0  0  0  0  0  0  0
    1.0401    4.1927   -4.2819 H   0  0  0  0  0  0  0  0  0  0  0  0
    2.1678    2.8921   -2.2077 H   0  0  0  0  0  0  0  0  0  0  0  0
    4.1640    2.0185   -1.6092 H   0  0  0  0  0  0  0  0  0  0  0  0
    6.2634    2.6345   -2.4968 H   0  0  0  0  0  0  0  0  0  0  0  0
    6.7377    2.0821   -4.1122 H   0  0  0  0  0  0  0  0  0  0  0  0
    7.9728    0.7888   -2.3392 H   0  0  0  0  0  0  0  0  0  0  0  0
    6.1466   -0.6077   -4.0374 H   0  0  0  0  0  0  0  0  0  0  0  0
    6.6034   -0.9566   -1.0912 H   0  0  0  0  0  0  0  0  0  0  0  0
    6.0523    1.7748   -0.4597 H   0  0  0  0  0  0  0  0  0  0  0  0
    4.5376   -0.9092   -2.4598 H   0  0  0  0  0  0  0  0  0  0  0  0
    3.6636   -2.3570   -1.2459 H   0  0  0  0  0  0  0  0  0  0  0  0
    1.0730   -1.3390    1.7314 H   0  0  0  0  0  0  0  0  0  0  0  0
    2.2818   -0.1090    1.2683 H   0  0  0  0  0  0  0  0  0  0  0  0
    2.7111   -2.8202    2.7071 H   0  0  0  0  0  0  0  0  0  0  0  0
    3.1032   -0.1097    3.5452 H   0  0  0  0  0  0  0  0  0  0  0  0
    4.7992   -0.6880    1.9368 H   0  0  0  0  0  0  0  0  0  0  0  0
    5.0131   -3.2459    3.2059 H   0  0  0  0  0  0  0  0  0  0  0  0
    5.6486   -2.3261    0.3241 H   0  0  0  0  0  0  0  0  0  0  0  0
    3.4061   -3.9937    0.8777 H   0  0  0  0  0  0  0  0  0  0  0  0
   -2.9341   -3.4360    2.4432 H   0  0  0  0  0  0  0  0  0  0  0  0
   -4.9000   -2.2421    4.1347 H   0  0  0  0  0  0  0  0  0  0  0  0
   -5.0802   -4.8176    2.6357 H   0  0  0  0  0  0  0  0  0  0  0  0
   -4.7268   -3.6323    0.0550 H   0  0  0  0  0  0  0  0  0  0  0  0
  1  2  1  0  0  0  0
  1 58  1  0  0  0  0
  2 59  1  0  0  0  0
  2 60  1  0  0  0  0
  3  2  1  0  0  0  0
  3  4  1  0  0  0  0
  3 61  1  1  0  0  0
  4  5  1  0  0  0  0
  5  6  1  0  0  0  0
  5  7  1  0  0  0  0
  5 62  1  1  0  0  0
  6 63  1  0  0  0  0
  7  8  1  0  0  0  0
  7 54  1  0  0  0  0
  7 64  1  6  0  0  0
  9  8  1  0  0  0  0
  9 10  1  0  0  0  0
  9 65  1  6  0  0  0
 10 11  1  0  0  0  0
 11 12  1  0  0  0  0
 11 66  1  0  0  0  0
 11 67  1  0  0  0  0
 12 13  1  0  0  0  0
 12 14  1  0  0  0  0
 12 68  1  1  0  0  0
 13 69  1  0  0  0  0
 14 15  1  0  0  0  0
 14 16  1  0  0  0  0
 14 70  1  1  0  0  0
 15 71  1  0  0  0  0
 16 17  1  0  0  0  0
 16  9  1  0  0  0  0
 16 72  1  6  0  0  0
 18 17  1  0  0  0  0
 18 19  1  0  0  0  0
 18 73  1  1  0  0  0
 19 20  1  0  0  0  0
 20 21  1  0  0  0  0
 20 74  1  0  0  0  0
 20 75  1  0  0  0  0
 21 22  1  0  0  0  0
 21 23  1  0  0  0  0
 21 76  1  6  0  0  0
 22 77  1  0  0  0  0
 23 24  1  0  0  0  0
 23 25  1  0  0  0  0
 23 78  1  6  0  0  0
 24 79  1  0  0  0  0
 25 26  1  0  0  0  0
 25 18  1  0  0  0  0
 25 80  1  6  0  0  0
 27 26  1  0  0  0  0
 27 28  1  0  0  0  0
 27 81  1  6  0  0  0
 28 29  1  0  0  0  0
 29 30  1  0  0  0  0
 29 82  1  0  0  0  0
 29 83  1  0  0  0  0
 30 31  1  0  0  0  0
 30 32  1  0  0  0  0
 30 84  1  6  0  0  0
 31 85  1  0  0  0  0
 32 33  1  0  0  0  0
 32 34  1  0  0  0  0
 32 86  1  6  0  0  0
 33 87  1  0  0  0  0
 34 35  1  0  0  0  0
 34 27  1  0  0  0  0
 34 88  1  1  0  0  0
 36 35  1  0  0  0  0
 36 37  1  0  0  0  0
 36 89  1  1  0  0  0
 37 38  1  0  0  0  0
 38 39  1  0  0  0  0
 38 90  1  0  0  0  0
 38 91  1  0  0  0  0
 39 40  1  0  0  0  0
 39 41  1  0  0  0  0
 39 92  1  1  0  0  0
 40 93  1  0  0  0  0
 41 42  1  0  0  0  0
 41 43  1  0  0  0  0
 41 94  1  1  0  0  0
 42 95  1  0  0  0  0
 43 44  1  0  0  0  0
 43 36  1  0  0  0  0
 43 96  1  6  0  0  0
 45 44  1  0  0  0  0
 45 46  1  0  0  0  0
 45 97  1  6  0  0  0
 46 47  1  0  0  0  0
 47 48  1  0  0  0  0
 47 98  1  0  0  0  0
 47 99  1  0  0  0  0
 48 49  1  0  0  0  0
 48 50  1  0  0  0  0
 48100  1  1  0  0  0
 49101  1  0  0  0  0
 50 51  1  0  0  0  0
 50 52  1  0  0  0  0
 50102  1  6  0  0  0
 51103  1  0  0  0  0
 52 53  1  0  0  0  0
 52 45  1  0  0  0  0
 52104  1  6  0  0  0
 53105  1  0  0  0  0
 54 55  1  0  0  0  0
 54 56  1  0  0  0  0
 54106  1  6  0  0  0
 55107  1  0  0  0  0
 56 57  1  0  0  0  0
 56  3  1  0  0  0  0
 56108  1  1  0  0  0
 57109  1  0  0  0  0
M  END
>  <IDENTIFIER>
CNP0117463.0

>  <Energy>
1468.69

$$$$
