
 OpenBabel09092517383D

 40 42  0  0  0  0  0  0  0  0999 V2000
   -1.5956    3.1921    0.2326 C   0  0  0  0  0  0  0  0  0  0  0  0
   -0.8132    2.1796   -0.1959 C   0  0  0  0  0  0  0  0  0  0  0  0
    0.6032    2.5218   -0.6191 C   0  0  0  0  0  0  0  0  0  0  0  0
    1.7081    1.8025    0.1474 C   0  0  0  0  0  0  0  0  0  0  0  0
    1.8523    0.3469   -0.2879 C   0  0  2  0  0  0  0  0  0  0  0  0
    0.7271   -0.6258    0.0623 C   0  0  2  0  0  0  0  0  0  0  0  0
    1.3128   -1.8514   -0.2043 O   0  0  0  0  0  0  0  0  0  0  0  0
    2.6455   -1.7802   -0.0217 C   0  0  0  0  0  0  0  0  0  0  0  0
    3.3575   -2.7688    0.0484 O   0  0  0  0  0  0  0  0  0  0  0  0
    3.1059   -0.3865    0.2242 C   0  0  2  0  0  0  0  0  0  0  0  0
    3.4253   -0.2025    1.7159 C   0  0  0  0  0  0  0  0  0  0  0  0
   -0.6050   -0.4480   -0.7260 C   0  0  1  0  0  0  0  0  0  0  0  0
   -1.5485   -1.6464   -0.3553 C   0  0  2  0  0  0  0  0  0  0  0  0
   -2.0835   -2.3966   -1.5786 C   0  0  0  0  0  0  0  0  0  0  0  0
   -2.6874   -1.0320    0.4818 C   0  0  1  0  0  0  0  0  0  0  0  0
   -3.1658   -1.8739    1.4991 O   0  0  0  0  0  0  0  0  0  0  0  0
   -2.1335    0.2974    0.9773 C   0  0  0  0  0  0  0  0  0  0  0  0
   -1.4445    0.7931   -0.3040 C   0  0  1  0  0  0  0  0  0  0  0  0
   -1.2251    4.2103    0.3062 H   0  0  0  0  0  0  0  0  0  0  0  0
   -2.6310    3.0325    0.5123 H   0  0  0  0  0  0  0  0  0  0  0  0
    0.7804    3.6101   -0.4648 H   0  0  0  0  0  0  0  0  0  0  0  0
    0.7203    2.3402   -1.7095 H   0  0  0  0  0  0  0  0  0  0  0  0
    1.5672    1.9082    1.2447 H   0  0  0  0  0  0  0  0  0  0  0  0
    2.6633    2.3026   -0.1289 H   0  0  0  0  0  0  0  0  0  0  0  0
    1.9447    0.3258   -1.4022 H   0  0  0  0  0  0  0  0  0  0  0  0
    0.5425   -0.5893    1.1570 H   0  0  0  0  0  0  0  0  0  0  0  0
    3.9862   -0.0918   -0.3891 H   0  0  0  0  0  0  0  0  0  0  0  0
    2.5614   -0.4804    2.3563 H   0  0  0  0  0  0  0  0  0  0  0  0
    3.6971    0.8534    1.9220 H   0  0  0  0  0  0  0  0  0  0  0  0
    4.2904   -0.8404    1.9959 H   0  0  0  0  0  0  0  0  0  0  0  0
   -0.3472   -0.4255   -1.8079 H   0  0  0  0  0  0  0  0  0  0  0  0
   -1.0011   -2.3829    0.2745 H   0  0  0  0  0  0  0  0  0  0  0  0
   -2.6461   -1.7078   -2.2446 H   0  0  0  0  0  0  0  0  0  0  0  0
   -2.7563   -3.2193   -1.2558 H   0  0  0  0  0  0  0  0  0  0  0  0
   -1.2378   -2.8335   -2.1504 H   0  0  0  0  0  0  0  0  0  0  0  0
   -3.5355   -0.7698   -0.1926 H   0  0  0  0  0  0  0  0  0  0  0  0
   -2.4251   -2.0037    2.1471 H   0  0  0  0  0  0  0  0  0  0  0  0
   -1.3938    0.1580    1.7925 H   0  0  0  0  0  0  0  0  0  0  0  0
   -2.9470    0.9505    1.3558 H   0  0  0  0  0  0  0  0  0  0  0  0
   -2.2506    0.9119   -1.0689 H   0  0  0  0  0  0  0  0  0  0  0  0
  1  2  2  0  0  0  0
  1 19  1  0  0  0  0
  1 20  1  0  0  0  0
  2  3  1  0  0  0  0
  3  4  1  0  0  0  0
  3 21  1  0  0  0  0
  3 22  1  0  0  0  0
  4 23  1  0  0  0  0
  4 24  1  0  0  0  0
  5  4  1  0  0  0  0
  5  6  1  0  0  0  0
  5 25  1  6  0  0  0
  6  7  1  0  0  0  0
  6 12  1  0  0  0  0
  6 26  1  1  0  0  0
  7  8  1  0  0  0  0
  8  9  2  0  0  0  0
  8 10  1  0  0  0  0
 10 11  1  0  0  0  0
 10  5  1  0  0  0  0
 10 27  1  6  0  0  0
 11 28  1  0  0  0  0
 11 29  1  0  0  0  0
 11 30  1  0  0  0  0
 12 13  1  0  0  0  0
 12 18  1  0  0  0  0
 12 31  1  6  0  0  0
 13 14  1  0  0  0  0
 13 15  1  0  0  0  0
 13 32  1  1  0  0  0
 14 33  1  0  0  0  0
 14 34  1  0  0  0  0
 14 35  1  0  0  0  0
 15 16  1  0  0  0  0
 15 17  1  0  0  0  0
 15 36  1  6  0  0  0
 16 37  1  0  0  0  0
 17 38  1  0  0  0  0
 17 39  1  0  0  0  0
 18 17  1  0  0  0  0
 18  2  1  0  0  0  0
 18 40  1  6  0  0  0
M  END
>  <IDENTIFIER>
CNP0153528.1

>  <Energy>
506.736

$$$$
