
 OpenBabel09052507123D

111113  0  0  0  0  0  0  0  0999 V2000
   10.4562    0.0632   -0.0536 C   0  0  0  0  0  0  0  0  0  0  0  0
    9.4387    0.4564   -1.1372 C   0  0  0  0  0  0  0  0  0  0  0  0
    9.1654   -0.7578   -2.0434 C   0  0  0  0  0  0  0  0  0  0  0  0
    8.1036    0.9899   -0.5517 C   0  0  2  0  0  0  0  0  0  0  0  0
    8.2568    2.3186    0.2428 C   0  0  0  0  0  0  0  0  0  0  0  0
    6.8843    2.8331    0.7312 C   0  0  0  0  0  0  0  0  0  0  0  0
    6.0363    3.4495   -0.4012 C   0  0  0  0  0  0  0  0  0  0  0  0
    4.5758    3.1989   -0.1710 C   0  0  0  0  0  0  0  0  0  0  0  0
    3.6453    4.1582    0.0001 C   0  0  0  0  0  0  0  0  0  0  0  0
    2.1829    3.8653    0.1449 C   0  0  0  0  0  0  0  0  0  0  0  0
    1.6512    2.6531   -0.1241 C   0  0  0  0  0  0  0  0  0  0  0  0
    0.2253    2.2606   -0.0429 C   0  0  0  0  0  0  0  0  0  0  0  0
   -0.7910    3.0112    0.4274 C   0  0  0  0  0  0  0  0  0  0  0  0
   -2.2018    2.5188    0.4990 C   0  0  0  0  0  0  0  0  0  0  0  0
   -2.6379    1.3812   -0.0847 C   0  0  0  0  0  0  0  0  0  0  0  0
   -4.0508    0.8570    0.0527 C   0  0  2  0  0  0  0  0  0  0  0  0
   -4.9974    1.8269   -0.4000 O   0  0  0  0  0  0  0  0  0  0  0  0
   -5.9266    1.2814   -1.3449 C   0  0  2  0  0  0  0  0  0  0  0  0
   -6.0928    2.2313   -2.4024 O   0  0  0  0  0  0  0  0  0  0  0  0
   -7.1130    1.7851   -3.2821 C   0  0  2  0  0  0  0  0  0  0  0  0
   -6.9841    2.4631   -4.6428 C   0  0  0  0  0  0  0  0  0  0  0  0
   -8.4989    2.0316   -2.6340 C   0  0  1  0  0  0  0  0  0  0  0  0
   -9.4719    1.1907   -3.2067 O   0  0  0  0  0  0  0  0  0  0  0  0
   -8.3913    1.9136   -1.0846 C   0  0  1  0  0  0  0  0  0  0  0  0
   -9.6791    1.6489   -0.4394 N   0  0  0  0  0  0  0  0  0  0  0  0
   -7.2921    0.9266   -0.6367 C   0  0  1  0  0  0  0  0  0  0  0  0
   -7.6725   -0.4144   -0.8450 O   0  0  0  0  0  0  0  0  0  0  0  0
   -4.3421    0.4120    1.5133 C   0  0  0  0  0  0  0  0  0  0  0  0
   -3.7685   -1.0052    1.8368 C   0  0  2  0  0  0  0  0  0  0  0  0
   -2.4021   -1.0186    1.4188 O   0  0  0  0  0  0  0  0  0  0  0  0
   -1.7490   -2.2800    1.5516 C   0  0  2  0  0  0  0  0  0  0  0  0
   -1.6740   -2.6573    2.9072 O   0  0  0  0  0  0  0  0  0  0  0  0
   -0.3017   -2.1159    0.9728 C   0  0  0  0  0  0  0  0  0  0  0  0
    0.4815   -3.4470    0.7808 C   0  0  2  0  0  0  0  0  0  0  0  0
    0.5471   -4.2209    1.9526 O   0  0  0  0  0  0  0  0  0  0  0  0
    1.8624   -3.3544    0.0819 C   0  0  0  0  0  0  0  0  0  0  0  0
    3.1204   -2.8817    0.8552 C   0  0  2  0  0  0  0  0  0  0  0  0
    3.3202   -3.6734    2.0016 O   0  0  0  0  0  0  0  0  0  0  0  0
    3.2420   -1.3534    1.1606 C   0  0  2  0  0  0  0  0  0  0  0  0
    3.1220   -0.5561    0.0068 O   0  0  0  0  0  0  0  0  0  0  0  0
    4.5487   -1.0141    1.9343 C   0  0  0  0  0  0  0  0  0  0  0  0
    5.8977   -1.4495    1.3108 C   0  0  0  0  0  0  0  0  0  0  0  0
    6.3784   -0.6113    0.1574 C   0  0  0  0  0  0  0  0  0  0  0  0
    5.7520   -0.5478   -0.8848 O   0  0  0  0  0  0  0  0  0  0  0  0
    7.5589    0.0445    0.3030 O   0  0  0  0  0  0  0  0  0  0  0  0
   -2.5242   -3.3638    0.7670 C   0  0  0  0  0  0  0  0  0  0  0  0
   -3.9536   -3.4781    1.2794 C   0  0  2  0  0  0  0  0  0  0  0  0
   -4.6342   -4.4948    0.5861 O   0  0  0  0  0  0  0  0  0  0  0  0
   -4.6452   -2.1172    1.1381 C   0  0  1  0  0  0  0  0  0  0  0  0
   -6.0638   -2.1988    1.6990 C   0  0  0  0  0  0  0  0  0  0  0  0
   -6.3806   -1.5749    2.6976 O   0  0  0  0  0  0  0  0  0  0  0  0
   -7.0017   -2.9674    1.0987 O   0  0  0  0  0  0  0  0  0  0  0  0
   11.3880   -0.3137   -0.5284 H   0  0  0  0  0  0  0  0  0  0  0  0
   10.0482   -0.7403    0.5979 H   0  0  0  0  0  0  0  0  0  0  0  0
   10.7316    0.9335    0.5731 H   0  0  0  0  0  0  0  0  0  0  0  0
    9.8874    1.2508   -1.7727 H   0  0  0  0  0  0  0  0  0  0  0  0
    8.7167   -1.5940   -1.4657 H   0  0  0  0  0  0  0  0  0  0  0  0
   10.1084   -1.1142   -2.5084 H   0  0  0  0  0  0  0  0  0  0  0  0
    8.4662   -0.4769   -2.8611 H   0  0  0  0  0  0  0  0  0  0  0  0
    7.4383    1.1767   -1.4199 H   0  0  0  0  0  0  0  0  0  0  0  0
    8.7644    3.1032   -0.3575 H   0  0  0  0  0  0  0  0  0  0  0  0
    8.8754    2.1104    1.1403 H   0  0  0  0  0  0  0  0  0  0  0  0
    7.0012    3.6080    1.5201 H   0  0  0  0  0  0  0  0  0  0  0  0
    6.3613    1.9798    1.2134 H   0  0  0  0  0  0  0  0  0  0  0  0
    6.2375    2.9588   -1.3727 H   0  0  0  0  0  0  0  0  0  0  0  0
    6.2990    4.5227   -0.5217 H   0  0  0  0  0  0  0  0  0  0  0  0
    4.3087    2.1520   -0.1701 H   0  0  0  0  0  0  0  0  0  0  0  0
    3.9580    5.1976    0.0300 H   0  0  0  0  0  0  0  0  0  0  0  0
    1.5391    4.6867    0.4361 H   0  0  0  0  0  0  0  0  0  0  0  0
    2.2816    1.8483   -0.4674 H   0  0  0  0  0  0  0  0  0  0  0  0
    0.0414    1.2527   -0.3863 H   0  0  0  0  0  0  0  0  0  0  0  0
   -0.5934    4.0038    0.8159 H   0  0  0  0  0  0  0  0  0  0  0  0
   -2.9067    3.1216    1.0637 H   0  0  0  0  0  0  0  0  0  0  0  0
   -1.9739    0.7754   -0.6864 H   0  0  0  0  0  0  0  0  0  0  0  0
   -4.0441   -0.0462   -0.5784 H   0  0  0  0  0  0  0  0  0  0  0  0
   -5.5346    0.3618   -1.8375 H   0  0  0  0  0  0  0  0  0  0  0  0
   -6.9770    0.6974   -3.4894 H   0  0  0  0  0  0  0  0  0  0  0  0
   -7.0901    3.5632   -4.5394 H   0  0  0  0  0  0  0  0  0  0  0  0
   -7.7640    2.0821   -5.3355 H   0  0  0  0  0  0  0  0  0  0  0  0
   -5.9858    2.2387   -5.0764 H   0  0  0  0  0  0  0  0  0  0  0  0
   -8.8326    3.0778   -2.8130 H   0  0  0  0  0  0  0  0  0  0  0  0
   -9.2286    0.2521   -3.0069 H   0  0  0  0  0  0  0  0  0  0  0  0
   -8.0207    2.9015   -0.7236 H   0  0  0  0  0  0  0  0  0  0  0  0
  -10.0409    0.7098   -0.7284 H   0  0  0  0  0  0  0  0  0  0  0  0
  -10.3717    2.3743   -0.7351 H   0  0  0  0  0  0  0  0  0  0  0  0
   -7.1750    1.0394    0.4591 H   0  0  0  0  0  0  0  0  0  0  0  0
   -7.5712   -0.6381   -1.8023 H   0  0  0  0  0  0  0  0  0  0  0  0
   -5.4296    0.3943    1.6917 H   0  0  0  0  0  0  0  0  0  0  0  0
   -3.9390    1.1758    2.2128 H   0  0  0  0  0  0  0  0  0  0  0  0
   -3.8174   -1.1614    2.9381 H   0  0  0  0  0  0  0  0  0  0  0  0
   -1.3384   -1.8722    3.4138 H   0  0  0  0  0  0  0  0  0  0  0  0
    0.2537   -1.4160    1.6268 H   0  0  0  0  0  0  0  0  0  0  0  0
   -0.3798   -1.6403   -0.0300 H   0  0  0  0  0  0  0  0  0  0  0  0
   -0.1150   -4.0222    0.0445 H   0  0  0  0  0  0  0  0  0  0  0  0
    0.6967   -3.6088    2.7162 H   0  0  0  0  0  0  0  0  0  0  0  0
    1.7561   -2.7788   -0.8628 H   0  0  0  0  0  0  0  0  0  0  0  0
    2.1006   -4.4005   -0.2168 H   0  0  0  0  0  0  0  0  0  0  0  0
    3.9598   -3.1085    0.1660 H   0  0  0  0  0  0  0  0  0  0  0  0
    2.8604   -3.2376    2.7637 H   0  0  0  0  0  0  0  0  0  0  0  0
    2.4079   -1.0706    1.8308 H   0  0  0  0  0  0  0  0  0  0  0  0
    3.3882   -1.0823   -0.7890 H   0  0  0  0  0  0  0  0  0  0  0  0
    4.4810   -1.5448    2.9083 H   0  0  0  0  0  0  0  0  0  0  0  0
    4.5809    0.0719    2.1712 H   0  0  0  0  0  0  0  0  0  0  0  0
    5.8869   -2.5221    1.0326 H   0  0  0  0  0  0  0  0  0  0  0  0
    6.6624   -1.3450    2.1109 H   0  0  0  0  0  0  0  0  0  0  0  0
   -2.0568   -4.3616    0.8982 H   0  0  0  0  0  0  0  0  0  0  0  0
   -2.5310   -3.1017   -0.3154 H   0  0  0  0  0  0  0  0  0  0  0  0
   -3.9245   -3.7614    2.3554 H   0  0  0  0  0  0  0  0  0  0  0  0
   -4.6210   -4.2653   -0.3804 H   0  0  0  0  0  0  0  0  0  0  0  0
   -4.7243   -1.8993    0.0571 H   0  0  0  0  0  0  0  0  0  0  0  0
   -6.8353   -3.4390    0.2736 H   0  0  0  0  0  0  0  0  0  0  0  0
  1  2  1  0  0  0  0
  1 53  1  0  0  0  0
  1 54  1  0  0  0  0
  1 55  1  0  0  0  0
  2  3  1  0  0  0  0
  2 56  1  0  0  0  0
  3 57  1  0  0  0  0
  3 58  1  0  0  0  0
  3 59  1  0  0  0  0
  4  2  1  0  0  0  0
  4  5  1  0  0  0  0
  4 60  1  6  0  0  0
  5  6  1  0  0  0  0
  5 61  1  0  0  0  0
  5 62  1  0  0  0  0
  6  7  1  0  0  0  0
  6 63  1  0  0  0  0
  6 64  1  0  0  0  0
  7  8  1  0  0  0  0
  7 65  1  0  0  0  0
  7 66  1  0  0  0  0
  8  9  2  0  0  0  0
  8 67  1  0  0  0  0
  9 10  1  0  0  0  0
  9 68  1  0  0  0  0
 10 11  2  0  0  0  0
 10 69  1  0  0  0  0
 11 12  1  0  0  0  0
 11 70  1  0  0  0  0
 12 13  2  0  0  0  0
 12 71  1  0  0  0  0
 13 14  1  0  0  0  0
 13 72  1  0  0  0  0
 14 15  2  0  0  0  0
 14 73  1  0  0  0  0
 15 16  1  0  0  0  0
 15 74  1  0  0  0  0
 16 17  1  0  0  0  0
 16 28  1  0  0  0  0
 16 75  1  6  0  0  0
 18 17  1  0  0  0  0
 18 19  1  0  0  0  0
 18 76  1  6  0  0  0
 19 20  1  0  0  0  0
 20 21  1  0  0  0  0
 20 22  1  0  0  0  0
 20 77  1  6  0  0  0
 21 78  1  0  0  0  0
 21 79  1  0  0  0  0
 21 80  1  0  0  0  0
 22 23  1  0  0  0  0
 22 24  1  0  0  0  0
 22 81  1  6  0  0  0
 23 82  1  0  0  0  0
 24 25  1  0  0  0  0
 24 26  1  0  0  0  0
 24 83  1  1  0  0  0
 25 84  1  0  0  0  0
 25 85  1  0  0  0  0
 26 27  1  0  0  0  0
 26 18  1  0  0  0  0
 26 86  1  1  0  0  0
 27 87  1  0  0  0  0
 28 88  1  0  0  0  0
 28 89  1  0  0  0  0
 29 28  1  0  0  0  0
 29 30  1  0  0  0  0
 29 90  1  1  0  0  0
 30 31  1  0  0  0  0
 31 32  1  1  0  0  0
 31 33  1  0  0  0  0
 31 46  1  0  0  0  0
 32 91  1  0  0  0  0
 33 34  1  0  0  0  0
 33 92  1  0  0  0  0
 33 93  1  0  0  0  0
 34 35  1  0  0  0  0
 34 36  1  0  0  0  0
 34 94  1  6  0  0  0
 35 95  1  0  0  0  0
 36 37  1  0  0  0  0
 36 96  1  0  0  0  0
 36 97  1  0  0  0  0
 37 38  1  0  0  0  0
 37 39  1  0  0  0  0
 37 98  1  6  0  0  0
 38 99  1  0  0  0  0
 39 40  1  0  0  0  0
 39 41  1  0  0  0  0
 39100  1  1  0  0  0
 40101  1  0  0  0  0
 41 42  1  0  0  0  0
 41102  1  0  0  0  0
 41103  1  0  0  0  0
 42 43  1  0  0  0  0
 42104  1  0  0  0  0
 42105  1  0  0  0  0
 43 44  2  0  0  0  0
 43 45  1  0  0  0  0
 45  4  1  0  0  0  0
 46 47  1  0  0  0  0
 46106  1  0  0  0  0
 46107  1  0  0  0  0
 47 48  1  0  0  0  0
 47 49  1  0  0  0  0
 47108  1  1  0  0  0
 48109  1  0  0  0  0
 49 50  1  0  0  0  0
 49 29  1  0  0  0  0
 49110  1  6  0  0  0
 50 51  2  0  0  0  0
 50 52  1  0  0  0  0
 52111  1  0  0  0  0
M  END
>  <IDENTIFIER>
CNP0399610.4

>  <Energy>
1054.54

$$$$
