
 OpenBabel09102518543D

 50 53  0  0  0  0  0  0  0  0999 V2000
    5.5187   -0.8972   -0.2210 C   0  0  0  0  0  0  0  0  0  0  0  0
    4.3397   -0.3324    0.5148 C   0  0  0  0  0  0  0  0  0  0  0  0
    4.4485   -0.0457    1.6979 O   0  0  0  0  0  0  0  0  0  0  0  0
    3.1622   -0.1550   -0.1423 N   0  0  0  0  0  0  0  0  0  0  0  0
    1.9553    0.3615    0.4822 C   0  0  1  0  0  0  0  0  0  0  0  0
    1.4581    1.6322   -0.2351 C   0  0  0  0  0  0  0  0  0  0  0  0
   -0.0032    1.5706    0.1405 C   0  0  1  0  0  0  0  0  0  0  0  0
   -1.0154    2.5842   -0.3755 C   0  0  2  0  0  0  0  0  0  0  0  0
   -0.5913    3.9083   -0.1633 O   0  0  0  0  0  0  0  0  0  0  0  0
   -2.3661    2.3057    0.3646 C   0  0  1  0  0  0  0  0  0  0  0  0
   -3.5075    3.0255   -0.3592 C   0  0  0  0  0  0  0  0  0  0  0  0
   -2.6765    0.8143    0.4954 C   0  0  0  0  0  0  0  0  0  0  0  0
   -1.7805   -0.1542    0.1981 C   0  0  0  0  0  0  0  0  0  0  0  0
   -2.1655   -1.5028    0.1482 N   0  0  0  0  0  0  0  0  0  0  0  0
   -1.9940   -2.2873    1.3513 C   0  0  0  0  0  0  0  0  0  0  0  0
   -0.5056   -2.5378    1.6849 C   0  0  0  0  0  0  0  0  0  0  0  0
    0.4228   -1.2929    1.7923 C   0  0  0  0  0  0  0  0  0  0  0  0
    0.7751   -0.6660    0.4130 C   0  0  1  0  0  0  0  0  0  0  0  0
   -0.3872    0.1286   -0.2649 C   0  0  2  0  0  0  0  0  0  0  0  0
   -0.4417   -0.2647   -1.7883 C   0  0  0  0  0  0  0  0  0  0  0  0
   -0.8729   -1.7611   -1.9526 C   0  0  0  0  0  0  0  0  0  0  0  0
   -2.1818   -2.0832   -1.1891 C   0  0  0  0  0  0  0  0  0  0  0  0
    6.3991   -0.9873    0.4502 H   0  0  0  0  0  0  0  0  0  0  0  0
    5.7806   -0.2337   -1.0717 H   0  0  0  0  0  0  0  0  0  0  0  0
    5.2630   -1.9045   -0.6125 H   0  0  0  0  0  0  0  0  0  0  0  0
    3.1127   -0.4154   -1.1398 H   0  0  0  0  0  0  0  0  0  0  0  0
    2.1098    0.6347    1.5520 H   0  0  0  0  0  0  0  0  0  0  0  0
    1.5572    1.5547   -1.3373 H   0  0  0  0  0  0  0  0  0  0  0  0
    1.9914    2.5485    0.0976 H   0  0  0  0  0  0  0  0  0  0  0  0
   -0.0330    1.6755    1.2567 H   0  0  0  0  0  0  0  0  0  0  0  0
   -1.1209    2.4351   -1.4699 H   0  0  0  0  0  0  0  0  0  0  0  0
   -0.4360    4.0243    0.8107 H   0  0  0  0  0  0  0  0  0  0  0  0
   -2.3188    2.6933    1.4059 H   0  0  0  0  0  0  0  0  0  0  0  0
   -3.6140    2.6426   -1.3970 H   0  0  0  0  0  0  0  0  0  0  0  0
   -3.3119    4.1182   -0.3955 H   0  0  0  0  0  0  0  0  0  0  0  0
   -4.4655    2.8637    0.1801 H   0  0  0  0  0  0  0  0  0  0  0  0
   -3.6727    0.5225    0.8176 H   0  0  0  0  0  0  0  0  0  0  0  0
   -2.5179   -3.2627    1.2527 H   0  0  0  0  0  0  0  0  0  0  0  0
   -2.4703   -1.7447    2.1975 H   0  0  0  0  0  0  0  0  0  0  0  0
   -0.0714   -3.2371    0.9388 H   0  0  0  0  0  0  0  0  0  0  0  0
   -0.4946   -3.0576    2.6678 H   0  0  0  0  0  0  0  0  0  0  0  0
    1.3796   -1.6686    2.2174 H   0  0  0  0  0  0  0  0  0  0  0  0
    0.0132   -0.5402    2.5008 H   0  0  0  0  0  0  0  0  0  0  0  0
    1.1283   -1.5156   -0.1954 H   0  0  0  0  0  0  0  0  0  0  0  0
    0.5319   -0.1218   -2.2996 H   0  0  0  0  0  0  0  0  0  0  0  0
   -1.1946    0.3606   -2.3142 H   0  0  0  0  0  0  0  0  0  0  0  0
   -0.0926   -2.4386   -1.5647 H   0  0  0  0  0  0  0  0  0  0  0  0
   -0.9836   -2.0204   -3.0268 H   0  0  0  0  0  0  0  0  0  0  0  0
   -2.3530   -3.1810   -1.1663 H   0  0  0  0  0  0  0  0  0  0  0  0
   -3.0278   -1.6195   -1.7421 H   0  0  0  0  0  0  0  0  0  0  0  0
  1  2  1  0  0  0  0
  1 23  1  0  0  0  0
  1 24  1  0  0  0  0
  1 25  1  0  0  0  0
  2  3  2  0  0  0  0
  2  4  1  0  0  0  0
  4 26  1  0  0  0  0
  5  4  1  0  0  0  0
  5  6  1  0  0  0  0
  5 27  1  1  0  0  0
  6 28  1  0  0  0  0
  6 29  1  0  0  0  0
  7  6  1  0  0  0  0
  7  8  1  0  0  0  0
  7 30  1  1  0  0  0
  8  9  1  0  0  0  0
  8 10  1  0  0  0  0
  8 31  1  6  0  0  0
  9 32  1  0  0  0  0
 10 11  1  0  0  0  0
 10 12  1  0  0  0  0
 10 33  1  1  0  0  0
 11 34  1  0  0  0  0
 11 35  1  0  0  0  0
 11 36  1  0  0  0  0
 12 13  2  0  0  0  0
 12 37  1  0  0  0  0
 13 14  1  0  0  0  0
 14 15  1  0  0  0  0
 15 16  1  0  0  0  0
 15 38  1  0  0  0  0
 15 39  1  0  0  0  0
 16 17  1  0  0  0  0
 16 40  1  0  0  0  0
 16 41  1  0  0  0  0
 17 42  1  0  0  0  0
 17 43  1  0  0  0  0
 18 17  1  0  0  0  0
 18 19  1  0  0  0  0
 18  5  1  0  0  0  0
 18 44  1  6  0  0  0
 19 20  1  0  0  0  0
 19  7  1  0  0  0  0
 19 13  1  1  0  0  0
 20 21  1  0  0  0  0
 20 45  1  0  0  0  0
 20 46  1  0  0  0  0
 21 22  1  0  0  0  0
 21 47  1  0  0  0  0
 21 48  1  0  0  0  0
 22 14  1  0  0  0  0
 22 49  1  0  0  0  0
 22 50  1  0  0  0  0
M  END
>  <IDENTIFIER>
CNP0359175.2

>  <Energy>
719.221

$$$$
