
 OpenBabel09112505072D

290302  0  0  0  0  0  0  0  0999 V2000
   15.1034  -12.7733   -1.4440 C   0  0  0  0  0  0  0  0  0  0  0  0
   15.4821  -14.0630   -1.3489 C   0  0  0  0  0  0  0  0  0  0  0  0
   15.6485  -14.7792    0.0000 C   0  0  1  0  0  0  0  0  0  0  0  0
   17.1257  -14.5188   -0.0000 C   0  0  0  0  0  0  0  0  0  0  0  0
   15.8693  -16.1561   -0.2495 O   0  0  0  0  0  0  0  0  0  0  0  0
   14.1713  -15.0397   -0.0000 C   0  0  0  0  0  2  0  0  0  0  0  0
   12.6941  -15.3002    0.0000 C   0  0  0  0  0  2  0  0  0  0  0  0
   11.2169  -15.5607    0.0000 C   0  0  0  0  0  0  0  0  0  0  0  0
   10.2565  -14.5579    0.1530 C   0  0  0  0  0  0  0  0  0  0  0  0
   10.6608  -13.1025    0.1647 C   0  0  0  0  0  0  0  0  0  0  0  0
   11.5429  -12.8627    1.2259 O   0  0  0  0  0  0  0  0  0  0  0  0
    8.7885  -14.9122    0.3820 C   0  0  0  0  0  0  0  0  0  0  0  0
    8.6232  -16.0832    0.6649 O   0  0  0  0  0  0  0  0  0  0  0  0
    7.7684  -13.9713    0.6525 O   0  0  0  0  0  0  0  0  0  0  0  0
    6.4267  -13.5707    0.2098 C   0  0  1  0  0  0  0  0  0  0  0  0
    6.1439  -12.3116    1.0674 C   0  0  2  0  0  0  0  0  0  0  0  0
    6.5157  -12.5323    2.4074 O   0  0  0  0  0  0  0  0  0  0  0  0
    4.6982  -11.8296    1.0199 C   0  0  1  0  0  0  0  0  0  0  0  0
    3.9520  -12.5212    1.9905 O   0  0  0  0  0  0  0  0  0  0  0  0
    4.1374  -12.0745   -0.3860 C   0  0  2  0  0  0  0  0  0  0  0  0
    3.0113  -11.0738   -0.7398 O   0  0  0  0  0  0  0  0  0  0  0  0
    1.7458  -10.6135    0.0000 C   0  0  2  0  0  0  0  0  0  0  0  0
    1.4853  -12.0907    0.0000 C   0  0  0  0  0  0  0  0  0  0  0  0
    0.5644  -10.5859   -1.0871 C   0  0  0  0  0  0  0  0  0  0  0  0
   -0.7000  -10.1981   -0.8285 C   0  0  0  0  0  0  0  0  0  0  0  0
    2.0062   -9.1362    0.0000 C   0  0  0  0  0  0  0  0  0  0  0  0
    2.2667   -7.6590    0.0000 C   0  0  0  0  0  0  0  0  0  0  0  0
    2.5272   -6.1818    0.0000 C   0  0  0  0  0  0  0  0  0  0  0  0
    1.8788   -5.1432   -0.7248 C   0  0  0  0  0  0  0  0  0  0  0  0
    0.7998   -5.5556   -1.6998 C   0  0  0  0  0  0  0  0  0  0  0  0
    0.4764   -4.5068   -2.5675 O   0  0  0  0  0  0  0  0  0  0  0  0
    2.3559   -3.6313   -0.5927 C   0  0  0  0  0  0  0  0  0  0  0  0
    3.5140   -3.5401   -0.2185 O   0  0  0  0  0  0  0  0  0  0  0  0
    1.7090   -2.3558   -0.7278 O   0  0  0  0  0  0  0  0  0  0  0  0
    0.7004   -1.2303   -0.7221 C   0  0  1  0  0  0  0  0  0  0  0  0
    1.2128   -0.2935    0.3090 C   0  0  0  0  0  0  0  0  0  0  0  0
    0.7500    1.2990    0.0000 C   0  0  2  0  0  0  0  0  0  0  0  0
    2.2500    1.2990    0.0000 C   0  0  0  0  0  0  0  0  0  0  0  0
    2.9630    1.1041    1.0384 O   0  0  0  0  0  0  0  0  0  0  0  0
    3.1335    1.4329   -1.1045 O   0  0  0  0  0  0  0  0  0  0  0  0
    4.3776    0.6943   -1.4290 C   0  0  2  0  0  0  0  0  0  0  0  0
    4.0943   -0.6925   -1.3668 O   0  0  0  0  0  0  0  0  0  0  0  0
    4.5055   -1.4281   -2.5326 C   0  0  2  0  0  0  0  0  0  0  0  0
    3.3163   -1.6929   -3.4784 C   0  0  0  0  0  0  0  0  0  0  0  0
    3.6889   -2.5226   -4.5461 O   0  0  0  0  0  0  0  0  0  0  0  0
    5.6961   -0.8070   -3.3227 C   0  0  1  0  0  0  0  0  0  0  0  0
    6.3022   -1.8149   -4.0963 O   0  0  0  0  0  0  0  0  0  0  0  0
    6.6924   -0.2306   -2.3187 C   0  0  2  0  0  0  0  0  0  0  0  0
    7.8317    0.2106   -3.0122 O   0  0  0  0  0  0  0  0  0  0  0  0
    6.1068    0.9252   -1.4077 C   0  0  1  0  0  0  0  0  0  0  0  0
    7.0265    0.9206   -0.2162 O   0  0  0  0  0  0  0  0  0  0  0  0
    8.4850    1.2934   -0.4577 C   0  0  2  0  0  0  0  0  0  0  0  0
    8.9535    2.2376    0.4919 O   0  0  0  0  0  0  0  0  0  0  0  0
   10.1382    2.9544    0.0000 C   0  0  1  0  0  0  0  0  0  0  0  0
    9.3882    4.2535    0.0000 C   0  0  0  0  0  0  0  0  0  0  0  0
   11.4238    2.3322    0.4989 C   0  0  2  0  0  0  0  0  0  0  0  0
   12.4689    2.7873   -0.4240 O   0  0  0  0  0  0  0  0  0  0  0  0
   13.7654    3.1562    0.1105 C   0  0  2  0  0  0  0  0  0  0  0  0
   14.5480    4.0367   -0.7625 O   0  0  0  0  0  0  0  0  0  0  0  0
   15.7544    4.2765    0.0000 C   0  0  1  0  0  0  0  0  0  0  0  0
   16.7581    5.3912    0.0000 C   0  0  0  0  0  0  0  0  0  0  0  0
   17.7618    6.5059    0.0000 O   0  0  0  0  0  0  0  0  0  0  0  0
   15.2804    4.2028    1.4970 C   0  0  2  0  0  0  0  0  0  0  0  0
   15.9189    3.1379    2.1544 O   0  0  0  0  0  0  0  0  0  0  0  0
   13.7859    3.9319    1.4018 C   0  0  1  0  0  0  0  0  0  0  0  0
   13.0743    5.1287    1.1923 O   0  0  0  0  0  0  0  0  0  0  0  0
   10.9718    0.7648    0.5276 C   0  0  1  0  0  0  0  0  0  0  0  0
   11.9508   -0.1840    0.8933 O   0  0  0  0  0  0  0  0  0  0  0  0
   12.9749   -0.4576   -0.0342 C   0  0  2  0  0  0  0  0  0  0  0  0
   14.1931   -0.4523    0.6931 O   0  0  0  0  0  0  0  0  0  0  0  0
   15.3574   -0.8182   -0.0563 C   0  0  2  0  0  0  0  0  0  0  0  0
   16.2881    0.3893   -0.2170 C   0  0  0  0  0  0  0  0  0  0  0  0
   17.5332   -0.0121   -0.7168 O   0  0  0  0  0  0  0  0  0  0  0  0
   15.0648   -1.5208   -1.4172 C   0  0  1  0  0  0  0  0  0  0  0  0
   16.2377   -2.1192   -1.9054 O   0  0  0  0  0  0  0  0  0  0  0  0
   13.9853   -2.5742   -1.1547 C   0  0  2  0  0  0  0  0  0  0  0  0
   14.4343   -3.4563   -0.1510 O   0  0  0  0  0  0  0  0  0  0  0  0
   12.6966   -1.8504   -0.6884 C   0  0  1  0  0  0  0  0  0  0  0  0
   11.9309   -2.7029    0.1312 O   0  0  0  0  0  0  0  0  0  0  0  0
    9.6931    0.2174   -0.3747 C   0  0  1  0  0  0  0  0  0  0  0  0
    9.2249   -0.9979    0.1497 O   0  0  0  0  0  0  0  0  0  0  0  0
    1.1517    2.7533    0.9303 C   0  0  2  0  0  0  0  0  0  0  0  0
    2.3974    3.2523    1.4750 O   0  0  0  0  0  0  0  0  0  0  0  0
    0.7500    3.8971    0.0000 C   0  0  0  0  0  0  0  0  0  0  0  0
   -0.7500    3.8971    0.0000 C   0  0  2  0  0  0  0  0  0  0  0  0
   -2.2500    3.8971    0.0000 C   0  0  0  0  0  0  0  0  0  0  0  0
   -1.3287    2.6496    0.9046 C   0  0  0  0  0  0  0  0  0  0  0  0
   -2.3330    2.8766    2.0816 C   0  0  0  0  0  0  0  0  0  0  0  0
   -3.2950    4.3905    1.9767 C   0  0  0  0  0  0  0  0  0  0  0  0
   -3.0000    5.1962    0.0000 C   0  0  2  0  0  0  0  0  0  0  0  0
   -3.7500    6.4952    0.0000 C   0  0  1  0  0  0  0  0  0  0  0  0
   -4.5000    7.7942    0.0000 C   0  0  0  0  0  0  0  0  0  0  0  0
   -3.7383    6.8823   -1.7739 C   0  0  0  0  0  0  0  0  0  0  0  0
   -4.3776    8.0338   -2.5480 C   0  0  0  0  0  0  0  0  0  0  0  0
   -4.0175    9.3138   -1.8486 C   0  0  2  0  0  0  0  0  0  0  0  0
   -4.9325   10.3318   -2.3710 O   0  0  0  0  0  0  0  0  0  0  0  0
   -6.2318   10.4656   -1.7657 C   0  0  2  0  0  0  0  0  0  0  0  0
   -6.8897    9.2247   -1.6414 O   0  0  0  0  0  0  0  0  0  0  0  0
   -7.9844    9.3324   -0.7628 C   0  0  2  0  0  0  0  0  0  0  0  0
   -8.4621    7.9130   -0.4649 C   0  0  0  0  0  0  0  0  0  0  0  0
   -9.1909    7.9121    0.7333 O   0  0  0  0  0  0  0  0  0  0  0  0
   -9.9694    6.7463    0.9072 C   0  0  2  0  0  0  0  0  0  0  0  0
  -11.0896    6.8218    0.0394 O   0  0  0  0  0  0  0  0  0  0  0  0
  -11.8986    5.6473    0.0000 C   0  0  2  0  0  0  0  0  0  0  0  0
  -13.3082    6.1603    0.0000 C   0  0  0  0  0  0  0  0  0  0  0  0
  -11.6622    4.6833    1.2190 C   0  0  2  0  0  0  0  0  0  0  0  0
  -12.4745    3.5373    1.1951 O   0  0  0  0  0  0  0  0  0  0  0  0
  -10.1745    4.3102    1.4082 C   0  0  2  0  0  0  0  0  0  0  0  0
   -9.9270    4.2601    2.7923 O   0  0  0  0  0  0  0  0  0  0  0  0
   -9.2383    5.3731    0.7376 C   0  0  1  0  0  0  0  0  0  0  0  0
   -9.0489    5.1879   -0.6706 O   0  0  0  0  0  0  0  0  0  0  0  0
   -8.6467    3.9040   -1.1351 C   0  0  2  0  0  0  0  0  0  0  0  0
   -9.7869    3.0605   -1.2304 O   0  0  0  0  0  0  0  0  0  0  0  0
   -9.4697    1.8238   -1.8409 C   0  0  0  0  0  0  0  0  0  0  0  0
   -8.4225    1.0536   -1.0175 C   0  0  1  0  0  0  0  0  0  0  0  0
   -8.1502   -0.1901   -1.6076 O   0  0  0  0  0  0  0  0  0  0  0  0
   -7.1354    1.8905   -0.9395 C   0  0  2  0  0  0  0  0  0  0  0  0
   -6.5880    2.0711   -2.2229 O   0  0  0  0  0  0  0  0  0  0  0  0
   -7.4836    3.2598   -0.3280 C   0  0  1  0  0  0  0  0  0  0  0  0
   -6.3686    4.1099   -0.3542 O   0  0  0  0  0  0  0  0  0  0  0  0
   -9.0757   10.2034   -1.4405 C   0  0  1  0  0  0  0  0  0  0  0  0
  -10.1868   10.3472   -0.5945 O   0  0  0  0  0  0  0  0  0  0  0  0
   -8.4822   11.5850   -1.8085 C   0  0  2  0  0  0  0  0  0  0  0  0
   -8.2489   12.3065   -0.6219 O   0  0  0  0  0  0  0  0  0  0  0  0
   -7.1503   11.3909   -2.5921 C   0  0  1  0  0  0  0  0  0  0  0  0
   -6.5430   12.6291   -2.8715 O   0  0  0  0  0  0  0  0  0  0  0  0
   -3.7500    9.0933    0.0000 C   0  0  0  0  0  0  0  0  0  0  0  0
   -2.3405    9.6063    0.0000 C   0  0  0  0  0  0  0  0  0  0  0  0
   -4.0105   10.5705    0.0000 C   0  0  0  0  0  0  0  0  0  0  0  0
   -2.8409    7.6148    0.3834 C   0  0  2  0  0  0  0  0  0  0  0  0
   -2.3012    7.2631    1.7725 C   0  0  0  0  0  0  0  0  0  0  0  0
   -1.3187    6.0671    1.5044 C   0  0  0  0  0  0  0  0  0  0  0  0
   -1.5000    5.1962    0.0000 C   0  0  1  0  0  0  0  0  0  0  0  0
    0.0000    5.1962    0.0000 C   0  0  0  0  0  0  0  0  0  0  0  0
   -0.7500    1.2990    0.0000 C   0  0  2  0  0  0  0  0  0  0  0  0
   -1.2343    0.0798    0.7827 C   0  0  0  0  0  0  0  0  0  0  0  0
   -0.7500   -1.2990    0.0000 C   0  0  0  0  0  0  0  0  0  0  0  0
   -0.4895   -2.7762    0.0000 C   0  0  0  0  0  0  0  0  0  0  0  0
   -2.1595   -1.8121    0.0000 C   0  0  0  0  0  0  0  0  0  0  0  0
    4.0804  -13.5823   -0.7387 O   0  0  0  0  0  0  0  0  0  0  0  0
    5.0351  -14.5335    0.0000 C   0  0  2  0  0  0  0  0  0  0  0  0
    5.9992  -15.6825    0.0000 C   0  0  0  0  0  0  0  0  0  0  0  0
   15.0057  -12.3028   -2.4167 H   0  0  0  0  0  0  0  0  0  0  0  0
   14.8916  -12.1911   -0.5519 H   0  0  0  0  0  0  0  0  0  0  0  0
   15.6911  -14.6020   -2.2736 H   0  0  0  0  0  0  0  0  0  0  0  0
   17.3618  -14.9972    0.9826 H   0  0  0  0  0  0  0  0  0  0  0  0
   17.0914  -13.4320    0.2683 H   0  0  0  0  0  0  0  0  0  0  0  0
   18.1795  -14.3330   -0.0000 H   0  0  0  0  0  0  0  0  0  0  0  0
   15.9016  -16.6431    0.6241 H   0  0  0  0  0  0  0  0  0  0  0  0
   10.9190  -16.6039    0.0057 H   0  0  0  0  0  0  0  0  0  0  0  0
    9.7669  -12.4524    0.2839 H   0  0  0  0  0  0  0  0  0  0  0  0
   11.1515  -12.8655   -0.8061 H   0  0  0  0  0  0  0  0  0  0  0  0
   11.8508  -11.9251    1.1212 H   0  0  0  0  0  0  0  0  0  0  0  0
    6.5918  -13.2260   -0.8386 H   0  0  0  0  0  0  0  0  0  0  0  0
    6.8164  -11.5310    0.6327 H   0  0  0  0  0  0  0  0  0  0  0  0
    6.7408  -11.6460    2.7948 H   0  0  0  0  0  0  0  0  0  0  0  0
    4.6977  -10.7353    1.2463 H   0  0  0  0  0  0  0  0  0  0  0  0
    3.8932  -11.9392    2.7931 H   0  0  0  0  0  0  0  0  0  0  0  0
    4.9311  -11.6760   -1.0552 H   0  0  0  0  0  0  0  0  0  0  0  0
    0.5262  -12.1139    0.5951 H   0  0  0  0  0  0  0  0  0  0  0  0
    2.0553  -12.3302    0.8971 H   0  0  0  0  0  0  0  0  0  0  0  0
    1.2995  -13.1444    0.0000 H   0  0  0  0  0  0  0  0  0  0  0  0
    0.7795  -10.9068   -2.1095 H   0  0  0  0  0  0  0  0  0  0  0  0
   -1.0021   -9.8793    0.1637 H   0  0  0  0  0  0  0  0  0  0  0  0
   -1.4430  -10.2113   -1.6192 H   0  0  0  0  0  0  0  0  0  0  0  0
    1.0081   -8.9313    0.4742 H   0  0  0  0  0  0  0  0  0  0  0  0
    2.0908   -9.0049   -1.1278 H   0  0  0  0  0  0  0  0  0  0  0  0
    2.2961   -7.6163    1.1259 H   0  0  0  0  0  0  0  0  0  0  0  0
    3.3514   -7.7871   -0.2927 H   0  0  0  0  0  0  0  0  0  0  0  0
    3.3257   -5.8346    0.6643 H   0  0  0  0  0  0  0  0  0  0  0  0
   -0.0928   -5.9225   -1.1469 H   0  0  0  0  0  0  0  0  0  0  0  0
    1.2100   -6.3807   -2.3249 H   0  0  0  0  0  0  0  0  0  0  0  0
   -0.2397   -4.8506   -3.1622 H   0  0  0  0  0  0  0  0  0  0  0  0
    0.6725   -0.7506   -1.7243 H   0  0  0  0  0  0  0  0  0  0  0  0
    2.2198   -0.7994    0.5581 H   0  0  0  0  0  0  0  0  0  0  0  0
    1.0245   -0.5672    1.3822 H   0  0  0  0  0  0  0  0  0  0  0  0
    4.2736    0.9829   -2.4921 H   0  0  0  0  0  0  0  0  0  0  0  0
    4.8697   -2.4012   -2.1363 H   0  0  0  0  0  0  0  0  0  0  0  0
    2.9441   -0.7307   -3.8876 H   0  0  0  0  0  0  0  0  0  0  0  0
    2.4634   -2.1550   -2.9528 H   0  0  0  0  0  0  0  0  0  0  0  0
    3.7603   -3.4425   -4.1779 H   0  0  0  0  0  0  0  0  0  0  0  0
    5.3518    0.0137   -3.9955 H   0  0  0  0  0  0  0  0  0  0  0  0
    6.7363   -1.3731   -4.8720 H   0  0  0  0  0  0  0  0  0  0  0  0
    6.9574   -1.0788   -1.6389 H   0  0  0  0  0  0  0  0  0  0  0  0
    8.4357   -0.5715   -3.1121 H   0  0  0  0  0  0  0  0  0  0  0  0
    6.2228    1.9059   -1.9218 H   0  0  0  0  0  0  0  0  0  0  0  0
    8.5153    1.7911   -1.4493 H   0  0  0  0  0  0  0  0  0  0  0  0
   10.2923    2.7842   -1.1025 H   0  0  0  0  0  0  0  0  0  0  0  0
   10.2341    4.8645   -0.3860 H   0  0  0  0  0  0  0  0  0  0  0  0
    8.6544    4.0639   -0.8250 H   0  0  0  0  0  0  0  0  0  0  0  0
    8.8532    5.1802    0.0000 H   0  0  0  0  0  0  0  0  0  0  0  0
   11.5924    2.6445    1.5444 H   0  0  0  0  0  0  0  0  0  0  0  0
   14.3014    2.1978    0.2587 H   0  0  0  0  0  0  0  0  0  0  0  0
   16.3704    3.3595   -0.1836 H   0  0  0  0  0  0  0  0  0  0  0  0
   15.9106    6.1143    0.0462 H   0  0  0  0  0  0  0  0  0  0  0  0
   16.9605    5.1700   -1.0729 H   0  0  0  0  0  0  0  0  0  0  0  0
   18.1348    6.5082    0.9182 H   0  0  0  0  0  0  0  0  0  0  0  0
   15.3972    5.1318    2.1087 H   0  0  0  0  0  0  0  0  0  0  0  0
   16.8233    3.4653    2.3994 H   0  0  0  0  0  0  0  0  0  0  0  0
   13.4040    3.4165    2.3088 H   0  0  0  0  0  0  0  0  0  0  0  0
   13.0611    5.6111    2.0593 H   0  0  0  0  0  0  0  0  0  0  0  0
   10.4247    0.7946    1.4988 H   0  0  0  0  0  0  0  0  0  0  0  0
   13.0572    0.3277   -0.8206 H   0  0  0  0  0  0  0  0  0  0  0  0
   15.8897   -1.5529    0.5886 H   0  0  0  0  0  0  0  0  0  0  0  0
   16.4315    0.8487    0.7877 H   0  0  0  0  0  0  0  0  0  0  0  0
   15.8292    1.1187   -0.9158 H   0  0  0  0  0  0  0  0  0  0  0  0
   18.1195    0.7874   -0.6655 H   0  0  0  0  0  0  0  0  0  0  0  0
   14.6873   -0.7756   -2.1564 H   0  0  0  0  0  0  0  0  0  0  0  0
   16.0612   -2.3636   -2.8505 H   0  0  0  0  0  0  0  0  0  0  0  0
   13.7319   -3.1708   -2.0612 H   0  0  0  0  0  0  0  0  0  0  0  0
   15.0629   -4.0931   -0.5809 H   0  0  0  0  0  0  0  0  0  0  0  0
   12.0680   -1.6081   -1.5726 H   0  0  0  0  0  0  0  0  0  0  0  0
   12.3599   -2.7259    1.0265 H   0  0  0  0  0  0  0  0  0  0  0  0
   10.0454    0.0161   -1.4067 H   0  0  0  0  0  0  0  0  0  0  0  0
    8.8243   -0.8010    1.0358 H   0  0  0  0  0  0  0  0  0  0  0  0
    0.6538    2.7027    1.9259 H   0  0  0  0  0  0  0  0  0  0  0  0
    3.0014    3.5993    0.7619 H   0  0  0  0  0  0  0  0  0  0  0  0
    1.4675    3.6159   -0.9080 H   0  0  0  0  0  0  0  0  0  0  0  0
    0.7957    3.3905   -1.0536 H   0  0  0  0  0  0  0  0  0  0  0  0
   -2.1430    3.3939   -1.1173 H   0  0  0  0  0  0  0  0  0  0  0  0
   -2.7889    2.9871   -0.6034 H   0  0  0  0  0  0  0  0  0  0  0  0
   -3.3200    3.8971    0.0000 H   0  0  0  0  0  0  0  0  0  0  0  0
   -2.7696    2.0118    2.5674 H   0  0  0  0  0  0  0  0  0  0  0  0
   -4.3708    4.1486    2.0921 H   0  0  0  0  0  0  0  0  0  0  0  0
   -3.0951    4.9863    2.8829 H   0  0  0  0  0  0  0  0  0  0  0  0
   -3.3694    4.9592   -1.3081 H   0  0  0  0  0  0  0  0  0  0  0  0
   -5.0280    7.5697    1.0374 H   0  0  0  0  0  0  0  0  0  0  0  0
   -5.4755    7.3649   -0.3802 H   0  0  0  0  0  0  0  0  0  0  0  0
   -5.0350    8.7208   -0.0000 H   0  0  0  0  0  0  0  0  0  0  0  0
   -2.6852    6.8521   -2.1479 H   0  0  0  0  0  0  0  0  0  0  0  0
   -4.3250    6.1320   -2.3803 H   0  0  0  0  0  0  0  0  0  0  0  0
   -5.4613    7.8481   -2.5367 H   0  0  0  0  0  0  0  0  0  0  0  0
   -4.1172    8.0502   -3.6320 H   0  0  0  0  0  0  0  0  0  0  0  0
   -3.0608    9.5653   -2.3530 H   0  0  0  0  0  0  0  0  0  0  0  0
   -6.1461   10.9784   -0.7948 H   0  0  0  0  0  0  0  0  0  0  0  0
   -7.6430    9.7612    0.2105 H   0  0  0  0  0  0  0  0  0  0  0  0
   -7.5807    7.2735   -0.2902 H   0  0  0  0  0  0  0  0  0  0  0  0
   -9.0273    7.5327   -1.3460 H   0  0  0  0  0  0  0  0  0  0  0  0
  -10.3099    6.8355    1.9627 H   0  0  0  0  0  0  0  0  0  0  0  0
  -11.6933    5.1048   -0.9491 H   0  0  0  0  0  0  0  0  0  0  0  0
  -13.3134    6.6178    1.0141 H   0  0  0  0  0  0  0  0  0  0  0  0
  -13.8228    5.1772   -0.0502 H   0  0  0  0  0  0  0  0  0  0  0  0
  -14.3137    6.5262    0.0000 H   0  0  0  0  0  0  0  0  0  0  0  0
  -11.9573    5.2759    2.1148 H   0  0  0  0  0  0  0  0  0  0  0  0
  -12.2827    3.0658    0.3429 H   0  0  0  0  0  0  0  0  0  0  0  0
   -9.9911    3.2940    1.0216 H   0  0  0  0  0  0  0  0  0  0  0  0
   -9.0562    3.7991    2.9174 H   0  0  0  0  0  0  0  0  0  0  0  0
   -8.2514    5.3795    1.2500 H   0  0  0  0  0  0  0  0  0  0  0  0
   -8.2667    4.0844   -2.1667 H   0  0  0  0  0  0  0  0  0  0  0  0
  -10.3999    1.2183   -1.8830 H   0  0  0  0  0  0  0  0  0  0  0  0
   -9.1396    1.9786   -2.8926 H   0  0  0  0  0  0  0  0  0  0  0  0
   -8.8063    0.9012    0.0198 H   0  0  0  0  0  0  0  0  0  0  0  0
   -8.9186   -0.7812   -1.3915 H   0  0  0  0  0  0  0  0  0  0  0  0
   -6.3846    1.3907   -0.2830 H   0  0  0  0  0  0  0  0  0  0  0  0
   -6.0853    1.2430   -2.4401 H   0  0  0  0  0  0  0  0  0  0  0  0
   -7.8014    3.0954    0.7236 H   0  0  0  0  0  0  0  0  0  0  0  0
   -5.7210    3.7366    0.2951 H   0  0  0  0  0  0  0  0  0  0  0  0
   -9.3769    9.6827   -2.3805 H   0  0  0  0  0  0  0  0  0  0  0  0
  -10.9356   10.6686   -1.1613 H   0  0  0  0  0  0  0  0  0  0  0  0
   -9.2246   12.1343   -2.4345 H   0  0  0  0  0  0  0  0  0  0  0  0
   -8.3167   13.2710   -0.8476 H   0  0  0  0  0  0  0  0  0  0  0  0
   -7.3571   10.8878   -3.5622 H   0  0  0  0  0  0  0  0  0  0  0  0
   -6.1758   12.9927   -2.0238 H   0  0  0  0  0  0  0  0  0  0  0  0
   -1.7379    9.3049   -0.8978 H   0  0  0  0  0  0  0  0  0  0  0  0
   -2.0521    9.7583    1.0811 H   0  0  0  0  0  0  0  0  0  0  0  0
   -1.3350    9.9723    0.0000 H   0  0  0  0  0  0  0  0  0  0  0  0
   -3.4745   11.2970   -0.7354 H   0  0  0  0  0  0  0  0  0  0  0  0
   -4.0934   10.7664    1.1058 H   0  0  0  0  0  0  0  0  0  0  0  0
   -4.1963   11.6242    0.0000 H   0  0  0  0  0  0  0  0  0  0  0  0
   -1.9226    7.4667   -0.2707 H   0  0  0  0  0  0  0  0  0  0  0  0
   -1.7498    8.0753    2.2916 H   0  0  0  0  0  0  0  0  0  0  0  0
   -3.1584    7.0456    2.4394 H   0  0  0  0  0  0  0  0  0  0  0  0
   -1.1498    5.4175    2.3884 H   0  0  0  0  0  0  0  0  0  0  0  0
   -0.3637    6.6116    1.7515 H   0  0  0  0  0  0  0  0  0  0  0  0
    0.3105    6.2992   -0.0412 H   0  0  0  0  0  0  0  0  0  0  0  0
   -0.0076    5.6710   -1.1140 H   0  0  0  0  0  0  0  0  0  0  0  0
    1.0700    5.1962    0.0000 H   0  0  0  0  0  0  0  0  0  0  0  0
   -1.1378    1.2807   -1.0408 H   0  0  0  0  0  0  0  0  0  0  0  0
   -0.8644    0.1141    1.8317 H   0  0  0  0  0  0  0  0  0  0  0  0
   -2.3318    0.2719    0.9344 H   0  0  0  0  0  0  0  0  0  0  0  0
    0.1458   -2.9002    0.9216 H   0  0  0  0  0  0  0  0  0  0  0  0
   -0.5539   -3.1099   -1.0825 H   0  0  0  0  0  0  0  0  0  0  0  0
   -0.3037   -3.8299    0.0000 H   0  0  0  0  0  0  0  0  0  0  0  0
   -2.4430   -1.8694    1.0973 H   0  0  0  0  0  0  0  0  0  0  0  0
   -2.6208   -1.1160   -0.7483 H   0  0  0  0  0  0  0  0  0  0  0  0
   -3.1650   -2.1781    0.0000 H   0  0  0  0  0  0  0  0  0  0  0  0
    4.5693  -14.6789    0.9998 H   0  0  0  0  0  0  0  0  0  0  0  0
    5.2190  -16.4764    0.0067 H   0  0  0  0  0  0  0  0  0  0  0  0
    6.3042  -15.5957   -1.0740 H   0  0  0  0  0  0  0  0  0  0  0  0
    6.6870  -16.5022    0.0000 H   0  0  0  0  0  0  0  0  0  0  0  0
  1  2  2  0  0  0  0
  1143  1  0  0  0  0
  1144  1  0  0  0  0
  2  3  1  0  0  0  0
  2145  1  0  0  0  0
  3  4  1  0  0  0  0
  3  5  1  0  0  0  0
  3  6  1  6  0  0  0
  4146  1  0  0  0  0
  4147  1  0  0  0  0
  4148  1  0  0  0  0
  5149  1  0  0  0  0
  6  7  1  0  0  0  0
  7  8  1  0  0  0  0
  8  9  2  0  0  0  0
  8150  1  0  0  0  0
  9 10  1  0  0  0  0
  9 12  1  0  0  0  0
 10 11  1  0  0  0  0
 10151  1  0  0  0  0
 10152  1  0  0  0  0
 11153  1  0  0  0  0
 12 13  2  0  0  0  0
 12 14  1  0  0  0  0
 15 14  1  0  0  0  0
 15 16  1  0  0  0  0
 15154  1  1  0  0  0
 16 17  1  0  0  0  0
 16 18  1  0  0  0  0
 16155  1  6  0  0  0
 17156  1  0  0  0  0
 18 19  1  0  0  0  0
 18 20  1  0  0  0  0
 18157  1  6  0  0  0
 19158  1  0  0  0  0
 20 21  1  0  0  0  0
 20140  1  0  0  0  0
 20159  1  6  0  0  0
 22 21  1  6  0  0  0
 22 23  1  0  0  0  0
 22 24  1  0  0  0  0
 22 26  1  0  0  0  0
 23160  1  0  0  0  0
 23161  1  0  0  0  0
 23162  1  0  0  0  0
 24 25  2  0  0  0  0
 24163  1  0  0  0  0
 25164  1  0  0  0  0
 25165  1  0  0  0  0
 26 27  1  0  0  0  0
 26166  1  0  0  0  0
 26167  1  0  0  0  0
 27 28  1  0  0  0  0
 27168  1  0  0  0  0
 27169  1  0  0  0  0
 28 29  2  0  0  0  0
 28170  1  0  0  0  0
 29 30  1  0  0  0  0
 29 32  1  0  0  0  0
 30 31  1  0  0  0  0
 30171  1  0  0  0  0
 30172  1  0  0  0  0
 31173  1  0  0  0  0
 32 33  2  0  0  0  0
 32 34  1  0  0  0  0
 35 34  1  0  0  0  0
 35 36  1  0  0  0  0
 35174  1  1  0  0  0
 36 37  1  0  0  0  0
 36175  1  0  0  0  0
 36176  1  0  0  0  0
 37 38  1  6  0  0  0
 37 82  1  0  0  0  0
 38 39  2  0  0  0  0
 38 40  1  0  0  0  0
 41 40  1  0  0  0  0
 41 42  1  0  0  0  0
 41177  1  6  0  0  0
 42 43  1  0  0  0  0
 43 44  1  0  0  0  0
 43 46  1  0  0  0  0
 43178  1  6  0  0  0
 44 45  1  0  0  0  0
 44179  1  0  0  0  0
 44180  1  0  0  0  0
 45181  1  0  0  0  0
 46 47  1  0  0  0  0
 46 48  1  0  0  0  0
 46182  1  1  0  0  0
 47183  1  0  0  0  0
 48 49  1  0  0  0  0
 48 50  1  0  0  0  0
 48184  1  6  0  0  0
 49185  1  0  0  0  0
 50 51  1  0  0  0  0
 50 41  1  0  0  0  0
 50186  1  1  0  0  0
 52 51  1  0  0  0  0
 52 53  1  0  0  0  0
 52187  1  1  0  0  0
 53 54  1  0  0  0  0
 54 55  1  0  0  0  0
 54 56  1  0  0  0  0
 54188  1  6  0  0  0
 55189  1  0  0  0  0
 55190  1  0  0  0  0
 55191  1  0  0  0  0
 56 57  1  0  0  0  0
 56 67  1  0  0  0  0
 56192  1  1  0  0  0
 58 57  1  0  0  0  0
 58 59  1  0  0  0  0
 58193  1  6  0  0  0
 59 60  1  0  0  0  0
 60 61  1  0  0  0  0
 60 63  1  0  0  0  0
 60194  1  6  0  0  0
 61 62  1  0  0  0  0
 61195  1  0  0  0  0
 61196  1  0  0  0  0
 62197  1  0  0  0  0
 63 64  1  0  0  0  0
 63 65  1  0  0  0  0
 63198  1  1  0  0  0
 64199  1  0  0  0  0
 65 66  1  0  0  0  0
 65 58  1  0  0  0  0
 65200  1  1  0  0  0
 66201  1  0  0  0  0
 67 68  1  0  0  0  0
 67 80  1  0  0  0  0
 67202  1  6  0  0  0
 69 68  1  0  0  0  0
 69 70  1  0  0  0  0
 69203  1  1  0  0  0
 70 71  1  0  0  0  0
 71 72  1  0  0  0  0
 71 74  1  0  0  0  0
 71204  1  1  0  0  0
 72 73  1  0  0  0  0
 72205  1  0  0  0  0
 72206  1  0  0  0  0
 73207  1  0  0  0  0
 74 75  1  0  0  0  0
 74 76  1  0  0  0  0
 74208  1  6  0  0  0
 75209  1  0  0  0  0
 76 77  1  0  0  0  0
 76 78  1  0  0  0  0
 76210  1  1  0  0  0
 77211  1  0  0  0  0
 78 79  1  0  0  0  0
 78 69  1  0  0  0  0
 78212  1  6  0  0  0
 79213  1  0  0  0  0
 80 81  1  0  0  0  0
 80 52  1  0  0  0  0
 80214  1  6  0  0  0
 81215  1  0  0  0  0
 82 83  1  0  0  0  0
 82 84  1  0  0  0  0
 82216  1  6  0  0  0
 83217  1  0  0  0  0
 84 85  1  0  0  0  0
 84218  1  0  0  0  0
 84219  1  0  0  0  0
 85 86  1  1  0  0  0
 85 87  1  0  0  0  0
 86220  1  0  0  0  0
 86221  1  0  0  0  0
 86222  1  0  0  0  0
 87 88  2  0  0  0  0
 87135  1  0  0  0  0
 88 89  1  0  0  0  0
 88223  1  0  0  0  0
 89224  1  0  0  0  0
 89225  1  0  0  0  0
 90 89  1  0  0  0  0
 90 91  1  0  0  0  0
 90226  1  1  0  0  0
 91 92  1  6  0  0  0
 91 93  1  0  0  0  0
 92227  1  0  0  0  0
 92228  1  0  0  0  0
 92229  1  0  0  0  0
 93 94  1  0  0  0  0
 93230  1  0  0  0  0
 93231  1  0  0  0  0
 94 95  1  0  0  0  0
 94232  1  0  0  0  0
 94233  1  0  0  0  0
 95 96  1  0  0  0  0
 95127  1  0  0  0  0
 95234  1  1  0  0  0
 97 96  1  0  0  0  0
 97 98  1  0  0  0  0
 97235  1  1  0  0  0
 98 99  1  0  0  0  0
 99100  1  0  0  0  0
 99121  1  0  0  0  0
 99236  1  1  0  0  0
100101  1  0  0  0  0
100237  1  0  0  0  0
100238  1  0  0  0  0
102101  1  0  0  0  0
102103  1  0  0  0  0
102239  1  6  0  0  0
103104  1  0  0  0  0
104105  1  0  0  0  0
104106  1  0  0  0  0
104240  1  6  0  0  0
105241  1  0  0  0  0
105242  1  0  0  0  0
105243  1  0  0  0  0
106107  1  0  0  0  0
106108  1  0  0  0  0
106244  1  6  0  0  0
107245  1  0  0  0  0
108109  1  0  0  0  0
108110  1  0  0  0  0
108246  1  6  0  0  0
109247  1  0  0  0  0
110111  1  0  0  0  0
110102  1  0  0  0  0
110248  1  1  0  0  0
112111  1  0  0  0  0
112113  1  0  0  0  0
112249  1  6  0  0  0
113114  1  0  0  0  0
114115  1  0  0  0  0
114250  1  0  0  0  0
114251  1  0  0  0  0
115116  1  0  0  0  0
115117  1  0  0  0  0
115252  1  1  0  0  0
116253  1  0  0  0  0
117118  1  0  0  0  0
117119  1  0  0  0  0
117254  1  6  0  0  0
118255  1  0  0  0  0
119120  1  0  0  0  0
119112  1  0  0  0  0
119256  1  1  0  0  0
120257  1  0  0  0  0
121122  1  0  0  0  0
121123  1  0  0  0  0
121258  1  6  0  0  0
122259  1  0  0  0  0
123124  1  0  0  0  0
123125  1  0  0  0  0
123260  1  1  0  0  0
124261  1  0  0  0  0
125126  1  0  0  0  0
125 97  1  0  0  0  0
125262  1  6  0  0  0
126263  1  0  0  0  0
127128  1  0  0  0  0
127129  1  0  0  0  0
127130  1  0  0  0  0
128264  1  0  0  0  0
128265  1  0  0  0  0
128266  1  0  0  0  0
129267  1  0  0  0  0
129268  1  0  0  0  0
129269  1  0  0  0  0
130131  1  0  0  0  0
130 91  1  0  0  0  0
130270  1  1  0  0  0
131132  1  0  0  0  0
131271  1  0  0  0  0
131272  1  0  0  0  0
132133  1  0  0  0  0
132273  1  0  0  0  0
132274  1  0  0  0  0
133134  1  6  0  0  0
133 85  1  0  0  0  0
133 90  1  0  0  0  0
134275  1  0  0  0  0
134276  1  0  0  0  0
134277  1  0  0  0  0
135136  1  0  0  0  0
135 37  1  0  0  0  0
135278  1  6  0  0  0
136137  1  0  0  0  0
136279  1  0  0  0  0
136280  1  0  0  0  0
137138  1  0  0  0  0
137139  1  0  0  0  0
137 35  1  0  0  0  0
138281  1  0  0  0  0
138282  1  0  0  0  0
138283  1  0  0  0  0
139284  1  0  0  0  0
139285  1  0  0  0  0
139286  1  0  0  0  0
140141  1  0  0  0  0
141142  1  0  0  0  0
141 15  1  0  0  0  0
141287  1  6  0  0  0
142288  1  0  0  0  0
142289  1  0  0  0  0
142290  1  0  0  0  0
M  END
>  <IDENTIFIER>
CNP0156436.3

>  <Energy>
178727

$$$$
