
 OpenBabel09092504483D

 38 42  0  0  0  0  0  0  0  0999 V2000
   -0.4844   -0.6120   -1.7151 C   0  0  0  0  0  0  0  0  0  0  0  0
   -0.2740    0.4244   -0.5643 C   0  0  1  0  0  0  0  0  0  0  0  0
   -1.6937    0.7745   -0.1110 C   0  0  0  0  0  0  0  0  0  0  0  0
   -2.3170    1.9608   -0.3051 C   0  0  0  0  0  0  0  0  0  0  0  0
   -3.6822    2.1568    0.2526 C   0  0  0  0  0  0  0  0  0  0  0  0
   -4.2110    3.2557    0.2134 O   0  0  0  0  0  0  0  0  0  0  0  0
   -4.3153    1.1186    0.8667 O   0  0  0  0  0  0  0  0  0  0  0  0
   -3.9433   -0.1868    0.6005 C   0  0  0  0  0  0  0  0  0  0  0  0
   -2.4419   -0.2956    0.6110 C   0  0  0  0  0  0  0  0  0  0  0  0
   -1.7886   -1.3055    1.2221 C   0  0  0  0  0  0  0  0  0  0  0  0
   -0.2735   -1.3502    1.2885 C   0  0  1  0  0  0  0  0  0  0  0  0
    0.2916   -2.4175    0.6239 O   0  0  0  0  0  0  0  0  0  0  0  0
    1.5531   -2.1034    0.2494 C   0  0  0  0  0  0  0  0  0  0  0  0
    2.3682   -2.9567   -0.0702 O   0  0  0  0  0  0  0  0  0  0  0  0
    1.8814   -0.6460    0.4504 C   0  0  2  0  0  0  0  0  0  0  0  0
    2.7361   -0.5020    1.7327 C   0  0  0  0  0  0  0  0  0  0  0  0
    0.4459   -0.1159    0.7089 C   0  0  1  0  0  0  0  0  0  0  0  0
    2.6199    0.0662   -0.7479 C   0  0  1  0  0  0  0  0  0  0  0  0
    2.6538   -0.7016   -1.9267 O   0  0  0  0  0  0  0  0  0  0  0  0
    2.0437    1.4747   -1.0271 C   0  0  1  0  0  0  0  0  0  0  0  0
    1.2869    1.4553   -2.2216 O   0  0  0  0  0  0  0  0  0  0  0  0
    0.5390    1.6641   -1.0589 C   0  0  1  0  0  0  0  0  0  0  0  0
   -1.0884   -1.4855   -1.3961 H   0  0  0  0  0  0  0  0  0  0  0  0
    0.4332   -1.0254   -2.1411 H   0  0  0  0  0  0  0  0  0  0  0  0
   -1.0335   -0.1265   -2.5511 H   0  0  0  0  0  0  0  0  0  0  0  0
   -1.8395    2.7867   -0.8178 H   0  0  0  0  0  0  0  0  0  0  0  0
   -4.2740   -0.4189   -0.4356 H   0  0  0  0  0  0  0  0  0  0  0  0
   -4.4454   -0.9013    1.2868 H   0  0  0  0  0  0  0  0  0  0  0  0
   -2.3488   -2.0980    1.7088 H   0  0  0  0  0  0  0  0  0  0  0  0
    0.0120   -1.4372    2.3604 H   0  0  0  0  0  0  0  0  0  0  0  0
    2.2549   -0.9787    2.6120 H   0  0  0  0  0  0  0  0  0  0  0  0
    2.8939    0.5732    1.9666 H   0  0  0  0  0  0  0  0  0  0  0  0
    3.7298   -0.9796    1.5917 H   0  0  0  0  0  0  0  0  0  0  0  0
    0.4383    0.7371    1.4292 H   0  0  0  0  0  0  0  0  0  0  0  0
    3.6845    0.2382   -0.4576 H   0  0  0  0  0  0  0  0  0  0  0  0
    3.3952   -1.3556   -1.8380 H   0  0  0  0  0  0  0  0  0  0  0  0
    2.7634    2.3023   -1.2030 H   0  0  0  0  0  0  0  0  0  0  0  0
    0.3887    2.6897   -0.6627 H   0  0  0  0  0  0  0  0  0  0  0  0
  1 23  1  0  0  0  0
  1 24  1  0  0  0  0
  1 25  1  0  0  0  0
  2  1  1  6  0  0  0
  2  3  1  0  0  0  0
  3  4  2  0  0  0  0
  4  5  1  0  0  0  0
  4 26  1  0  0  0  0
  5  6  2  0  0  0  0
  5  7  1  0  0  0  0
  7  8  1  0  0  0  0
  8  9  1  0  0  0  0
  8 27  1  0  0  0  0
  8 28  1  0  0  0  0
  9 10  2  0  0  0  0
  9  3  1  0  0  0  0
 10 11  1  0  0  0  0
 10 29  1  0  0  0  0
 11 12  1  0  0  0  0
 11 30  1  1  0  0  0
 12 13  1  0  0  0  0
 13 14  2  0  0  0  0
 13 15  1  0  0  0  0
 15 16  1  1  0  0  0
 15 17  1  0  0  0  0
 15 18  1  0  0  0  0
 16 31  1  0  0  0  0
 16 32  1  0  0  0  0
 16 33  1  0  0  0  0
 17  2  1  0  0  0  0
 17 11  1  0  0  0  0
 17 34  1  1  0  0  0
 18 19  1  0  0  0  0
 18 20  1  0  0  0  0
 18 35  1  1  0  0  0
 19 36  1  0  0  0  0
 20 21  1  0  0  0  0
 20 37  1  1  0  0  0
 22 21  1  0  0  0  0
 22 20  1  0  0  0  0
 22  2  1  0  0  0  0
 22 38  1  1  0  0  0
M  END
>  <IDENTIFIER>
CNP0190405.2

>  <Energy>
2078.51

$$$$
