
 OpenBabel09052512033D

 55 58  0  0  0  0  0  0  0  0999 V2000
    5.8313    1.1301    2.0037 C   0  0  0  0  0  0  0  0  0  0  0  0
    5.3257    1.4612    0.5982 C   0  0  0  0  0  0  0  0  0  0  0  0
    5.3132    2.9750    0.3718 C   0  0  0  0  0  0  0  0  0  0  0  0
    3.9788    0.9377    0.4256 N   0  0  0  0  0  0  0  0  0  0  0  0
    3.6450    0.0193   -0.5257 C   0  0  0  0  0  0  0  0  0  0  0  0
    4.4939   -0.4360   -1.2790 O   0  0  0  0  0  0  0  0  0  0  0  0
    2.3567   -0.3879   -0.6589 N   0  0  0  0  0  0  0  0  0  0  0  0
    1.1508   -0.0453    0.0384 C   0  0  0  0  0  0  0  0  0  0  0  0
    0.3622   -0.9614   -0.9191 C   0  0  0  0  0  0  0  0  0  0  0  0
    1.7239   -1.3025   -1.5656 C   0  0  0  0  0  0  0  0  0  0  0  0
   -0.5995   -0.1795   -1.8454 C   0  0  0  0  0  0  0  0  0  0  0  0
   -1.8649    0.0780   -1.1321 N   0  0  0  0  0  0  0  0  0  0  0  0
   -2.3675    1.3706   -1.0818 C   0  0  0  0  0  0  0  0  0  0  0  0
   -1.7219    2.2473   -1.6436 O   0  0  0  0  0  0  0  0  0  0  0  0
   -3.6578    1.8464   -0.4162 C   0  0  0  0  0  0  0  0  0  0  0  0
   -3.9856    3.2216   -0.5651 C   0  0  0  0  0  0  0  0  0  0  0  0
   -5.1417    3.7696   -0.0065 C   0  0  0  0  0  0  0  0  0  0  0  0
   -6.0112    2.9690    0.7230 C   0  0  0  0  0  0  0  0  0  0  0  0
   -5.7253    1.6187    0.8931 C   0  0  0  0  0  0  0  0  0  0  0  0
   -4.5708    1.0582    0.3345 C   0  0  0  0  0  0  0  0  0  0  0  0
   -2.5169   -1.0845   -0.5083 C   0  0  0  0  0  0  0  0  0  0  0  0
   -1.6801   -2.3693   -0.6940 C   0  0  2  0  0  0  0  0  0  0  0  0
   -2.2444   -3.6137    0.0314 C   0  0  0  0  0  0  0  0  0  0  0  0
   -1.9458   -3.5796    1.4127 O   0  0  0  0  0  0  0  0  0  0  0  0
   -0.5345   -3.5592    1.6670 C   0  0  0  0  0  0  0  0  0  0  0  0
    0.3543   -3.1564    0.4636 C   0  0  0  0  0  0  0  0  0  0  0  0
   -0.3327   -2.0499   -0.1970 N   0  0  1  0  0  0  0  0  0  0  0  0
    6.8610    1.5236    2.1431 H   0  0  0  0  0  0  0  0  0  0  0  0
    5.8540    0.0287    2.1456 H   0  0  0  0  0  0  0  0  0  0  0  0
    5.1680    1.5775    2.7749 H   0  0  0  0  0  0  0  0  0  0  0  0
    6.0312    1.0111   -0.1344 H   0  0  0  0  0  0  0  0  0  0  0  0
    4.6354    3.4741    1.0977 H   0  0  0  0  0  0  0  0  0  0  0  0
    4.9586    3.1983   -0.6570 H   0  0  0  0  0  0  0  0  0  0  0  0
    6.3360    3.3921    0.4895 H   0  0  0  0  0  0  0  0  0  0  0  0
    3.2418    1.3020    1.0496 H   0  0  0  0  0  0  0  0  0  0  0  0
    0.9314    1.0396   -0.0668 H   0  0  0  0  0  0  0  0  0  0  0  0
    1.2167   -0.3982    1.0907 H   0  0  0  0  0  0  0  0  0  0  0  0
    1.8378   -0.9440   -2.6122 H   0  0  0  0  0  0  0  0  0  0  0  0
    2.1055   -2.3312   -1.3971 H   0  0  0  0  0  0  0  0  0  0  0  0
   -0.8257   -0.8141   -2.7288 H   0  0  0  0  0  0  0  0  0  0  0  0
   -0.1030    0.7264   -2.2549 H   0  0  0  0  0  0  0  0  0  0  0  0
   -3.3477    3.8947   -1.1238 H   0  0  0  0  0  0  0  0  0  0  0  0
   -5.3619    4.8209   -0.1424 H   0  0  0  0  0  0  0  0  0  0  0  0
   -6.9072    3.3945    1.1563 H   0  0  0  0  0  0  0  0  0  0  0  0
   -6.4049    0.9975    1.4630 H   0  0  0  0  0  0  0  0  0  0  0  0
   -4.4571    0.0177    0.5291 H   0  0  0  0  0  0  0  0  0  0  0  0
   -3.5202   -1.2498   -0.9560 H   0  0  0  0  0  0  0  0  0  0  0  0
   -2.5703   -0.9091    0.5878 H   0  0  0  0  0  0  0  0  0  0  0  0
   -1.6592   -2.6255   -1.7763 H   0  0  0  0  0  0  0  0  0  0  0  0
   -1.8025   -4.5423   -0.3965 H   0  0  0  0  0  0  0  0  0  0  0  0
   -3.3390   -3.6987   -0.1347 H   0  0  0  0  0  0  0  0  0  0  0  0
   -0.1952   -4.5310    2.0841 H   0  0  0  0  0  0  0  0  0  0  0  0
   -0.3807   -2.7798    2.4436 H   0  0  0  0  0  0  0  0  0  0  0  0
    0.4573   -3.9976   -0.2568 H   0  0  0  0  0  0  0  0  0  0  0  0
    1.3668   -2.8788    0.8262 H   0  0  0  0  0  0  0  0  0  0  0  0
  1  2  1  0  0  0  0
  1 28  1  0  0  0  0
  1 29  1  0  0  0  0
  1 30  1  0  0  0  0
  2  3  1  0  0  0  0
  2  4  1  0  0  0  0
  2 31  1  0  0  0  0
  3 32  1  0  0  0  0
  3 33  1  0  0  0  0
  3 34  1  0  0  0  0
  4  5  1  0  0  0  0
  4 35  1  0  0  0  0
  5  6  2  0  0  0  0
  5  7  1  0  0  0  0
  7  8  1  0  0  0  0
  8  9  1  0  0  0  0
  8 36  1  0  0  0  0
  8 37  1  0  0  0  0
  9 10  1  0  0  0  0
  9 11  1  0  0  0  0
 10  7  1  0  0  0  0
 10 38  1  0  0  0  0
 10 39  1  0  0  0  0
 11 12  1  0  0  0  0
 11 40  1  0  0  0  0
 11 41  1  0  0  0  0
 12 13  1  0  0  0  0
 12 21  1  0  0  0  0
 13 14  2  0  0  0  0
 13 15  1  0  0  0  0
 15 16  2  0  0  0  0
 16 17  1  0  0  0  0
 16 42  1  0  0  0  0
 17 18  2  0  0  0  0
 17 43  1  0  0  0  0
 18 19  1  0  0  0  0
 18 44  1  0  0  0  0
 19 20  2  0  0  0  0
 19 45  1  0  0  0  0
 20 15  1  0  0  0  0
 20 46  1  0  0  0  0
 21 47  1  0  0  0  0
 21 48  1  0  0  0  0
 22 21  1  0  0  0  0
 22 23  1  0  0  0  0
 22 49  1  6  0  0  0
 23 24  1  0  0  0  0
 23 50  1  0  0  0  0
 23 51  1  0  0  0  0
 24 25  1  0  0  0  0
 25 26  1  0  0  0  0
 25 52  1  0  0  0  0
 25 53  1  0  0  0  0
 26 54  1  0  0  0  0
 26 55  1  0  0  0  0
 27 26  1  6  0  0  0
 27 22  1  0  0  0  0
 27  9  1  0  0  0  0
M  END
>  <IDENTIFIER>
CNP0416543.1

>  <Energy>
1054.62

$$$$
