
 OpenBabel09082510063D

 64 66  0  0  0  0  0  0  0  0999 V2000
    3.4266   -4.6173   -1.1452 C   0  0  0  0  0  0  0  0  0  0  0  0
    3.0267   -3.3132   -0.9482 O   0  0  0  0  0  0  0  0  0  0  0  0
    1.7488   -2.9364   -0.6804 C   0  0  0  0  0  0  0  0  0  0  0  0
    0.8812   -3.7851   -0.5355 O   0  0  0  0  0  0  0  0  0  0  0  0
    1.4136   -1.4542   -0.5150 C   0  0  2  0  0  0  0  0  0  0  0  0
    2.5813   -0.7005   -0.6548 O   0  0  0  0  0  0  0  0  0  0  0  0
    3.3803   -0.5774   -1.7538 C   0  0  0  0  0  0  0  0  0  0  0  0
    3.1146   -1.1637   -2.7928 O   0  0  0  0  0  0  0  0  0  0  0  0
    4.5966    0.2603   -1.7036 C   0  0  0  0  0  0  0  0  0  0  0  0
    4.9673    0.9244   -0.5918 C   0  0  0  0  0  0  0  0  0  0  0  0
    6.1880    1.7763   -0.4820 C   0  0  0  0  0  0  0  0  0  0  0  0
    7.0866    1.9794   -1.5505 C   0  0  0  0  0  0  0  0  0  0  0  0
    8.2145    2.7854   -1.3855 C   0  0  0  0  0  0  0  0  0  0  0  0
    8.4727    3.4052   -0.1570 C   0  0  0  0  0  0  0  0  0  0  0  0
    9.5651    4.1832   -0.0025 O   0  0  0  0  0  0  0  0  0  0  0  0
    7.5859    3.2126    0.9168 C   0  0  0  0  0  0  0  0  0  0  0  0
    7.8026    3.7934    2.1157 O   0  0  0  0  0  0  0  0  0  0  0  0
    6.4549    2.4036    0.7482 C   0  0  0  0  0  0  0  0  0  0  0  0
    0.8787   -1.1900    0.9427 C   0  0  0  0  0  0  0  0  0  0  0  0
   -0.5681   -0.6255    1.0417 C   0  0  1  0  0  0  0  0  0  0  0  0
   -0.6378    0.7161    0.6283 O   0  0  0  0  0  0  0  0  0  0  0  0
   -1.4843   -1.4969    0.1694 C   0  0  1  0  0  0  0  0  0  0  0  0
   -2.8104   -1.1303    0.3374 O   0  0  0  0  0  0  0  0  0  0  0  0
   -3.8100   -1.9201    0.8141 C   0  0  0  0  0  0  0  0  0  0  0  0
   -3.5878   -3.0699    1.1649 O   0  0  0  0  0  0  0  0  0  0  0  0
   -5.1904   -1.3943    0.9068 C   0  0  0  0  0  0  0  0  0  0  0  0
   -5.4955   -0.1374    0.5311 C   0  0  0  0  0  0  0  0  0  0  0  0
   -6.8587    0.4654    0.5875 C   0  0  0  0  0  0  0  0  0  0  0  0
   -7.9961   -0.2313    1.0453 C   0  0  0  0  0  0  0  0  0  0  0  0
   -9.2461    0.3925    1.0702 C   0  0  0  0  0  0  0  0  0  0  0  0
   -9.3887    1.7193    0.6423 C   0  0  0  0  0  0  0  0  0  0  0  0
  -10.5978    2.3177    0.6678 O   0  0  0  0  0  0  0  0  0  0  0  0
   -8.2627    2.4238    0.1833 C   0  0  0  0  0  0  0  0  0  0  0  0
   -8.3605    3.7027   -0.2375 O   0  0  0  0  0  0  0  0  0  0  0  0
   -7.0121    1.7963    0.1593 C   0  0  0  0  0  0  0  0  0  0  0  0
   -1.1048   -1.3667   -1.3313 C   0  0  2  0  0  0  0  0  0  0  0  0
   -1.5030   -2.4929   -2.0731 O   0  0  0  0  0  0  0  0  0  0  0  0
    0.3766   -0.9680   -1.5733 C   0  0  0  0  0  0  0  0  0  0  0  0
    4.5177   -4.6351   -1.3457 H   0  0  0  0  0  0  0  0  0  0  0  0
    2.8961   -5.0497   -2.0203 H   0  0  0  0  0  0  0  0  0  0  0  0
    3.2179   -5.2243   -0.2387 H   0  0  0  0  0  0  0  0  0  0  0  0
    5.1842    0.3121   -2.6099 H   0  0  0  0  0  0  0  0  0  0  0  0
    4.3427    0.8373    0.2940 H   0  0  0  0  0  0  0  0  0  0  0  0
    6.9377    1.5264   -2.5181 H   0  0  0  0  0  0  0  0  0  0  0  0
    8.8919    2.9277   -2.2194 H   0  0  0  0  0  0  0  0  0  0  0  0
   10.1952    4.3350   -0.7213 H   0  0  0  0  0  0  0  0  0  0  0  0
    8.5659    4.3610    2.2917 H   0  0  0  0  0  0  0  0  0  0  0  0
    5.7820    2.2649    1.5865 H   0  0  0  0  0  0  0  0  0  0  0  0
    1.5699   -0.5330    1.5155 H   0  0  0  0  0  0  0  0  0  0  0  0
    0.8851   -2.1495    1.5078 H   0  0  0  0  0  0  0  0  0  0  0  0
   -0.9031   -0.6874    2.1027 H   0  0  0  0  0  0  0  0  0  0  0  0
   -0.0515    1.2358    1.2374 H   0  0  0  0  0  0  0  0  0  0  0  0
   -1.3103   -2.5433    0.5088 H   0  0  0  0  0  0  0  0  0  0  0  0
   -5.9480   -2.0663    1.2887 H   0  0  0  0  0  0  0  0  0  0  0  0
   -4.6957    0.4955    0.1545 H   0  0  0  0  0  0  0  0  0  0  0  0
   -7.9404   -1.2536    1.3857 H   0  0  0  0  0  0  0  0  0  0  0  0
  -10.1085   -0.1590    1.4256 H   0  0  0  0  0  0  0  0  0  0  0  0
  -11.3934    1.8608    0.9770 H   0  0  0  0  0  0  0  0  0  0  0  0
   -9.1972    4.1893   -0.2439 H   0  0  0  0  0  0  0  0  0  0  0  0
   -6.1544    2.3547   -0.1976 H   0  0  0  0  0  0  0  0  0  0  0  0
   -1.6769   -0.5135   -1.7617 H   0  0  0  0  0  0  0  0  0  0  0  0
   -1.1426   -3.3029   -1.6384 H   0  0  0  0  0  0  0  0  0  0  0  0
    0.4044    0.1401   -1.4792 H   0  0  0  0  0  0  0  0  0  0  0  0
    0.6648   -1.1665   -2.6260 H   0  0  0  0  0  0  0  0  0  0  0  0
  1  2  1  0  0  0  0
  1 39  1  0  0  0  0
  1 40  1  0  0  0  0
  1 41  1  0  0  0  0
  2  3  1  0  0  0  0
  3  4  2  0  0  0  0
  5  3  1  6  0  0  0
  5  6  1  0  0  0  0
  5 19  1  0  0  0  0
  6  7  1  0  0  0  0
  7  8  2  0  0  0  0
  7  9  1  0  0  0  0
  9 10  2  0  0  0  0
  9 42  1  0  0  0  0
 10 11  1  0  0  0  0
 10 43  1  0  0  0  0
 11 12  2  0  0  0  0
 12 13  1  0  0  0  0
 12 44  1  0  0  0  0
 13 14  2  0  0  0  0
 13 45  1  0  0  0  0
 14 15  1  0  0  0  0
 14 16  1  0  0  0  0
 15 46  1  0  0  0  0
 16 17  1  0  0  0  0
 16 18  2  0  0  0  0
 17 47  1  0  0  0  0
 18 11  1  0  0  0  0
 18 48  1  0  0  0  0
 19 20  1  0  0  0  0
 19 49  1  0  0  0  0
 19 50  1  0  0  0  0
 20 21  1  0  0  0  0
 20 22  1  0  0  0  0
 20 51  1  1  0  0  0
 21 52  1  0  0  0  0
 22 23  1  0  0  0  0
 22 36  1  0  0  0  0
 22 53  1  1  0  0  0
 23 24  1  0  0  0  0
 24 25  2  0  0  0  0
 24 26  1  0  0  0  0
 26 27  2  0  0  0  0
 26 54  1  0  0  0  0
 27 28  1  0  0  0  0
 27 55  1  0  0  0  0
 28 29  2  0  0  0  0
 29 30  1  0  0  0  0
 29 56  1  0  0  0  0
 30 31  2  0  0  0  0
 30 57  1  0  0  0  0
 31 32  1  0  0  0  0
 31 33  1  0  0  0  0
 32 58  1  0  0  0  0
 33 34  1  0  0  0  0
 33 35  2  0  0  0  0
 34 59  1  0  0  0  0
 35 28  1  0  0  0  0
 35 60  1  0  0  0  0
 36 37  1  0  0  0  0
 36 38  1  0  0  0  0
 36 61  1  6  0  0  0
 37 62  1  0  0  0  0
 38  5  1  0  0  0  0
 38 63  1  0  0  0  0
 38 64  1  0  0  0  0
M  END
>  <IDENTIFIER>
CNP0387144.1

>  <Energy>
529.761

$$$$
