
 OpenBabel09072512113D

 35 37  0  0  0  0  0  0  0  0999 V2000
    4.3534   -0.5423    0.1175 C   0  0  0  0  0  0  0  0  0  0  0  0
    3.6359    0.5024   -0.7397 C   0  0  0  0  0  0  0  0  0  0  0  0
    2.6476    1.3975    0.0377 C   0  0  0  0  0  0  0  0  0  0  0  0
    1.3292    0.7477    0.5282 C   0  0  2  0  0  0  0  0  0  0  0  0
    1.5922   -0.2510    1.4836 O   0  0  0  0  0  0  0  0  0  0  0  0
    0.4192    0.2581   -0.6383 C   0  0  2  0  0  0  0  0  0  0  0  0
    0.1920    1.3338   -1.5358 O   0  0  0  0  0  0  0  0  0  0  0  0
   -1.1971    1.5991   -1.5435 C   0  0  0  0  0  0  0  0  0  0  0  0
   -1.8436    0.5815   -0.6893 C   0  0  0  0  0  0  0  0  0  0  0  0
   -0.9292   -0.1969   -0.1690 C   0  0  0  0  0  0  0  0  0  0  0  0
   -1.2179   -1.3519    0.7679 C   0  0  2  0  0  0  0  0  0  0  0  0
   -0.6366   -2.5370    0.2862 O   0  0  0  0  0  0  0  0  0  0  0  0
   -2.7114   -1.5821    1.0659 C   0  0  2  0  0  0  0  0  0  0  0  0
   -3.3973   -1.9024   -0.1204 O   0  0  0  0  0  0  0  0  0  0  0  0
   -3.7452   -0.6764    0.4793 C   0  0  2  0  0  0  0  0  0  0  0  0
   -3.3295    0.4853   -0.4411 C   0  0  2  0  0  0  0  0  0  0  0  0
   -4.0356    0.4157   -1.6543 O   0  0  0  0  0  0  0  0  0  0  0  0
    5.1082   -1.0680   -0.5044 H   0  0  0  0  0  0  0  0  0  0  0  0
    3.6680   -1.3105    0.5121 H   0  0  0  0  0  0  0  0  0  0  0  0
    4.8792   -0.0483    0.9625 H   0  0  0  0  0  0  0  0  0  0  0  0
    3.1354    0.0184   -1.6039 H   0  0  0  0  0  0  0  0  0  0  0  0
    4.4287    1.1692   -1.1437 H   0  0  0  0  0  0  0  0  0  0  0  0
    2.3697    2.2381   -0.6347 H   0  0  0  0  0  0  0  0  0  0  0  0
    3.1801    1.8464    0.9044 H   0  0  0  0  0  0  0  0  0  0  0  0
    0.7602    1.5503    1.0479 H   0  0  0  0  0  0  0  0  0  0  0  0
    1.5768   -1.1332    1.0330 H   0  0  0  0  0  0  0  0  0  0  0  0
    0.8994   -0.5762   -1.1933 H   0  0  0  0  0  0  0  0  0  0  0  0
   -1.5847    1.5133   -2.5805 H   0  0  0  0  0  0  0  0  0  0  0  0
   -1.3952    2.6135   -1.1368 H   0  0  0  0  0  0  0  0  0  0  0  0
   -0.7458   -1.1126    1.7411 H   0  0  0  0  0  0  0  0  0  0  0  0
   -1.0011   -2.7033   -0.6230 H   0  0  0  0  0  0  0  0  0  0  0  0
   -3.0027   -2.3265    1.8360 H   0  0  0  0  0  0  0  0  0  0  0  0
   -4.8002   -0.7525    0.8159 H   0  0  0  0  0  0  0  0  0  0  0  0
   -3.6259    1.4282    0.0647 H   0  0  0  0  0  0  0  0  0  0  0  0
   -3.6948   -0.3698   -2.1574 H   0  0  0  0  0  0  0  0  0  0  0  0
  1  2  1  0  0  0  0
  1 18  1  0  0  0  0
  1 19  1  0  0  0  0
  1 20  1  0  0  0  0
  2  3  1  0  0  0  0
  2 21  1  0  0  0  0
  2 22  1  0  0  0  0
  3  4  1  0  0  0  0
  3 23  1  0  0  0  0
  3 24  1  0  0  0  0
  4  5  1  0  0  0  0
  4  6  1  0  0  0  0
  4 25  1  1  0  0  0
  5 26  1  0  0  0  0
  6  7  1  0  0  0  0
  6 27  1  6  0  0  0
  7  8  1  0  0  0  0
  8  9  1  0  0  0  0
  8 28  1  0  0  0  0
  8 29  1  0  0  0  0
  9 10  2  0  0  0  0
 10 11  1  0  0  0  0
 10  6  1  0  0  0  0
 11 12  1  0  0  0  0
 11 13  1  0  0  0  0
 11 30  1  1  0  0  0
 12 31  1  0  0  0  0
 13 14  1  0  0  0  0
 13 32  1  1  0  0  0
 15 14  1  0  0  0  0
 15 16  1  0  0  0  0
 15 13  1  0  0  0  0
 15 33  1  1  0  0  0
 16 17  1  0  0  0  0
 16  9  1  0  0  0  0
 16 34  1  1  0  0  0
 17 35  1  0  0  0  0
M  END
>  <IDENTIFIER>
CNP0117619.10

>  <Energy>
1726.75

$$$$
