
 OpenBabel09052517303D

 46 50  0  0  0  0  0  0  0  0999 V2000
   -0.2409   -0.5405   -2.3641 O   0  0  0  0  0  0  0  0  0  0  0  0
    0.0718   -1.2329   -1.4080 C   0  0  0  0  0  0  0  0  0  0  0  0
   -1.0319   -1.8522   -0.5743 C   0  0  0  0  0  0  0  0  0  0  0  0
   -0.7673   -2.8129    0.4295 C   0  0  0  0  0  0  0  0  0  0  0  0
   -1.7981   -3.3724    1.1852 C   0  0  0  0  0  0  0  0  0  0  0  0
   -3.1159   -2.9933    0.9641 C   0  0  0  0  0  0  0  0  0  0  0  0
   -3.4138   -2.0522   -0.0159 C   0  0  0  0  0  0  0  0  0  0  0  0
   -2.3903   -1.4712   -0.7930 C   0  0  0  0  0  0  0  0  0  0  0  0
   -2.6763   -0.5455   -1.7507 O   0  0  0  0  0  0  0  0  0  0  0  0
   -3.8907    0.0586   -2.0254 C   0  0  0  0  0  0  0  0  0  0  0  0
   -4.3174    0.9622   -0.8968 C   0  0  0  0  0  0  0  0  0  0  0  0
   -3.4751    2.0048   -0.4745 C   0  0  0  0  0  0  0  0  0  0  0  0
   -3.8681    2.8505    0.5677 C   0  0  0  0  0  0  0  0  0  0  0  0
   -5.1040    2.6639    1.1927 C   0  0  0  0  0  0  0  0  0  0  0  0
   -5.9488    1.6314    0.7767 C   0  0  0  0  0  0  0  0  0  0  0  0
   -5.5593    0.7827   -0.2641 C   0  0  0  0  0  0  0  0  0  0  0  0
    1.5683   -1.3473   -1.1892 C   0  0  2  0  0  0  0  0  0  0  0  0
    2.0755   -2.1486   -0.1604 O   0  0  0  0  0  0  0  0  0  0  0  0
    1.9434   -0.7749    0.1403 C   0  0  1  0  0  0  0  0  0  0  0  0
    3.3121   -0.1878    0.3479 C   0  0  0  0  0  0  0  0  0  0  0  0
    4.3568   -0.1011   -0.5756 C   0  0  0  0  0  0  0  0  0  0  0  0
    5.3644    0.5454    0.0958 C   0  0  0  0  0  0  0  0  0  0  0  0
    6.6407    0.9239   -0.3134 C   0  0  0  0  0  0  0  0  0  0  0  0
    7.4553    1.5916    0.6199 C   0  0  0  0  0  0  0  0  0  0  0  0
    6.9786    1.8583    1.9238 C   0  0  0  0  0  0  0  0  0  0  0  0
    5.6829    1.4612    2.3040 C   0  0  0  0  0  0  0  0  0  0  0  0
    4.9004    0.8048    1.3569 C   0  0  0  0  0  0  0  0  0  0  0  0
    3.6741    0.3622    1.4954 O   0  0  0  0  0  0  0  0  0  0  0  0
    0.2212   -3.1651    0.6500 H   0  0  0  0  0  0  0  0  0  0  0  0
   -1.5720   -4.1088    1.9460 H   0  0  0  0  0  0  0  0  0  0  0  0
   -3.9113   -3.4326    1.5527 H   0  0  0  0  0  0  0  0  0  0  0  0
   -4.4495   -1.7863   -0.1627 H   0  0  0  0  0  0  0  0  0  0  0  0
   -4.6557   -0.7122   -2.2622 H   0  0  0  0  0  0  0  0  0  0  0  0
   -3.7630    0.6872   -2.9316 H   0  0  0  0  0  0  0  0  0  0  0  0
   -2.5153    2.1605   -0.9519 H   0  0  0  0  0  0  0  0  0  0  0  0
   -3.2150    3.6512    0.8901 H   0  0  0  0  0  0  0  0  0  0  0  0
   -5.4077    3.3201    1.9982 H   0  0  0  0  0  0  0  0  0  0  0  0
   -6.9068    1.4893    1.2598 H   0  0  0  0  0  0  0  0  0  0  0  0
   -6.2264   -0.0108   -0.5767 H   0  0  0  0  0  0  0  0  0  0  0  0
    2.2710   -1.0610   -1.9962 H   0  0  0  0  0  0  0  0  0  0  0  0
    1.2289   -0.7233    0.9898 H   0  0  0  0  0  0  0  0  0  0  0  0
    4.3863   -0.4471   -1.5994 H   0  0  0  0  0  0  0  0  0  0  0  0
    6.9940    0.7157   -1.3154 H   0  0  0  0  0  0  0  0  0  0  0  0
    8.4521    1.9038    0.3371 H   0  0  0  0  0  0  0  0  0  0  0  0
    7.6129    2.3729    2.6336 H   0  0  0  0  0  0  0  0  0  0  0  0
    5.3057    1.6617    3.2983 H   0  0  0  0  0  0  0  0  0  0  0  0
  1  2  2  0  0  0  0
  2  3  1  0  0  0  0
  3  4  2  0  0  0  0
  4  5  1  0  0  0  0
  4 29  1  0  0  0  0
  5  6  2  0  0  0  0
  5 30  1  0  0  0  0
  6  7  1  0  0  0  0
  6 31  1  0  0  0  0
  7  8  2  0  0  0  0
  7 32  1  0  0  0  0
  8  9  1  0  0  0  0
  8  3  1  0  0  0  0
  9 10  1  0  0  0  0
 10 11  1  0  0  0  0
 10 33  1  0  0  0  0
 10 34  1  0  0  0  0
 11 12  2  0  0  0  0
 12 13  1  0  0  0  0
 12 35  1  0  0  0  0
 13 14  2  0  0  0  0
 13 36  1  0  0  0  0
 14 15  1  0  0  0  0
 14 37  1  0  0  0  0
 15 16  2  0  0  0  0
 15 38  1  0  0  0  0
 16 11  1  0  0  0  0
 16 39  1  0  0  0  0
 17  2  1  0  0  0  0
 17 18  1  0  0  0  0
 17 40  1  6  0  0  0
 18 19  1  0  0  0  0
 19 20  1  0  0  0  0
 19 17  1  0  0  0  0
 19 41  1  1  0  0  0
 20 21  2  0  0  0  0
 21 22  1  0  0  0  0
 21 42  1  0  0  0  0
 22 23  2  0  0  0  0
 23 24  1  0  0  0  0
 23 43  1  0  0  0  0
 24 25  2  0  0  0  0
 24 44  1  0  0  0  0
 25 26  1  0  0  0  0
 25 45  1  0  0  0  0
 26 27  2  0  0  0  0
 26 46  1  0  0  0  0
 27 28  1  0  0  0  0
 27 22  1  0  0  0  0
 28 20  1  0  0  0  0
M  END
>  <IDENTIFIER>
CNP0362870.1

>  <Energy>
1860.65

$$$$
