
 OpenBabel09112521053D

 62 67  0  0  0  0  0  0  0  0999 V2000
   -2.1582   -3.0740    0.3387 C   0  0  0  0  0  0  0  0  0  0  0  0
   -1.9585   -1.7287   -0.3801 C   0  0  2  0  0  0  0  0  0  0  0  0
   -0.5749   -1.2985   -0.1694 N   0  0  0  0  0  0  0  0  0  0  0  0
    0.3800   -0.9893   -1.2054 C   0  0  0  0  0  0  0  0  0  0  0  0
   -0.0376   -0.9726   -2.5929 S   0  0  0  0  0  0  0  0  0  0  0  0
    1.7498   -0.6668   -0.8524 N   0  0  0  0  0  0  0  0  0  0  0  0
    2.7017   -0.0970   -1.8088 C   0  0  0  0  0  0  0  0  0  0  0  0
    4.0640   -0.8699   -1.8404 C   0  0  2  0  0  0  0  0  0  0  0  0
    4.2333   -1.7946   -0.6352 C   0  0  0  0  0  0  0  0  0  0  0  0
    3.7853   -0.9990    0.5884 C   0  0  2  0  0  0  0  0  0  0  0  0
    2.2339   -0.9168    0.5137 C   0  0  0  0  0  0  0  0  0  0  0  0
    4.4975    0.3526    0.6426 C   0  0  0  0  0  0  0  0  0  0  0  0
    4.4647    1.0660    1.8494 C   0  0  0  0  0  0  0  0  0  0  0  0
    5.1677    2.2595    1.9708 C   0  0  0  0  0  0  0  0  0  0  0  0
    5.9050    2.7424    0.8960 C   0  0  0  0  0  0  0  0  0  0  0  0
    5.9217    2.0341   -0.3081 C   0  0  0  0  0  0  0  0  0  0  0  0
    6.5634    2.4795   -1.2456 O   0  0  0  0  0  0  0  0  0  0  0  0
    5.2089    0.8525   -0.4383 N   0  0  0  0  0  0  0  0  0  0  0  0
    5.2067    0.1628   -1.7551 C   0  0  0  0  0  0  0  0  0  0  0  0
   -2.9645   -0.5969    0.0479 C   0  0  2  0  0  0  0  0  0  0  0  0
   -2.8290   -0.2032    1.5518 C   0  0  0  0  0  0  0  0  0  0  0  0
   -3.8145    0.9370    1.8967 C   0  0  1  0  0  0  0  0  0  0  0  0
   -3.5045    2.1728    1.0245 C   0  0  0  0  0  0  0  0  0  0  0  0
   -3.6643    1.8043   -0.4651 C   0  0  2  0  0  0  0  0  0  0  0  0
   -5.1088    1.3357   -0.7328 C   0  0  0  0  0  0  0  0  0  0  0  0
   -5.4173    0.1018    0.1397 C   0  0  2  0  0  0  0  0  0  0  0  0
   -5.2617    0.4708    1.6305 C   0  0  0  0  0  0  0  0  0  0  0  0
   -4.4386   -1.0397   -0.2132 C   0  0  0  0  0  0  0  0  0  0  0  0
   -2.6828    0.6698   -0.8195 C   0  0  0  0  0  0  0  0  0  0  0  0
   -1.4212   -3.8101   -0.0475 H   0  0  0  0  0  0  0  0  0  0  0  0
   -3.1659   -3.4940    0.1501 H   0  0  0  0  0  0  0  0  0  0  0  0
   -2.0004   -2.9744    1.4322 H   0  0  0  0  0  0  0  0  0  0  0  0
   -2.1499   -1.9293   -1.4545 H   0  0  0  0  0  0  0  0  0  0  0  0
   -0.2805   -1.1934    0.8099 H   0  0  0  0  0  0  0  0  0  0  0  0
    2.8697    0.9364   -1.4327 H   0  0  0  0  0  0  0  0  0  0  0  0
    2.3231    0.0668   -2.8374 H   0  0  0  0  0  0  0  0  0  0  0  0
    4.1488   -1.4705   -2.7720 H   0  0  0  0  0  0  0  0  0  0  0  0
    5.2919   -2.1294   -0.5556 H   0  0  0  0  0  0  0  0  0  0  0  0
    3.6093   -2.7111   -0.7363 H   0  0  0  0  0  0  0  0  0  0  0  0
    4.0690   -1.5715    1.5000 H   0  0  0  0  0  0  0  0  0  0  0  0
    1.7904   -0.2221    1.2589 H   0  0  0  0  0  0  0  0  0  0  0  0
    1.9040   -1.9468    0.7784 H   0  0  0  0  0  0  0  0  0  0  0  0
    3.9143    0.6842    2.7007 H   0  0  0  0  0  0  0  0  0  0  0  0
    5.1519    2.8048    2.9057 H   0  0  0  0  0  0  0  0  0  0  0  0
    6.4580    3.6690    0.9975 H   0  0  0  0  0  0  0  0  0  0  0  0
    6.2011   -0.3062   -1.9201 H   0  0  0  0  0  0  0  0  0  0  0  0
    5.0389    0.8958   -2.5768 H   0  0  0  0  0  0  0  0  0  0  0  0
   -1.7997    0.1465    1.7779 H   0  0  0  0  0  0  0  0  0  0  0  0
   -3.0449   -1.0751    2.2053 H   0  0  0  0  0  0  0  0  0  0  0  0
   -3.7051    1.2068    2.9696 H   0  0  0  0  0  0  0  0  0  0  0  0
   -2.4674    2.5247    1.2190 H   0  0  0  0  0  0  0  0  0  0  0  0
   -4.1970    3.0036    1.2835 H   0  0  0  0  0  0  0  0  0  0  0  0
   -3.4423    2.6941   -1.0937 H   0  0  0  0  0  0  0  0  0  0  0  0
   -5.2326    1.0803   -1.8085 H   0  0  0  0  0  0  0  0  0  0  0  0
   -5.8224    2.1554   -0.4963 H   0  0  0  0  0  0  0  0  0  0  0  0
   -6.4602   -0.2330   -0.0514 H   0  0  0  0  0  0  0  0  0  0  0  0
   -5.4997   -0.4094    2.2671 H   0  0  0  0  0  0  0  0  0  0  0  0
   -5.9751    1.2820    1.8953 H   0  0  0  0  0  0  0  0  0  0  0  0
   -4.5709   -1.3207   -1.2816 H   0  0  0  0  0  0  0  0  0  0  0  0
   -4.7031   -1.9220    0.4065 H   0  0  0  0  0  0  0  0  0  0  0  0
   -1.6451    1.0333   -0.6533 H   0  0  0  0  0  0  0  0  0  0  0  0
   -2.7851    0.4241   -1.9001 H   0  0  0  0  0  0  0  0  0  0  0  0
  1 30  1  0  0  0  0
  1 31  1  0  0  0  0
  1 32  1  0  0  0  0
  2  1  1  0  0  0  0
  2  3  1  0  0  0  0
  2 33  1  6  0  0  0
  3  4  1  0  0  0  0
  3 34  1  0  0  0  0
  4  5  2  0  0  0  0
  4  6  1  0  0  0  0
  6  7  1  0  0  0  0
  7 35  1  0  0  0  0
  7 36  1  0  0  0  0
  8  7  1  0  0  0  0
  8  9  1  0  0  0  0
  8 37  1  6  0  0  0
  9 10  1  0  0  0  0
  9 38  1  0  0  0  0
  9 39  1  0  0  0  0
 10 11  1  0  0  0  0
 10 12  1  0  0  0  0
 10 40  1  1  0  0  0
 11  6  1  0  0  0  0
 11 41  1  0  0  0  0
 11 42  1  0  0  0  0
 12 13  2  0  0  0  0
 13 14  1  0  0  0  0
 13 43  1  0  0  0  0
 14 15  2  0  0  0  0
 14 44  1  0  0  0  0
 15 16  1  0  0  0  0
 15 45  1  0  0  0  0
 16 17  2  0  0  0  0
 16 18  1  0  0  0  0
 18 19  1  0  0  0  0
 18 12  1  0  0  0  0
 19  8  1  0  0  0  0
 19 46  1  0  0  0  0
 19 47  1  0  0  0  0
 20  2  1  6  0  0  0
 20 21  1  0  0  0  0
 21 48  1  0  0  0  0
 21 49  1  0  0  0  0
 22 21  1  0  0  0  0
 22 23  1  0  0  0  0
 22 50  1  1  0  0  0
 23 51  1  0  0  0  0
 23 52  1  0  0  0  0
 24 23  1  0  0  0  0
 24 25  1  0  0  0  0
 24 29  1  0  0  0  0
 24 53  1  6  0  0  0
 25 54  1  0  0  0  0
 25 55  1  0  0  0  0
 26 25  1  0  0  0  0
 26 27  1  0  0  0  0
 26 28  1  0  0  0  0
 26 56  1  6  0  0  0
 27 22  1  0  0  0  0
 27 57  1  0  0  0  0
 27 58  1  0  0  0  0
 28 20  1  0  0  0  0
 28 59  1  0  0  0  0
 28 60  1  0  0  0  0
 29 20  1  0  0  0  0
 29 61  1  0  0  0  0
 29 62  1  0  0  0  0
M  END
>  <IDENTIFIER>
CNP0408431.1

>  <Energy>
513.158

$$$$
