
 OpenBabel09072511293D

 40 42  0  0  0  0  0  0  0  0999 V2000
    6.2734    1.5686   -0.3097 C   0  0  0  0  0  0  0  0  0  0  0  0
    5.4180    0.4763   -0.9460 C   0  0  0  0  0  0  0  0  0  0  0  0
    4.1348    0.2485   -0.1402 C   0  0  0  0  0  0  0  0  0  0  0  0
    3.2394   -0.8114   -0.7991 C   0  0  0  0  0  0  0  0  0  0  0  0
    1.9438   -0.9644   -0.0332 C   0  0  0  0  0  0  0  0  0  0  0  0
    0.7433   -0.5394   -0.6255 C   0  0  0  0  0  0  0  0  0  0  0  0
   -0.4735   -0.6221    0.0759 C   0  0  0  0  0  0  0  0  0  0  0  0
   -0.4841   -1.1494    1.3792 C   0  0  0  0  0  0  0  0  0  0  0  0
    0.7028   -1.5995    1.9633 C   0  0  0  0  0  0  0  0  0  0  0  0
    1.9185   -1.5095    1.2676 C   0  0  0  0  0  0  0  0  0  0  0  0
    3.0581   -1.9454    1.8445 O   0  0  0  0  0  0  0  0  0  0  0  0
   -1.6164   -1.2121    2.0653 O   0  0  0  0  0  0  0  0  0  0  0  0
   -2.7759   -0.7818    1.5833 C   0  0  0  0  0  0  0  0  0  0  0  0
   -2.8807   -0.2428    0.2817 C   0  0  0  0  0  0  0  0  0  0  0  0
   -4.2149    0.2428   -0.2330 C   0  0  0  0  0  0  0  0  0  0  0  0
   -5.2161    0.6767    0.6681 C   0  0  0  0  0  0  0  0  0  0  0  0
   -6.4488    1.1458    0.2056 C   0  0  0  0  0  0  0  0  0  0  0  0
   -6.7178    1.1828   -1.1605 C   0  0  0  0  0  0  0  0  0  0  0  0
   -5.7543    0.7503   -2.0685 C   0  0  0  0  0  0  0  0  0  0  0  0
   -4.5150    0.2890   -1.6158 C   0  0  0  0  0  0  0  0  0  0  0  0
   -1.6854   -0.1726   -0.4793 C   0  0  0  0  0  0  0  0  0  0  0  0
   -1.6829    0.3128   -1.5975 O   0  0  0  0  0  0  0  0  0  0  0  0
    7.1941    1.7205   -0.9113 H   0  0  0  0  0  0  0  0  0  0  0  0
    6.5647    1.2799    0.7231 H   0  0  0  0  0  0  0  0  0  0  0  0
    5.7111    2.5263   -0.2744 H   0  0  0  0  0  0  0  0  0  0  0  0
    6.0034   -0.4673   -0.9920 H   0  0  0  0  0  0  0  0  0  0  0  0
    5.1586    0.7880   -1.9815 H   0  0  0  0  0  0  0  0  0  0  0  0
    3.5703    1.2068   -0.0884 H   0  0  0  0  0  0  0  0  0  0  0  0
    4.4048   -0.0571    0.8926 H   0  0  0  0  0  0  0  0  0  0  0  0
    3.7571   -1.7927   -0.8667 H   0  0  0  0  0  0  0  0  0  0  0  0
    3.0271   -0.4696   -1.8363 H   0  0  0  0  0  0  0  0  0  0  0  0
    0.7628   -0.1212   -1.6247 H   0  0  0  0  0  0  0  0  0  0  0  0
    0.6824   -2.0100    2.9657 H   0  0  0  0  0  0  0  0  0  0  0  0
    3.0741   -2.3298    2.7324 H   0  0  0  0  0  0  0  0  0  0  0  0
   -3.6420   -0.8843    2.2195 H   0  0  0  0  0  0  0  0  0  0  0  0
   -5.0525    0.6854    1.7358 H   0  0  0  0  0  0  0  0  0  0  0  0
   -7.1961    1.4858    0.9110 H   0  0  0  0  0  0  0  0  0  0  0  0
   -7.6738    1.5444   -1.5159 H   0  0  0  0  0  0  0  0  0  0  0  0
   -5.9666    0.7716   -3.1302 H   0  0  0  0  0  0  0  0  0  0  0  0
   -3.8191   -0.0484   -2.3669 H   0  0  0  0  0  0  0  0  0  0  0  0
  1  2  1  0  0  0  0
  1 23  1  0  0  0  0
  1 24  1  0  0  0  0
  1 25  1  0  0  0  0
  2  3  1  0  0  0  0
  2 26  1  0  0  0  0
  2 27  1  0  0  0  0
  3  4  1  0  0  0  0
  3 28  1  0  0  0  0
  3 29  1  0  0  0  0
  4  5  1  0  0  0  0
  4 30  1  0  0  0  0
  4 31  1  0  0  0  0
  5  6  2  0  0  0  0
  6  7  1  0  0  0  0
  6 32  1  0  0  0  0
  7  8  2  0  0  0  0
  8  9  1  0  0  0  0
  8 12  1  0  0  0  0
  9 10  2  0  0  0  0
  9 33  1  0  0  0  0
 10 11  1  0  0  0  0
 10  5  1  0  0  0  0
 11 34  1  0  0  0  0
 12 13  1  0  0  0  0
 13 14  2  0  0  0  0
 13 35  1  0  0  0  0
 14 15  1  0  0  0  0
 14 21  1  0  0  0  0
 15 16  2  0  0  0  0
 16 17  1  0  0  0  0
 16 36  1  0  0  0  0
 17 18  2  0  0  0  0
 17 37  1  0  0  0  0
 18 19  1  0  0  0  0
 18 38  1  0  0  0  0
 19 20  2  0  0  0  0
 19 39  1  0  0  0  0
 20 15  1  0  0  0  0
 20 40  1  0  0  0  0
 21 22  2  0  0  0  0
 21  7  1  0  0  0  0
M  END
>  <IDENTIFIER>
CNP0363331.0

>  <Energy>
244.236

$$$$
