
 OpenBabel09122523543D

 20 20  0  0  0  0  0  0  0  0999 V2000
    2.4857   -0.0804    0.3164 C   0  0  0  0  0  0  0  0  0  0  0  0
    1.4928   -0.5407   -0.7535 C   0  0  0  0  0  0  0  0  0  0  0  0
    0.0584   -0.3920   -0.2864 C   0  0  0  0  0  0  0  0  0  0  0  0
   -0.6703   -1.5619    0.0029 C   0  0  0  0  0  0  0  0  0  0  0  0
   -1.9878   -1.4916    0.4538 C   0  0  0  0  0  0  0  0  0  0  0  0
   -2.6042   -0.2544    0.6181 C   0  0  0  0  0  0  0  0  0  0  0  0
   -1.9081    0.9186    0.3262 C   0  0  0  0  0  0  0  0  0  0  0  0
   -0.5758    0.8739   -0.1319 C   0  0  0  0  0  0  0  0  0  0  0  0
    0.1129    2.1493   -0.4653 C   0  0  0  0  0  0  0  0  0  0  0  0
   -0.4471    3.2240   -0.3130 O   0  0  0  0  0  0  0  0  0  0  0  0
    3.5220   -0.2203   -0.0570 H   0  0  0  0  0  0  0  0  0  0  0  0
    2.3568   -0.6917    1.2352 H   0  0  0  0  0  0  0  0  0  0  0  0
    2.3545    0.9850    0.5864 H   0  0  0  0  0  0  0  0  0  0  0  0
    1.7252   -1.6096   -0.9539 H   0  0  0  0  0  0  0  0  0  0  0  0
    1.6403    0.0072   -1.7082 H   0  0  0  0  0  0  0  0  0  0  0  0
   -0.2135   -2.5377   -0.1096 H   0  0  0  0  0  0  0  0  0  0  0  0
   -2.5315   -2.4000    0.6784 H   0  0  0  0  0  0  0  0  0  0  0  0
   -3.6271   -0.2032    0.9680 H   0  0  0  0  0  0  0  0  0  0  0  0
   -2.4195    1.8649    0.4530 H   0  0  0  0  0  0  0  0  0  0  0  0
    1.1155    2.1548   -0.8727 H   0  0  0  0  0  0  0  0  0  0  0  0
  1  2  1  0  0  0  0
  1 11  1  0  0  0  0
  1 12  1  0  0  0  0
  1 13  1  0  0  0  0
  2  3  1  0  0  0  0
  2 14  1  0  0  0  0
  2 15  1  0  0  0  0
  3  4  2  0  0  0  0
  4  5  1  0  0  0  0
  4 16  1  0  0  0  0
  5  6  2  0  0  0  0
  5 17  1  0  0  0  0
  6  7  1  0  0  0  0
  6 18  1  0  0  0  0
  7  8  2  0  0  0  0
  7 19  1  0  0  0  0
  8  9  1  0  0  0  0
  8  3  1  0  0  0  0
  9 10  2  0  0  0  0
  9 20  1  0  0  0  0
M  END
>  <IDENTIFIER>
CNP0565429.0

>  <Energy>
82.5283

$$$$
