
 OpenBabel09082518092D

139138  0  0  0  0  0  0  0  0999 V2000
   15.5885    9.0000    0.0000 C   0  0  0  0  0  0  0  0  0  0  0  0
   14.2894    8.2500    0.0000 C   0  0  0  0  0  0  0  0  0  0  0  0
   13.3809    6.8249   -0.3324 C   0  0  0  0  0  0  0  0  0  0  0  0
   11.6913    6.7500    0.0000 C   0  0  0  0  0  0  0  0  0  0  0  0
   10.3923    6.0000    0.0000 C   0  0  0  0  0  0  0  0  0  0  0  0
    9.0933    5.2500    0.0000 C   0  0  0  0  0  0  0  0  0  0  0  0
    7.7942    4.5000    0.0000 C   0  0  0  0  0  0  0  0  0  0  0  0
    6.4952    3.7500    0.0000 C   0  0  0  0  0  0  0  0  0  0  0  0
    5.1962    3.0000    0.0000 C   0  0  0  0  0  0  0  0  0  0  0  0
    3.5542    2.9467    0.3064 C   0  0  0  0  0  0  0  0  0  0  0  0
    2.7123    1.5094    0.0253 C   0  0  0  0  0  0  0  0  0  0  0  0
    1.0716    1.2450    0.2952 C   0  0  0  0  0  0  0  0  0  0  0  0
    0.3443   -0.2030   -0.0182 C   0  0  0  0  0  0  0  0  0  0  0  0
    1.0778   -1.0643   -0.4689 O   0  0  0  0  0  0  0  0  0  0  0  0
   -1.0506   -0.5595    0.1852 O   0  0  0  0  0  0  0  0  0  0  0  0
   -1.6836   -1.8593   -0.1155 C   0  0  0  0  0  0  0  0  0  0  0  0
   -3.2973   -2.2535    0.2034 C   0  0  2  0  0  0  0  0  0  0  0  0
   -3.6772   -3.8774   -0.1150 C   0  0  0  0  0  0  0  0  0  0  0  0
   -4.9688   -4.5658    0.1221 O   0  0  0  0  0  0  0  0  0  0  0  0
   -5.1962   -6.0000    0.0000 C   0  0  0  0  0  0  0  0  0  0  0  0
   -4.1826   -6.6752   -0.1812 O   0  0  0  0  0  0  0  0  0  0  0  0
   -6.4952   -6.7500    0.0000 C   0  0  0  0  0  0  0  0  0  0  0  0
   -7.7942   -7.5000    0.0000 C   0  0  0  0  0  0  0  0  0  0  0  0
   -9.0933   -8.2500    0.0000 C   0  0  0  0  0  0  0  0  0  0  0  0
  -10.3923   -9.0000    0.0000 C   0  0  0  0  0  0  0  0  0  0  0  0
  -11.6913   -9.7500    0.0000 C   0  0  0  0  0  0  0  0  0  0  0  0
  -13.3403  -10.0655    0.0555 C   0  0  0  0  0  0  0  0  0  0  0  0
  -13.9449  -11.6521   -0.0560 C   0  0  0  0  0  0  0  0  0  0  0  0
  -15.5885  -12.0000    0.0000 C   0  0  0  0  0  0  0  0  0  0  0  0
  -16.8875  -12.7500    0.0000 C   0  0  0  0  0  2  0  0  0  0  0  0
  -18.1865  -13.5000    0.0000 C   0  0  0  0  0  0  0  0  0  0  0  0
  -19.4856  -14.2500    0.0000 C   0  0  0  0  0  0  0  0  0  0  0  0
  -20.7846  -15.0000    0.0000 C   0  0  0  0  0  2  0  0  0  0  0  0
  -22.0836  -15.7500    0.0000 C   0  0  0  0  0  0  0  0  0  0  0  0
  -23.6536  -16.0196   -0.6383 C   0  0  0  0  0  0  0  0  0  0  0  0
  -24.6817  -17.2500    0.0000 C   0  0  0  0  0  0  0  0  0  0  0  0
  -25.9808  -18.0000    0.0000 C   0  0  0  0  0  0  0  0  0  0  0  0
  -23.9317  -18.5490    0.0000 C   0  0  0  0  0  0  0  0  0  0  0  0
   -4.1556   -1.3679   -0.4950 O   0  0  0  0  0  0  0  0  0  0  0  0
   -4.9586   -0.3733    0.0489 C   0  0  0  0  0  0  0  0  0  0  0  0
   -4.9600   -0.1923    1.2580 O   0  0  0  0  0  0  0  0  0  0  0  0
   -5.8425    0.5386   -0.8469 C   0  0  0  0  0  0  0  0  0  0  0  0
   -6.6266    1.6879   -0.0974 C   0  0  0  0  0  0  0  0  0  0  0  0
   -7.5865    2.5840   -0.9869 C   0  0  0  0  0  0  0  0  0  0  0  0
   -8.1533    3.8257   -0.2038 C   0  0  0  0  0  0  0  0  0  0  0  0
   -9.2144    4.8041   -0.8924 C   0  0  0  0  0  0  0  0  0  0  0  0
   -9.3481    6.0933    0.0000 C   0  0  0  0  0  0  0  0  0  0  0  0
  -10.0981    7.3923    0.0000 C   0  0  0  0  0  0  0  0  0  0  0  0
  -10.8481    8.6913    0.0000 C   0  0  0  0  0  0  0  0  0  0  0  0
  -11.1987   10.3224   -0.2056 C   0  0  0  0  0  0  0  0  0  0  0  0
  -12.7482   10.9493    0.1327 C   0  0  0  0  0  0  0  0  0  0  0  0
  -13.0981   12.5885    0.0000 C   0  0  0  0  0  0  0  0  0  0  0  0
  -13.8481   13.8875    0.0000 C   0  0  0  0  0  0  0  0  0  0  0  0
   15.7202    8.9860   -1.1044 H   0  0  0  0  0  0  0  0  0  0  0  0
   15.2102    9.9857    0.3673 H   0  0  0  0  0  0  0  0  0  0  0  0
   16.5152    9.5350    0.0000 H   0  0  0  0  0  0  0  0  0  0  0  0
   14.0457    8.3146    1.0849 H   0  0  0  0  0  0  0  0  0  0  0  0
   13.6035    8.9702   -0.5118 H   0  0  0  0  0  0  0  0  0  0  0  0
   13.8608    5.9982    0.2328 H   0  0  0  0  0  0  0  0  0  0  0  0
   13.5052    6.6026   -1.4125 H   0  0  0  0  0  0  0  0  0  0  0  0
   11.3922    7.6659   -0.5659 H   0  0  0  0  0  0  0  0  0  0  0  0
   11.7126    7.1223    1.0544 H   0  0  0  0  0  0  0  0  0  0  0  0
   10.4692    5.8833   -1.1134 H   0  0  0  0  0  0  0  0  0  0  0  0
   11.0150    5.2237    0.5513 H   0  0  0  0  0  0  0  0  0  0  0  0
    9.5662    4.2451   -0.2666 H   0  0  0  0  0  0  0  0  0  0  0  0
    9.0777    5.3175    1.1302 H   0  0  0  0  0  0  0  0  0  0  0  0
    7.8113    4.4299   -1.1304 H   0  0  0  0  0  0  0  0  0  0  0  0
    7.3212    5.5057    0.2628 H   0  0  0  0  0  0  0  0  0  0  0  0
    6.4123    3.8775    1.1121 H   0  0  0  0  0  0  0  0  0  0  0  0
    5.8756    4.5213   -0.5614 H   0  0  0  0  0  0  0  0  0  0  0  0
    5.4863    2.0947    0.5879 H   0  0  0  0  0  0  0  0  0  0  0  0
    5.1869    2.6073   -1.0471 H   0  0  0  0  0  0  0  0  0  0  0  0
    3.0741    3.7438   -0.3047 H   0  0  0  0  0  0  0  0  0  0  0  0
    3.4078    3.2137    1.3742 H   0  0  0  0  0  0  0  0  0  0  0  0
    2.8857    1.2646   -1.0433 H   0  0  0  0  0  0  0  0  0  0  0  0
    3.2392    0.7353    0.6243 H   0  0  0  0  0  0  0  0  0  0  0  0
    0.8913    1.4657    1.3676 H   0  0  0  0  0  0  0  0  0  0  0  0
    0.5272    2.0083   -0.2994 H   0  0  0  0  0  0  0  0  0  0  0  0
   -1.5298   -2.0548   -1.1981 H   0  0  0  0  0  0  0  0  0  0  0  0
   -1.0911   -2.6251    0.4287 H   0  0  0  0  0  0  0  0  0  0  0  0
   -3.4300   -2.1156    1.2978 H   0  0  0  0  0  0  0  0  0  0  0  0
   -2.9170   -4.4419    0.4665 H   0  0  0  0  0  0  0  0  0  0  0  0
   -3.4263   -4.0397   -1.1847 H   0  0  0  0  0  0  0  0  0  0  0  0
   -6.0325   -7.2997    0.8838 H   0  0  0  0  0  0  0  0  0  0  0  0
   -6.2853   -7.1082   -1.0405 H   0  0  0  0  0  0  0  0  0  0  0  0
   -7.9969   -7.1415    1.0584 H   0  0  0  0  0  0  0  0  0  0  0  0
   -7.2949   -8.5247    0.0676 H   0  0  0  0  0  0  0  0  0  0  0  0
   -9.5793   -7.2181   -0.0860 H   0  0  0  0  0  0  0  0  0  0  0  0
   -8.9086   -8.6118   -1.0566 H   0  0  0  0  0  0  0  0  0  0  0  0
  -10.9077   -8.3998   -0.8205 H   0  0  0  0  0  0  0  0  0  0  0  0
  -10.6393   -8.5843    1.0139 H   0  0  0  0  0  0  0  0  0  0  0  0
  -11.5191  -10.3465   -0.9333 H   0  0  0  0  0  0  0  0  0  0  0  0
  -11.4363  -10.4799    0.8079 H   0  0  0  0  0  0  0  0  0  0  0  0
  -13.7172   -9.6431    1.0107 H   0  0  0  0  0  0  0  0  0  0  0  0
  -13.8074   -9.4855   -0.7679 H   0  0  0  0  0  0  0  0  0  0  0  0
  -13.4703  -12.2310    0.7639 H   0  0  0  0  0  0  0  0  0  0  0  0
  -13.5654  -12.0685   -1.0127 H   0  0  0  0  0  0  0  0  0  0  0  0
  -15.8807  -11.2984   -0.8090 H   0  0  0  0  0  0  0  0  0  0  0  0
  -15.7857  -11.4629    0.9512 H   0  0  0  0  0  0  0  0  0  0  0  0
  -17.8174  -14.0557    0.8959 H   0  0  0  0  0  0  0  0  0  0  0  0
  -17.8175  -14.0556   -0.8960 H   0  0  0  0  0  0  0  0  0  0  0  0
  -19.8548  -13.6943   -0.8959 H   0  0  0  0  0  0  0  0  0  0  0  0
  -19.8547  -13.6945    0.8960 H   0  0  0  0  0  0  0  0  0  0  0  0
  -22.3305  -15.6697    1.0789 H   0  0  0  0  0  0  0  0  0  0  0  0
  -21.6463  -16.7566   -0.1372 H   0  0  0  0  0  0  0  0  0  0  0  0
  -24.2080  -15.0628   -0.5420 H   0  0  0  0  0  0  0  0  0  0  0  0
  -23.5308  -16.2185   -1.7236 H   0  0  0  0  0  0  0  0  0  0  0  0
  -24.6766  -16.9167    1.0678 H   0  0  0  0  0  0  0  0  0  0  0  0
  -26.6222  -17.1120    0.2026 H   0  0  0  0  0  0  0  0  0  0  0  0
  -26.0394  -18.1743   -1.1045 H   0  0  0  0  0  0  0  0  0  0  0  0
  -26.9075  -18.5350    0.0000 H   0  0  0  0  0  0  0  0  0  0  0  0
  -23.7336  -18.5907   -1.0974 H   0  0  0  0  0  0  0  0  0  0  0  0
  -23.0408  -18.2270    0.5726 H   0  0  0  0  0  0  0  0  0  0  0  0
  -23.3967  -19.4756    0.0000 H   0  0  0  0  0  0  0  0  0  0  0  0
   -6.5680   -0.1066   -1.3832 H   0  0  0  0  0  0  0  0  0  0  0  0
   -5.1811    1.0222   -1.5969 H   0  0  0  0  0  0  0  0  0  0  0  0
   -5.8659    2.3447    0.3781 H   0  0  0  0  0  0  0  0  0  0  0  0
   -7.2426    1.2367    0.7107 H   0  0  0  0  0  0  0  0  0  0  0  0
   -8.4199    1.9523   -1.3572 H   0  0  0  0  0  0  0  0  0  0  0  0
   -7.0181    2.9704   -1.8600 H   0  0  0  0  0  0  0  0  0  0  0  0
   -8.6074    3.4636    0.7451 H   0  0  0  0  0  0  0  0  0  0  0  0
   -7.2558    4.4251    0.0665 H   0  0  0  0  0  0  0  0  0  0  0  0
  -10.1890    4.2801   -0.9923 H   0  0  0  0  0  0  0  0  0  0  0  0
   -8.8577    5.1082   -1.8983 H   0  0  0  0  0  0  0  0  0  0  0  0
   -8.2990    6.4725   -0.0031 H   0  0  0  0  0  0  0  0  0  0  0  0
   -9.4607    5.7077    1.0453 H   0  0  0  0  0  0  0  0  0  0  0  0
  -11.0173    6.7679    0.1895 H   0  0  0  0  0  0  0  0  0  0  0  0
   -9.8864    7.5125   -1.0900 H   0  0  0  0  0  0  0  0  0  0  0  0
  -11.1220    8.6849    1.0815 H   0  0  0  0  0  0  0  0  0  0  0  0
  -11.7656    8.4155   -0.5925 H   0  0  0  0  0  0  0  0  0  0  0  0
  -10.9917   10.5663   -1.2698 H   0  0  0  0  0  0  0  0  0  0  0  0
  -10.4684   10.8906    0.4075 H   0  0  0  0  0  0  0  0  0  0  0  0
  -13.4623   10.4080   -0.5229 H   0  0  0  0  0  0  0  0  0  0  0  0
  -12.9855   10.6624    1.1793 H   0  0  0  0  0  0  0  0  0  0  0  0
  -12.2686   12.8672    0.6998 H   0  0  0  0  0  0  0  0  0  0  0  0
  -12.7076   12.6681   -1.0409 H   0  0  0  0  0  0  0  0  0  0  0  0
  -12.9965   14.5900   -0.1900 H   0  0  0  0  0  0  0  0  0  0  0  0
  -14.1410   13.8531    1.0737 H   0  0  0  0  0  0  0  0  0  0  0  0
  -14.3831   14.8141    0.0000 H   0  0  0  0  0  0  0  0  0  0  0  0
  1  2  1  0  0  0  0
  1 54  1  0  0  0  0
  1 55  1  0  0  0  0
  1 56  1  0  0  0  0
  2  3  1  0  0  0  0
  2 57  1  0  0  0  0
  2 58  1  0  0  0  0
  3  4  1  0  0  0  0
  3 59  1  0  0  0  0
  3 60  1  0  0  0  0
  4  5  1  0  0  0  0
  4 61  1  0  0  0  0
  4 62  1  0  0  0  0
  5  6  1  0  0  0  0
  5 63  1  0  0  0  0
  5 64  1  0  0  0  0
  6  7  1  0  0  0  0
  6 65  1  0  0  0  0
  6 66  1  0  0  0  0
  7  8  1  0  0  0  0
  7 67  1  0  0  0  0
  7 68  1  0  0  0  0
  8  9  1  0  0  0  0
  8 69  1  0  0  0  0
  8 70  1  0  0  0  0
  9 10  1  0  0  0  0
  9 71  1  0  0  0  0
  9 72  1  0  0  0  0
 10 11  1  0  0  0  0
 10 73  1  0  0  0  0
 10 74  1  0  0  0  0
 11 12  1  0  0  0  0
 11 75  1  0  0  0  0
 11 76  1  0  0  0  0
 12 13  1  0  0  0  0
 12 77  1  0  0  0  0
 12 78  1  0  0  0  0
 13 14  2  0  0  0  0
 13 15  1  0  0  0  0
 15 16  1  0  0  0  0
 16 79  1  0  0  0  0
 16 80  1  0  0  0  0
 17 16  1  0  0  0  0
 17 18  1  0  0  0  0
 17 39  1  0  0  0  0
 17 81  1  1  0  0  0
 18 19  1  0  0  0  0
 18 82  1  0  0  0  0
 18 83  1  0  0  0  0
 19 20  1  0  0  0  0
 20 21  2  0  0  0  0
 20 22  1  0  0  0  0
 22 23  1  0  0  0  0
 22 84  1  0  0  0  0
 22 85  1  0  0  0  0
 23 24  1  0  0  0  0
 23 86  1  0  0  0  0
 23 87  1  0  0  0  0
 24 25  1  0  0  0  0
 24 88  1  0  0  0  0
 24 89  1  0  0  0  0
 25 26  1  0  0  0  0
 25 90  1  0  0  0  0
 25 91  1  0  0  0  0
 26 27  1  0  0  0  0
 26 92  1  0  0  0  0
 26 93  1  0  0  0  0
 27 28  1  0  0  0  0
 27 94  1  0  0  0  0
 27 95  1  0  0  0  0
 28 29  1  0  0  0  0
 28 96  1  0  0  0  0
 28 97  1  0  0  0  0
 29 30  1  0  0  0  0
 29 98  1  0  0  0  0
 29 99  1  0  0  0  0
 30 31  1  0  0  0  0
 31 32  1  0  0  0  0
 31100  1  0  0  0  0
 31101  1  0  0  0  0
 32 33  1  0  0  0  0
 32102  1  0  0  0  0
 32103  1  0  0  0  0
 33 34  1  0  0  0  0
 34 35  1  0  0  0  0
 34104  1  0  0  0  0
 34105  1  0  0  0  0
 35 36  1  0  0  0  0
 35106  1  0  0  0  0
 35107  1  0  0  0  0
 36 37  1  0  0  0  0
 36 38  1  0  0  0  0
 36108  1  0  0  0  0
 37109  1  0  0  0  0
 37110  1  0  0  0  0
 37111  1  0  0  0  0
 38112  1  0  0  0  0
 38113  1  0  0  0  0
 38114  1  0  0  0  0
 39 40  1  0  0  0  0
 40 41  2  0  0  0  0
 40 42  1  0  0  0  0
 42 43  1  0  0  0  0
 42115  1  0  0  0  0
 42116  1  0  0  0  0
 43 44  1  0  0  0  0
 43117  1  0  0  0  0
 43118  1  0  0  0  0
 44 45  1  0  0  0  0
 44119  1  0  0  0  0
 44120  1  0  0  0  0
 45 46  1  0  0  0  0
 45121  1  0  0  0  0
 45122  1  0  0  0  0
 46 47  1  0  0  0  0
 46123  1  0  0  0  0
 46124  1  0  0  0  0
 47 48  1  0  0  0  0
 47125  1  0  0  0  0
 47126  1  0  0  0  0
 48 49  1  0  0  0  0
 48127  1  0  0  0  0
 48128  1  0  0  0  0
 49 50  1  0  0  0  0
 49129  1  0  0  0  0
 49130  1  0  0  0  0
 50 51  1  0  0  0  0
 50131  1  0  0  0  0
 50132  1  0  0  0  0
 51 52  1  0  0  0  0
 51133  1  0  0  0  0
 51134  1  0  0  0  0
 52 53  1  0  0  0  0
 52135  1  0  0  0  0
 52136  1  0  0  0  0
 53137  1  0  0  0  0
 53138  1  0  0  0  0
 53139  1  0  0  0  0
M  END
>  <IDENTIFIER>
CNP0541458.2

>  <Energy>
9712.36

$$$$
