
 OpenBabel09092521593D

 62 65  0  0  0  0  0  0  0  0999 V2000
   -6.1097    1.8888    0.2903 C   0  0  0  0  0  0  0  0  0  0  0  0
   -4.8475    1.0949    0.5356 C   0  0  0  0  0  0  0  0  0  0  0  0
   -3.5318    1.7180    0.1443 C   0  0  0  0  0  0  0  0  0  0  0  0
   -4.9818   -0.1277    1.1142 C   0  0  0  0  0  0  0  0  0  0  0  0
   -3.9386   -1.1513    1.5441 C   0  0  0  0  0  0  0  0  0  0  0  0
   -2.4765   -0.8677    1.2585 C   0  0  0  0  0  0  0  0  0  0  0  0
   -1.9617   -1.1002   -0.0155 C   0  0  0  0  0  0  0  0  0  0  0  0
   -2.6617   -1.5728   -1.0622 O   0  0  0  0  0  0  0  0  0  0  0  0
   -1.7782   -1.9857   -2.0371 C   0  0  1  0  0  0  0  0  0  0  0  0
   -2.3766   -1.9648   -3.4444 C   0  0  0  0  0  0  0  0  0  0  0  0
   -0.4843   -1.1484   -1.7952 C   0  0  0  0  0  0  0  0  0  0  0  0
   -0.5011    0.1946   -2.5575 C   0  0  0  0  0  0  0  0  0  0  0  0
    0.7678   -1.9588   -2.1572 C   0  0  0  0  0  0  0  0  0  0  0  0
   -0.6463   -0.8685   -0.3279 C   0  0  0  0  0  0  0  0  0  0  0  0
    0.2590   -0.3924    0.6362 C   0  0  0  0  0  0  0  0  0  0  0  0
    1.5331   -0.1718    0.3084 O   0  0  0  0  0  0  0  0  0  0  0  0
    2.4580    0.2472    1.1728 C   0  0  0  0  0  0  0  0  0  0  0  0
    3.8077    0.4555    0.7552 C   0  0  0  0  0  0  0  0  0  0  0  0
    4.2316    0.2177   -0.7110 C   0  0  0  0  0  0  0  0  0  0  0  0
    5.7412    0.4222   -0.9855 C   0  0  0  0  0  0  0  0  0  0  0  0
    3.4818    1.2019   -1.6267 C   0  0  0  0  0  0  0  0  0  0  0  0
    3.8985   -1.0961   -1.0812 O   0  0  0  0  0  0  0  0  0  0  0  0
    4.7505    0.8709    1.7246 C   0  0  0  0  0  0  0  0  0  0  0  0
    4.3800    1.0852    3.0537 C   0  0  0  0  0  0  0  0  0  0  0  0
    5.2904    1.4783    3.9685 O   0  0  0  0  0  0  0  0  0  0  0  0
    3.0618    0.8919    3.4460 C   0  0  0  0  0  0  0  0  0  0  0  0
    2.0918    0.4713    2.5188 C   0  0  0  0  0  0  0  0  0  0  0  0
    0.7576    0.2645    2.9128 C   0  0  0  0  0  0  0  0  0  0  0  0
    0.4557    0.4654    4.0751 O   0  0  0  0  0  0  0  0  0  0  0  0
   -0.2040   -0.1775    1.9686 C   0  0  0  0  0  0  0  0  0  0  0  0
   -1.5957   -0.4198    2.2750 C   0  0  0  0  0  0  0  0  0  0  0  0
   -2.1376   -0.2319    3.5029 O   0  0  0  0  0  0  0  0  0  0  0  0
   -5.9033    2.8730   -0.1795 H   0  0  0  0  0  0  0  0  0  0  0  0
   -6.6267    2.0749    1.2562 H   0  0  0  0  0  0  0  0  0  0  0  0
   -6.7891    1.3224   -0.3810 H   0  0  0  0  0  0  0  0  0  0  0  0
   -3.6696    2.7359   -0.2756 H   0  0  0  0  0  0  0  0  0  0  0  0
   -3.0543    1.1195   -0.6497 H   0  0  0  0  0  0  0  0  0  0  0  0
   -2.8678    1.8124    1.0270 H   0  0  0  0  0  0  0  0  0  0  0  0
   -5.9960   -0.4404    1.3534 H   0  0  0  0  0  0  0  0  0  0  0  0
   -4.1889   -2.1406    1.1045 H   0  0  0  0  0  0  0  0  0  0  0  0
   -4.0900   -1.2713    2.6363 H   0  0  0  0  0  0  0  0  0  0  0  0
   -1.5521   -3.0515   -1.7936 H   0  0  0  0  0  0  0  0  0  0  0  0
   -2.6938   -0.9414   -3.7303 H   0  0  0  0  0  0  0  0  0  0  0  0
   -3.2657   -2.6290   -3.4786 H   0  0  0  0  0  0  0  0  0  0  0  0
   -1.6293   -2.3385   -4.1764 H   0  0  0  0  0  0  0  0  0  0  0  0
   -0.4444    0.0246   -3.6536 H   0  0  0  0  0  0  0  0  0  0  0  0
    0.3553    0.8283   -2.2689 H   0  0  0  0  0  0  0  0  0  0  0  0
   -1.4288    0.7646   -2.3414 H   0  0  0  0  0  0  0  0  0  0  0  0
    0.7620   -2.2158   -3.2376 H   0  0  0  0  0  0  0  0  0  0  0  0
    0.8220   -2.8968   -1.5647 H   0  0  0  0  0  0  0  0  0  0  0  0
    1.6728   -1.3614   -1.9605 H   0  0  0  0  0  0  0  0  0  0  0  0
    6.0507    1.4670   -0.7651 H   0  0  0  0  0  0  0  0  0  0  0  0
    5.9676    0.2200   -2.0549 H   0  0  0  0  0  0  0  0  0  0  0  0
    6.3509   -0.2788   -0.3771 H   0  0  0  0  0  0  0  0  0  0  0  0
    3.7432    2.2507   -1.3684 H   0  0  0  0  0  0  0  0  0  0  0  0
    2.3914    1.0986   -1.5330 H   0  0  0  0  0  0  0  0  0  0  0  0
    3.7405    1.0217   -2.6924 H   0  0  0  0  0  0  0  0  0  0  0  0
    4.3723   -1.7143   -0.4641 H   0  0  0  0  0  0  0  0  0  0  0  0
    5.7865    1.0365    1.4724 H   0  0  0  0  0  0  0  0  0  0  0  0
    6.2212    1.6189    3.7441 H   0  0  0  0  0  0  0  0  0  0  0  0
    2.8026    1.0650    4.4841 H   0  0  0  0  0  0  0  0  0  0  0  0
   -1.7080    0.0763    4.3048 H   0  0  0  0  0  0  0  0  0  0  0  0
  1  2  1  0  0  0  0
  1 33  1  0  0  0  0
  1 34  1  0  0  0  0
  1 35  1  0  0  0  0
  2  3  1  0  0  0  0
  2  4  2  0  0  0  0
  3 36  1  0  0  0  0
  3 37  1  0  0  0  0
  3 38  1  0  0  0  0
  4  5  1  0  0  0  0
  4 39  1  0  0  0  0
  5  6  1  0  0  0  0
  5 40  1  0  0  0  0
  5 41  1  0  0  0  0
  6  7  2  0  0  0  0
  7  8  1  0  0  0  0
  8  9  1  0  0  0  0
  9 10  1  0  0  0  0
  9 11  1  0  0  0  0
  9 42  1  1  0  0  0
 10 43  1  0  0  0  0
 10 44  1  0  0  0  0
 10 45  1  0  0  0  0
 11 12  1  0  0  0  0
 11 13  1  0  0  0  0
 11 14  1  0  0  0  0
 12 46  1  0  0  0  0
 12 47  1  0  0  0  0
 12 48  1  0  0  0  0
 13 49  1  0  0  0  0
 13 50  1  0  0  0  0
 13 51  1  0  0  0  0
 14 15  2  0  0  0  0
 14  7  1  0  0  0  0
 15 16  1  0  0  0  0
 16 17  1  0  0  0  0
 17 18  2  0  0  0  0
 18 19  1  0  0  0  0
 18 23  1  0  0  0  0
 19 20  1  0  0  0  0
 19 21  1  0  0  0  0
 19 22  1  0  0  0  0
 20 52  1  0  0  0  0
 20 53  1  0  0  0  0
 20 54  1  0  0  0  0
 21 55  1  0  0  0  0
 21 56  1  0  0  0  0
 21 57  1  0  0  0  0
 22 58  1  0  0  0  0
 23 24  2  0  0  0  0
 23 59  1  0  0  0  0
 24 25  1  0  0  0  0
 24 26  1  0  0  0  0
 25 60  1  0  0  0  0
 26 27  2  0  0  0  0
 26 61  1  0  0  0  0
 27 28  1  0  0  0  0
 27 17  1  0  0  0  0
 28 29  2  0  0  0  0
 28 30  1  0  0  0  0
 30 31  2  0  0  0  0
 30 15  1  0  0  0  0
 31 32  1  0  0  0  0
 31  6  1  0  0  0  0
 32 62  1  0  0  0  0
M  END
>  <IDENTIFIER>
CNP0230445.2

>  <Energy>
537.163

$$$$
