
 OpenBabel09062515053D

 55 56  0  0  0  0  0  0  0  0999 V2000
    0.2573   -0.8823   -3.1151 C   0  0  0  0  0  0  0  0  0  0  0  0
   -0.0063   -0.2453   -1.9638 C   0  0  0  0  0  0  0  0  0  0  0  0
   -0.5107    1.1914   -1.9815 C   0  0  0  0  0  0  0  0  0  0  0  0
   -1.2398    1.5752   -0.6633 C   0  0  0  0  0  0  0  0  0  0  0  0
   -2.0904    0.3478   -0.2593 C   0  0  2  0  0  0  0  0  0  0  0  0
   -3.4588    0.5793    0.4903 C   0  0  0  0  0  0  0  0  0  0  0  0
   -4.3652    1.5287   -0.3438 C   0  0  0  0  0  0  0  0  0  0  0  0
   -3.3483    1.2383    1.8864 C   0  0  0  0  0  0  0  0  0  0  0  0
   -4.1871   -0.8042    0.5343 C   0  0  0  0  0  0  0  0  0  0  0  0
   -3.3206   -1.9679    1.0492 C   0  0  0  0  0  0  0  0  0  0  0  0
   -2.0020   -2.1028    0.2335 C   0  0  0  0  0  0  0  0  0  0  0  0
   -1.1388   -0.8081    0.2956 C   0  0  2  0  0  0  0  0  0  0  0  0
   -0.6647   -0.6453    1.7769 C   0  0  0  0  0  0  0  0  0  0  0  0
    0.1836   -0.9365   -0.6250 C   0  0  2  0  0  0  0  0  0  0  0  0
    1.5021   -0.3369   -0.0145 C   0  0  0  0  0  0  0  0  0  0  0  0
    2.7541   -0.5366   -0.8987 C   0  0  0  0  0  0  0  0  0  0  0  0
    4.0811   -0.0553   -0.3090 C   0  0  0  0  0  0  0  0  0  0  0  0
    5.2917   -0.2805   -1.1826 C   0  0  0  0  0  0  0  0  0  0  0  0
    4.1669    0.5360    0.9184 C   0  0  0  0  0  0  0  0  0  0  0  0
    5.3965    1.0575    1.6368 C   0  0  0  0  0  0  0  0  0  0  0  0
    6.5928    0.9069    0.9230 O   0  0  0  0  0  0  0  0  0  0  0  0
    0.1186   -0.3832   -4.0692 H   0  0  0  0  0  0  0  0  0  0  0  0
    0.6159   -1.9068   -3.1177 H   0  0  0  0  0  0  0  0  0  0  0  0
   -1.3014    1.2200   -2.7660 H   0  0  0  0  0  0  0  0  0  0  0  0
    0.2680    1.9224   -2.2844 H   0  0  0  0  0  0  0  0  0  0  0  0
   -1.8380    2.4752   -0.9007 H   0  0  0  0  0  0  0  0  0  0  0  0
   -0.5606    1.8494    0.1671 H   0  0  0  0  0  0  0  0  0  0  0  0
   -2.4794   -0.0292   -1.2371 H   0  0  0  0  0  0  0  0  0  0  0  0
   -3.9537    2.5561   -0.4029 H   0  0  0  0  0  0  0  0  0  0  0  0
   -5.3731    1.6132    0.1184 H   0  0  0  0  0  0  0  0  0  0  0  0
   -4.5044    1.1493   -1.3791 H   0  0  0  0  0  0  0  0  0  0  0  0
   -2.8035    2.2039    1.8134 H   0  0  0  0  0  0  0  0  0  0  0  0
   -2.8846    0.6361    2.6659 H   0  0  0  0  0  0  0  0  0  0  0  0
   -4.3643    1.4490    2.2850 H   0  0  0  0  0  0  0  0  0  0  0  0
   -4.4691   -1.0869   -0.5057 H   0  0  0  0  0  0  0  0  0  0  0  0
   -5.1315   -0.7355    1.1175 H   0  0  0  0  0  0  0  0  0  0  0  0
   -3.8985   -2.9121    0.9507 H   0  0  0  0  0  0  0  0  0  0  0  0
   -3.1317   -1.8414    2.1297 H   0  0  0  0  0  0  0  0  0  0  0  0
   -2.2635   -2.3237   -0.8253 H   0  0  0  0  0  0  0  0  0  0  0  0
   -1.4216   -2.9709    0.6157 H   0  0  0  0  0  0  0  0  0  0  0  0
    0.0003   -1.4913    2.0509 H   0  0  0  0  0  0  0  0  0  0  0  0
   -1.4245   -0.7157    2.5503 H   0  0  0  0  0  0  0  0  0  0  0  0
   -0.1336    0.3148    1.9370 H   0  0  0  0  0  0  0  0  0  0  0  0
    0.4273   -2.0161   -0.7505 H   0  0  0  0  0  0  0  0  0  0  0  0
    1.7325   -0.8647    0.9313 H   0  0  0  0  0  0  0  0  0  0  0  0
    1.3839    0.7476    0.1818 H   0  0  0  0  0  0  0  0  0  0  0  0
    2.6102   -0.0031   -1.8615 H   0  0  0  0  0  0  0  0  0  0  0  0
    2.8548   -1.6237   -1.1092 H   0  0  0  0  0  0  0  0  0  0  0  0
    5.0109   -0.7664   -2.1414 H   0  0  0  0  0  0  0  0  0  0  0  0
    6.0129   -0.9521   -0.6731 H   0  0  0  0  0  0  0  0  0  0  0  0
    5.7708    0.6898   -1.4301 H   0  0  0  0  0  0  0  0  0  0  0  0
    3.2684    0.6806    1.5033 H   0  0  0  0  0  0  0  0  0  0  0  0
    5.4710    0.5542    2.6293 H   0  0  0  0  0  0  0  0  0  0  0  0
    5.2537    2.1390    1.8429 H   0  0  0  0  0  0  0  0  0  0  0  0
    7.0321    0.0826    1.2606 H   0  0  0  0  0  0  0  0  0  0  0  0
  1  2  2  0  0  0  0
  1 22  1  0  0  0  0
  1 23  1  0  0  0  0
  2  3  1  0  0  0  0
  3  4  1  0  0  0  0
  3 24  1  0  0  0  0
  3 25  1  0  0  0  0
  4 26  1  0  0  0  0
  4 27  1  0  0  0  0
  5  4  1  0  0  0  0
  5  6  1  0  0  0  0
  5 28  1  6  0  0  0
  6  7  1  0  0  0  0
  6  8  1  0  0  0  0
  6  9  1  0  0  0  0
  7 29  1  0  0  0  0
  7 30  1  0  0  0  0
  7 31  1  0  0  0  0
  8 32  1  0  0  0  0
  8 33  1  0  0  0  0
  8 34  1  0  0  0  0
  9 10  1  0  0  0  0
  9 35  1  0  0  0  0
  9 36  1  0  0  0  0
 10 11  1  0  0  0  0
 10 37  1  0  0  0  0
 10 38  1  0  0  0  0
 11 12  1  0  0  0  0
 11 39  1  0  0  0  0
 11 40  1  0  0  0  0
 12 13  1  1  0  0  0
 12 14  1  0  0  0  0
 12  5  1  0  0  0  0
 13 41  1  0  0  0  0
 13 42  1  0  0  0  0
 13 43  1  0  0  0  0
 14 15  1  0  0  0  0
 14  2  1  0  0  0  0
 14 44  1  6  0  0  0
 15 16  1  0  0  0  0
 15 45  1  0  0  0  0
 15 46  1  0  0  0  0
 16 17  1  0  0  0  0
 16 47  1  0  0  0  0
 16 48  1  0  0  0  0
 17 18  1  0  0  0  0
 17 19  2  0  0  0  0
 18 49  1  0  0  0  0
 18 50  1  0  0  0  0
 18 51  1  0  0  0  0
 19 20  1  0  0  0  0
 19 52  1  0  0  0  0
 20 21  1  0  0  0  0
 20 53  1  0  0  0  0
 20 54  1  0  0  0  0
 21 55  1  0  0  0  0
M  END
>  <IDENTIFIER>
CNP0289698.4

>  <Energy>
522.083

$$$$
