
 OpenBabel09052523392D

155154  0  0  0  0  0  0  0  0999 V2000
   -0.3477   -1.4007    0.7168 C   0  0  0  0  0  0  0  0  0  0  0  0
   -0.1365   -0.0278    0.0799 C   0  0  0  0  0  0  0  0  0  0  0  0
    1.1757    0.2770   -0.6359 C   0  0  0  0  0  0  0  0  0  0  0  0
    2.2962   -0.4662   -0.7937 C   0  0  0  0  0  0  0  0  0  0  0  0
    2.5271   -1.8448   -0.2405 C   0  0  0  0  0  0  0  0  0  0  0  0
    3.8421   -2.4609   -0.6463 C   0  0  0  0  0  0  0  0  0  0  0  0
    5.0778   -2.0444   -0.3060 C   0  0  0  0  0  0  0  0  0  0  0  0
    5.4316   -0.8179    0.5166 C   0  0  0  0  0  0  0  0  0  0  0  0
    6.5110   -0.0136   -0.1885 C   0  0  0  0  0  0  0  0  0  0  0  0
    7.8184   -0.3747   -0.2374 C   0  0  0  0  0  0  0  0  0  0  0  0
    8.3663   -1.5739    0.5048 C   0  0  0  0  0  0  0  0  0  0  0  0
    9.7643   -1.9994    0.1315 C   0  0  0  0  0  0  0  0  0  0  0  0
   10.9244   -1.3457    0.3156 C   0  0  0  0  0  0  0  0  0  0  0  0
   11.1464    0.0216    0.8994 C   0  0  0  0  0  0  0  0  0  0  0  0
   12.0354    0.7640   -0.0990 C   0  0  0  0  0  2  0  0  0  0  0  0
   12.9647    1.8367    0.4798 C   0  0  0  0  0  0  0  0  0  0  0  0
   12.2678    3.1817    0.6635 C   0  0  0  0  0  0  0  0  0  0  0  0
   13.2701    4.2687    0.9675 C   0  0  0  0  0  0  0  0  0  0  0  0
   13.8853    4.2834    2.0231 O   0  0  0  0  0  0  0  0  0  0  0  0
   13.5000    5.1962    0.0000 O   0  0  0  0  0  0  0  0  0  0  0  0
   14.2500    6.4952    0.0000 C   0  0  2  0  0  0  0  0  0  0  0  0
   15.0000    7.7942    0.0000 C   0  0  0  0  0  0  0  0  0  0  0  0
   14.5661    9.1117    0.4368 O   0  0  0  0  0  0  0  0  0  0  0  0
   15.0639   10.4951    0.4324 C   0  0  0  0  0  0  0  0  0  0  0  0
   14.2326   11.3119    0.7927 O   0  0  0  0  0  0  0  0  0  0  0  0
   16.5108   11.2244    0.0637 C   0  0  0  0  0  0  0  0  0  0  0  0
   16.6789   12.9279    0.1541 C   0  0  0  0  0  0  0  0  0  0  0  0
   18.0682   13.8933   -0.0875 C   0  0  0  0  0  0  0  0  0  0  0  0
   18.0000   15.5885    0.0000 C   0  0  0  0  0  0  0  0  0  0  0  0
   18.7500   16.8875    0.0000 C   0  0  0  0  0  2  0  0  0  0  0  0
   19.5000   18.1865    0.0000 C   0  0  0  0  0  0  0  0  0  0  0  0
   20.1233   19.5990    0.0000 C   0  0  0  0  0  0  0  0  0  0  0  0
   19.5000   20.7846    0.0000 C   0  0  0  0  0  0  0  0  0  0  0  0
   18.0000   20.7846    0.0000 C   0  0  0  0  0  2  0  0  0  0  0  0
   16.5000   20.7846    0.0000 C   0  0  0  0  0  0  0  0  0  0  0  0
   15.7233   21.8978    0.0000 C   0  0  0  0  0  0  0  0  0  0  0  0
   15.8866   23.4479    0.0000 C   0  0  0  0  0  0  0  0  0  0  0  0
   16.9445   24.6382    0.0000 C   0  0  0  0  0  0  0  0  0  0  0  0
   16.5000   25.9808    0.0000 C   0  0  0  0  0  0  0  0  0  0  0  0
   15.0000   25.9808    0.0000 C   0  0  0  0  0  2  0  0  0  0  0  0
   13.5000   25.9808    0.0000 C   0  0  0  0  0  2  0  0  0  0  0  0
   12.0000   25.9808    0.0000 C   0  0  0  0  0  2  0  0  0  0  0  0
   10.5000   25.9808    0.0000 C   0  0  0  0  0  2  0  0  0  0  0  0
    9.0000   25.9808    0.0000 C   0  0  0  0  0  0  0  0  0  0  0  0
   15.5652    5.6266   -0.7068 C   0  0  0  0  0  0  0  0  0  0  0  0
   16.9097    5.6442   -0.1852 O   0  0  0  0  0  0  0  0  0  0  0  0
   17.9710    4.7439   -0.5053 C   0  0  0  0  0  0  0  0  0  0  0  0
   17.7395    3.7377   -1.1568 O   0  0  0  0  0  0  0  0  0  0  0  0
   19.4462    4.9952    0.0000 C   0  0  0  0  0  0  0  0  0  0  0  0
   20.7452    4.2452    0.0000 C   0  0  0  0  0  0  0  0  0  0  0  0
   22.0442    3.4952    0.0000 C   0  0  0  0  0  0  0  0  0  0  0  0
   23.3433    2.7452    0.0000 C   0  0  0  0  0  0  0  0  0  0  0  0
   24.6423    1.9952    0.0000 C   0  0  0  0  0  2  0  0  0  0  0  0
   25.9413    1.2452    0.0000 C   0  0  0  0  0  0  0  0  0  0  0  0
   27.5068    0.7623    0.3761 C   0  0  0  0  0  0  0  0  0  0  0  0
   28.2798   -0.5327   -0.4115 C   0  0  0  0  0  0  0  0  0  0  0  0
   29.8385   -1.0048    0.0000 C   0  0  0  0  0  0  0  0  0  0  0  0
   31.1375   -1.7548    0.0000 C   0  0  0  0  0  0  0  0  0  0  0  0
   32.4365   -2.5048    0.0000 C   0  0  0  0  0  0  0  0  0  0  0  0
   33.7356   -3.2548    0.0000 C   0  0  0  0  0  0  0  0  0  0  0  0
   35.0346   -4.0048    0.0000 C   0  0  0  0  0  0  0  0  0  0  0  0
   36.3336   -4.7548    0.0000 C   0  0  0  0  0  0  0  0  0  0  0  0
   37.8948   -5.2154   -0.4228 C   0  0  0  0  0  0  0  0  0  0  0  0
   38.5980   -6.6463    0.1853 C   0  0  0  0  0  0  0  0  0  0  0  0
   40.2308   -7.0048    0.0000 C   0  0  0  0  0  0  0  0  0  0  0  0
   41.5298   -7.7548    0.0000 C   0  0  0  0  0  0  0  0  0  0  0  0
   42.8288   -8.5048    0.0000 C   0  0  0  0  0  0  0  0  0  0  0  0
   -1.3567   -1.4314    1.1798 H   0  0  0  0  0  0  0  0  0  0  0  0
    0.3861   -1.5898    1.5240 H   0  0  0  0  0  0  0  0  0  0  0  0
   -0.3233   -2.2008   -0.0499 H   0  0  0  0  0  0  0  0  0  0  0  0
   -0.9515    0.1078   -0.6629 H   0  0  0  0  0  0  0  0  0  0  0  0
   -0.2699    0.7385    0.8734 H   0  0  0  0  0  0  0  0  0  0  0  0
    1.1994    1.2601   -1.0980 H   0  0  0  0  0  0  0  0  0  0  0  0
    3.1011   -0.0201   -1.3719 H   0  0  0  0  0  0  0  0  0  0  0  0
    2.4818   -1.8277    0.8667 H   0  0  0  0  0  0  0  0  0  0  0  0
    1.7433   -2.5135   -0.6439 H   0  0  0  0  0  0  0  0  0  0  0  0
    3.7786   -3.3709   -1.2382 H   0  0  0  0  0  0  0  0  0  0  0  0
    5.8797   -2.6764   -0.6603 H   0  0  0  0  0  0  0  0  0  0  0  0
    5.7983   -1.1076    1.5232 H   0  0  0  0  0  0  0  0  0  0  0  0
    4.5315   -0.1904    0.6667 H   0  0  0  0  0  0  0  0  0  0  0  0
    6.2082    0.8984   -0.6923 H   0  0  0  0  0  0  0  0  0  0  0  0
    8.5024    0.2408   -0.8147 H   0  0  0  0  0  0  0  0  0  0  0  0
    8.2960   -1.3995    1.5990 H   0  0  0  0  0  0  0  0  0  0  0  0
    7.7483   -2.4544    0.2701 H   0  0  0  0  0  0  0  0  0  0  0  0
    9.8463   -2.9928   -0.3044 H   0  0  0  0  0  0  0  0  0  0  0  0
   11.8241   -1.8804    0.0183 H   0  0  0  0  0  0  0  0  0  0  0  0
   10.2087    0.5735    1.1187 H   0  0  0  0  0  0  0  0  0  0  0  0
   11.7118   -0.1229    1.8441 H   0  0  0  0  0  0  0  0  0  0  0  0
   13.4492    1.4921    1.4186 H   0  0  0  0  0  0  0  0  0  0  0  0
   13.7636    1.9770   -0.2806 H   0  0  0  0  0  0  0  0  0  0  0  0
   11.7760    3.4354   -0.3018 H   0  0  0  0  0  0  0  0  0  0  0  0
   11.4844    3.1335    1.4498 H   0  0  0  0  0  0  0  0  0  0  0  0
   14.3134    6.5231    1.1094 H   0  0  0  0  0  0  0  0  0  0  0  0
   15.9965    7.6893    0.4951 H   0  0  0  0  0  0  0  0  0  0  0  0
   15.2069    7.9966   -1.0765 H   0  0  0  0  0  0  0  0  0  0  0  0
   16.7759   10.9309   -0.9728 H   0  0  0  0  0  0  0  0  0  0  0  0
   17.2690   10.7854    0.7444 H   0  0  0  0  0  0  0  0  0  0  0  0
   16.3300   13.1976    1.1729 H   0  0  0  0  0  0  0  0  0  0  0  0
   15.9241   13.3240   -0.5570 H   0  0  0  0  0  0  0  0  0  0  0  0
   18.4763   13.6414   -1.0886 H   0  0  0  0  0  0  0  0  0  0  0  0
   18.8123   13.5611    0.6664 H   0  0  0  0  0  0  0  0  0  0  0  0
   17.4760   15.6999    0.9719 H   0  0  0  0  0  0  0  0  0  0  0  0
   17.2238   15.8063   -0.7627 H   0  0  0  0  0  0  0  0  0  0  0  0
   20.0614   17.8812   -0.9084 H   0  0  0  0  0  0  0  0  0  0  0  0
   20.0613   17.8812    0.9085 H   0  0  0  0  0  0  0  0  0  0  0  0
   21.2119   19.6422    0.0000 H   0  0  0  0  0  0  0  0  0  0  0  0
   20.0562   21.7166    0.0000 H   0  0  0  0  0  0  0  0  0  0  0  0
   16.0159   19.8122   -0.0000 H   0  0  0  0  0  0  0  0  0  0  0  0
   14.6653   21.6395    0.0000 H   0  0  0  0  0  0  0  0  0  0  0  0
   15.2896   23.6762    0.9101 H   0  0  0  0  0  0  0  0  0  0  0  0
   15.2896   23.6762   -0.9101 H   0  0  0  0  0  0  0  0  0  0  0  0
   18.0062   24.4162    0.0000 H   0  0  0  0  0  0  0  0  0  0  0  0
   17.1433   26.8539   -0.0000 H   0  0  0  0  0  0  0  0  0  0  0  0
    8.9198   26.8858    0.6366 H   0  0  0  0  0  0  0  0  0  0  0  0
    8.9198   25.0742    0.6344 H   0  0  0  0  0  0  0  0  0  0  0  0
    7.9300   25.9808    0.0000 H   0  0  0  0  0  0  0  0  0  0  0  0
   15.6144    5.9032   -1.7837 H   0  0  0  0  0  0  0  0  0  0  0  0
   15.3604    4.5320   -0.8085 H   0  0  0  0  0  0  0  0  0  0  0  0
   19.6926    5.9672   -0.4856 H   0  0  0  0  0  0  0  0  0  0  0  0
   19.2263    5.2509    1.0734 H   0  0  0  0  0  0  0  0  0  0  0  0
   21.2119    4.9811    0.7102 H   0  0  0  0  0  0  0  0  0  0  0  0
   20.1066    3.4142    0.4342 H   0  0  0  0  0  0  0  0  0  0  0  0
   21.9099    3.0709    1.0495 H   0  0  0  0  0  0  0  0  0  0  0  0
   21.6301    2.7698   -0.7543 H   0  0  0  0  0  0  0  0  0  0  0  0
   23.8341    3.4619    0.7117 H   0  0  0  0  0  0  0  0  0  0  0  0
   23.6212    3.1282   -1.0138 H   0  0  0  0  0  0  0  0  0  0  0  0
   26.1141    1.3502   -1.0914 H   0  0  0  0  0  0  0  0  0  0  0  0
   25.4780    0.2459    0.1375 H   0  0  0  0  0  0  0  0  0  0  0  0
   27.5135    0.5262    1.4609 H   0  0  0  0  0  0  0  0  0  0  0  0
   28.1562    1.6512    0.2308 H   0  0  0  0  0  0  0  0  0  0  0  0
   27.6305   -1.4241   -0.2816 H   0  0  0  0  0  0  0  0  0  0  0  0
   28.2908   -0.2883   -1.4943 H   0  0  0  0  0  0  0  0  0  0  0  0
   30.2584    0.0315   -0.0470 H   0  0  0  0  0  0  0  0  0  0  0  0
   29.6208   -1.1102    1.0925 H   0  0  0  0  0  0  0  0  0  0  0  0
   30.4567   -2.6659   -0.0059 H   0  0  0  0  0  0  0  0  0  0  0  0
   31.3344   -1.3922   -1.0462 H   0  0  0  0  0  0  0  0  0  0  0  0
   32.1632   -2.9713    0.9918 H   0  0  0  0  0  0  0  0  0  0  0  0
   32.1476   -3.2290   -0.8312 H   0  0  0  0  0  0  0  0  0  0  0  0
   34.1206   -2.6507    0.8759 H   0  0  0  0  0  0  0  0  0  0  0  0
   34.0807   -2.6069   -0.8623 H   0  0  0  0  0  0  0  0  0  0  0  0
   34.5822   -4.6436    0.8176 H   0  0  0  0  0  0  0  0  0  0  0  0
   34.7831   -4.4659   -0.9970 H   0  0  0  0  0  0  0  0  0  0  0  0
   36.6133   -4.5746    1.0677 H   0  0  0  0  0  0  0  0  0  0  0  0
   35.9758   -5.8223   -0.0678 H   0  0  0  0  0  0  0  0  0  0  0  0
   37.9303   -5.3110   -1.5284 H   0  0  0  0  0  0  0  0  0  0  0  0
   38.5571   -4.3654   -0.1519 H   0  0  0  0  0  0  0  0  0  0  0  0
   38.0215   -7.4791   -0.2690 H   0  0  0  0  0  0  0  0  0  0  0  0
   38.4022   -6.6783    1.2782 H   0  0  0  0  0  0  0  0  0  0  0  0
   40.5833   -6.1359    0.6062 H   0  0  0  0  0  0  0  0  0  0  0  0
   40.2852   -6.6106   -1.0469 H   0  0  0  0  0  0  0  0  0  0  0  0
   41.0465   -8.4722   -0.7254 H   0  0  0  0  0  0  0  0  0  0  0  0
   41.3391   -8.0677    1.0575 H   0  0  0  0  0  0  0  0  0  0  0  0
   42.4799   -9.5674    0.1324 H   0  0  0  0  0  0  0  0  0  0  0  0
   43.1212   -8.2537   -1.0465 H   0  0  0  0  0  0  0  0  0  0  0  0
   43.7554   -9.0398    0.0000 H   0  0  0  0  0  0  0  0  0  0  0  0
  1  2  1  0  0  0  0
  1 68  1  0  0  0  0
  1 69  1  0  0  0  0
  1 70  1  0  0  0  0
  2  3  1  0  0  0  0
  2 71  1  0  0  0  0
  2 72  1  0  0  0  0
  3  4  2  0  0  0  0
  3 73  1  0  0  0  0
  4  5  1  0  0  0  0
  4 74  1  0  0  0  0
  5  6  1  0  0  0  0
  5 75  1  0  0  0  0
  5 76  1  0  0  0  0
  6  7  2  0  0  0  0
  6 77  1  0  0  0  0
  7  8  1  0  0  0  0
  7 78  1  0  0  0  0
  8  9  1  0  0  0  0
  8 79  1  0  0  0  0
  8 80  1  0  0  0  0
  9 10  2  0  0  0  0
  9 81  1  0  0  0  0
 10 11  1  0  0  0  0
 10 82  1  0  0  0  0
 11 12  1  0  0  0  0
 11 83  1  0  0  0  0
 11 84  1  0  0  0  0
 12 13  2  0  0  0  0
 12 85  1  0  0  0  0
 13 14  1  0  0  0  0
 13 86  1  0  0  0  0
 14 15  1  0  0  0  0
 14 87  1  0  0  0  0
 14 88  1  0  0  0  0
 15 16  1  0  0  0  0
 16 17  1  0  0  0  0
 16 89  1  0  0  0  0
 16 90  1  0  0  0  0
 17 18  1  0  0  0  0
 17 91  1  0  0  0  0
 17 92  1  0  0  0  0
 18 19  2  0  0  0  0
 18 20  1  0  0  0  0
 20 21  1  0  0  0  0
 21 22  1  0  0  0  0
 21 45  1  0  0  0  0
 21 93  1  1  0  0  0
 22 23  1  0  0  0  0
 22 94  1  0  0  0  0
 22 95  1  0  0  0  0
 23 24  1  0  0  0  0
 24 25  2  0  0  0  0
 24 26  1  0  0  0  0
 26 27  1  0  0  0  0
 26 96  1  0  0  0  0
 26 97  1  0  0  0  0
 27 28  1  0  0  0  0
 27 98  1  0  0  0  0
 27 99  1  0  0  0  0
 28 29  1  0  0  0  0
 28100  1  0  0  0  0
 28101  1  0  0  0  0
 29 30  1  0  0  0  0
 29102  1  0  0  0  0
 29103  1  0  0  0  0
 30 31  1  0  0  0  0
 31 32  1  0  0  0  0
 31104  1  0  0  0  0
 31105  1  0  0  0  0
 32 33  2  0  0  0  0
 32106  1  0  0  0  0
 33 34  1  0  0  0  0
 33107  1  0  0  0  0
 34 35  1  0  0  0  0
 35 36  2  0  0  0  0
 35108  1  0  0  0  0
 36 37  1  0  0  0  0
 36109  1  0  0  0  0
 37 38  1  0  0  0  0
 37110  1  0  0  0  0
 37111  1  0  0  0  0
 38 39  2  0  0  0  0
 38112  1  0  0  0  0
 39 40  1  0  0  0  0
 39113  1  0  0  0  0
 40 41  1  0  0  0  0
 41 42  1  0  0  0  0
 42 43  1  0  0  0  0
 43 44  1  0  0  0  0
 44114  1  0  0  0  0
 44115  1  0  0  0  0
 44116  1  0  0  0  0
 45 46  1  0  0  0  0
 45117  1  0  0  0  0
 45118  1  0  0  0  0
 46 47  1  0  0  0  0
 47 48  2  0  0  0  0
 47 49  1  0  0  0  0
 49 50  1  0  0  0  0
 49119  1  0  0  0  0
 49120  1  0  0  0  0
 50 51  1  0  0  0  0
 50121  1  0  0  0  0
 50122  1  0  0  0  0
 51 52  1  0  0  0  0
 51123  1  0  0  0  0
 51124  1  0  0  0  0
 52 53  1  0  0  0  0
 52125  1  0  0  0  0
 52126  1  0  0  0  0
 53 54  1  0  0  0  0
 54 55  1  0  0  0  0
 54127  1  0  0  0  0
 54128  1  0  0  0  0
 55 56  1  0  0  0  0
 55129  1  0  0  0  0
 55130  1  0  0  0  0
 56 57  1  0  0  0  0
 56131  1  0  0  0  0
 56132  1  0  0  0  0
 57 58  1  0  0  0  0
 57133  1  0  0  0  0
 57134  1  0  0  0  0
 58 59  1  0  0  0  0
 58135  1  0  0  0  0
 58136  1  0  0  0  0
 59 60  1  0  0  0  0
 59137  1  0  0  0  0
 59138  1  0  0  0  0
 60 61  1  0  0  0  0
 60139  1  0  0  0  0
 60140  1  0  0  0  0
 61 62  1  0  0  0  0
 61141  1  0  0  0  0
 61142  1  0  0  0  0
 62 63  1  0  0  0  0
 62143  1  0  0  0  0
 62144  1  0  0  0  0
 63 64  1  0  0  0  0
 63145  1  0  0  0  0
 63146  1  0  0  0  0
 64 65  1  0  0  0  0
 64147  1  0  0  0  0
 64148  1  0  0  0  0
 65 66  1  0  0  0  0
 65149  1  0  0  0  0
 65150  1  0  0  0  0
 66 67  1  0  0  0  0
 66151  1  0  0  0  0
 66152  1  0  0  0  0
 67153  1  0  0  0  0
 67154  1  0  0  0  0
 67155  1  0  0  0  0
M  END
>  <IDENTIFIER>
CNP0600263.1

>  <Energy>
9514.32

$$$$
