
 OpenBabel09132501213D

 84 87  0  0  0  0  0  0  0  0999 V2000
    1.2121    4.3395   -1.6132 C   0  0  0  0  0  0  0  0  0  0  0  0
    1.3336    2.8427   -1.9325 C   0  0  0  0  0  0  0  0  0  0  0  0
    1.5036    2.6635   -3.4525 C   0  0  0  0  0  0  0  0  0  0  0  0
    0.1084    2.0690   -1.3649 C   0  0  1  0  0  0  0  0  0  0  0  0
   -1.0698    2.5035   -1.9776 O   0  0  0  0  0  0  0  0  0  0  0  0
   -2.1595    2.8674   -1.2552 C   0  0  0  0  0  0  0  0  0  0  0  0
   -2.0308    3.4776    0.0058 C   0  0  0  0  0  0  0  0  0  0  0  0
   -3.1196    3.5635    0.8429 C   0  0  0  0  0  0  0  0  0  0  0  0
   -4.3641    3.0868    0.4304 C   0  0  0  0  0  0  0  0  0  0  0  0
   -5.3430    2.8683    1.5031 C   0  0  0  0  0  0  0  0  0  0  0  0
   -5.0646    1.8512    2.3653 C   0  0  0  0  0  0  0  0  0  0  0  0
   -4.0084    0.9032    2.0849 N   0  0  0  0  0  0  0  0  0  0  0  0
   -4.0461    0.1284    0.9518 C   0  0  0  0  0  0  0  0  0  0  0  0
   -5.0557    0.1572    0.2648 O   0  0  0  0  0  0  0  0  0  0  0  0
   -2.9230   -0.8546    0.5656 C   0  0  1  0  0  0  0  0  0  0  0  0
   -3.4522   -1.9558   -0.4324 C   0  0  2  0  0  0  0  0  0  0  0  0
   -3.9137   -1.3620   -1.6321 O   0  0  0  0  0  0  0  0  0  0  0  0
   -4.4971   -2.9393    0.1094 C   0  0  0  0  0  0  0  0  0  0  0  0
   -4.9726   -3.9327   -0.7702 C   0  0  0  0  0  0  0  0  0  0  0  0
   -5.9270   -4.8629   -0.3540 C   0  0  0  0  0  0  0  0  0  0  0  0
   -6.4166   -4.8241    0.9509 C   0  0  0  0  0  0  0  0  0  0  0  0
   -5.9529   -3.8528    1.8407 C   0  0  0  0  0  0  0  0  0  0  0  0
   -5.0011   -2.9131    1.4279 C   0  0  0  0  0  0  0  0  0  0  0  0
   -1.7126   -0.1203    0.1003 N   0  0  0  0  0  0  0  0  0  0  0  0
   -1.0590   -0.2338   -1.1186 C   0  0  0  0  0  0  0  0  0  0  0  0
   -1.4818   -0.9703   -1.9938 O   0  0  0  0  0  0  0  0  0  0  0  0
    0.2294    0.5235   -1.4632 C   0  0  2  0  0  0  0  0  0  0  0  0
    1.3088    0.0652   -0.5952 N   0  0  0  0  0  0  0  0  0  0  0  0
    2.5097   -0.3783   -1.0660 C   0  0  0  0  0  0  0  0  0  0  0  0
    2.7330   -0.3835   -2.2682 O   0  0  0  0  0  0  0  0  0  0  0  0
    3.6155   -0.7763   -0.0915 C   0  0  2  0  0  0  0  0  0  0  0  0
    4.7304    0.3072   -0.0612 C   0  0  2  0  0  0  0  0  0  0  0  0
    5.3051    0.5269   -1.3304 O   0  0  0  0  0  0  0  0  0  0  0  0
    5.7695    0.0396    1.0296 C   0  0  0  0  0  0  0  0  0  0  0  0
    6.6655   -1.0454    0.9428 C   0  0  0  0  0  0  0  0  0  0  0  0
    7.6065   -1.2725    1.9508 C   0  0  0  0  0  0  0  0  0  0  0  0
    7.6640   -0.4266    3.0596 C   0  0  0  0  0  0  0  0  0  0  0  0
    6.7821    0.6510    3.1610 C   0  0  0  0  0  0  0  0  0  0  0  0
    5.8424    0.8867    2.1526 C   0  0  0  0  0  0  0  0  0  0  0  0
    4.1385   -2.1595   -0.2978 N   0  0  0  0  0  0  0  0  0  0  0  0
    4.4942   -2.5235   -1.6828 C   0  0  0  0  0  0  0  0  0  0  0  0
    3.2357   -3.1735    0.2693 C   0  0  0  0  0  0  0  0  0  0  0  0
   -4.5474    2.6236   -0.8799 C   0  0  0  0  0  0  0  0  0  0  0  0
   -3.4335    2.5070   -1.7222 C   0  0  0  0  0  0  0  0  0  0  0  0
    2.1092    4.8831   -1.9800 H   0  0  0  0  0  0  0  0  0  0  0  0
    1.1434    4.4949   -0.5163 H   0  0  0  0  0  0  0  0  0  0  0  0
    0.3119    4.7762   -2.0969 H   0  0  0  0  0  0  0  0  0  0  0  0
    2.2555    2.4733   -1.4323 H   0  0  0  0  0  0  0  0  0  0  0  0
    0.6052    3.0256   -3.9963 H   0  0  0  0  0  0  0  0  0  0  0  0
    1.6839    1.6064   -3.7258 H   0  0  0  0  0  0  0  0  0  0  0  0
    2.3865    3.2374   -3.8057 H   0  0  0  0  0  0  0  0  0  0  0  0
    0.0951    2.2404   -0.2730 H   0  0  0  0  0  0  0  0  0  0  0  0
   -1.0821    3.8084    0.4008 H   0  0  0  0  0  0  0  0  0  0  0  0
   -2.9700    3.9240    1.8545 H   0  0  0  0  0  0  0  0  0  0  0  0
   -6.1413    3.5783    1.6924 H   0  0  0  0  0  0  0  0  0  0  0  0
   -5.6325    1.7612    3.2854 H   0  0  0  0  0  0  0  0  0  0  0  0
   -3.2668    0.7477    2.7830 H   0  0  0  0  0  0  0  0  0  0  0  0
   -2.6235   -1.4118    1.4797 H   0  0  0  0  0  0  0  0  0  0  0  0
   -2.5945   -2.6169   -0.6806 H   0  0  0  0  0  0  0  0  0  0  0  0
   -4.9031   -1.2874   -1.6200 H   0  0  0  0  0  0  0  0  0  0  0  0
   -4.6057   -3.9809   -1.7885 H   0  0  0  0  0  0  0  0  0  0  0  0
   -6.2860   -5.6144   -1.0457 H   0  0  0  0  0  0  0  0  0  0  0  0
   -7.1544   -5.5478    1.2725 H   0  0  0  0  0  0  0  0  0  0  0  0
   -6.3323   -3.8288    2.8539 H   0  0  0  0  0  0  0  0  0  0  0  0
   -4.6704   -2.1826    2.1502 H   0  0  0  0  0  0  0  0  0  0  0  0
   -1.3021    0.5319    0.7855 H   0  0  0  0  0  0  0  0  0  0  0  0
    0.4500    0.2794   -2.5213 H   0  0  0  0  0  0  0  0  0  0  0  0
    1.1697    0.1359    0.4244 H   0  0  0  0  0  0  0  0  0  0  0  0
    3.1929   -0.7252    0.9391 H   0  0  0  0  0  0  0  0  0  0  0  0
    4.2128    1.2563    0.2050 H   0  0  0  0  0  0  0  0  0  0  0  0
    6.2115    0.1284   -1.3680 H   0  0  0  0  0  0  0  0  0  0  0  0
    6.6475   -1.7143    0.0938 H   0  0  0  0  0  0  0  0  0  0  0  0
    8.2925   -2.1058    1.8709 H   0  0  0  0  0  0  0  0  0  0  0  0
    8.3924   -0.6062    3.8397 H   0  0  0  0  0  0  0  0  0  0  0  0
    6.8267    1.3048    4.0225 H   0  0  0  0  0  0  0  0  0  0  0  0
    5.1675    1.7274    2.2549 H   0  0  0  0  0  0  0  0  0  0  0  0
    5.1364   -1.7599   -2.1566 H   0  0  0  0  0  0  0  0  0  0  0  0
    3.5894   -2.6846   -2.3083 H   0  0  0  0  0  0  0  0  0  0  0  0
    5.0753   -3.4698   -1.6810 H   0  0  0  0  0  0  0  0  0  0  0  0
    3.0860   -2.9910    1.3548 H   0  0  0  0  0  0  0  0  0  0  0  0
    3.6863   -4.1859    0.1740 H   0  0  0  0  0  0  0  0  0  0  0  0
    2.2499   -3.1630   -0.2448 H   0  0  0  0  0  0  0  0  0  0  0  0
   -5.5047    2.2337   -1.2030 H   0  0  0  0  0  0  0  0  0  0  0  0
   -3.5460    2.0376   -2.6914 H   0  0  0  0  0  0  0  0  0  0  0  0
  1  2  1  0  0  0  0
  1 45  1  0  0  0  0
  1 46  1  0  0  0  0
  1 47  1  0  0  0  0
  2  3  1  0  0  0  0
  2 48  1  0  0  0  0
  3 49  1  0  0  0  0
  3 50  1  0  0  0  0
  3 51  1  0  0  0  0
  4  2  1  0  0  0  0
  4  5  1  0  0  0  0
  4 52  1  1  0  0  0
  5  6  1  0  0  0  0
  6  7  2  0  0  0  0
  7  8  1  0  0  0  0
  7 53  1  0  0  0  0
  8  9  2  0  0  0  0
  8 54  1  0  0  0  0
  9 10  1  0  0  0  0
  9 43  1  0  0  0  0
 10 11  2  0  0  0  0
 10 55  1  0  0  0  0
 11 12  1  0  0  0  0
 11 56  1  0  0  0  0
 12 13  1  0  0  0  0
 12 57  1  0  0  0  0
 13 14  2  0  0  0  0
 13 15  1  0  0  0  0
 15 16  1  0  0  0  0
 15 24  1  0  0  0  0
 15 58  1  1  0  0  0
 16 17  1  0  0  0  0
 16 18  1  0  0  0  0
 16 59  1  6  0  0  0
 17 60  1  0  0  0  0
 18 19  2  0  0  0  0
 19 20  1  0  0  0  0
 19 61  1  0  0  0  0
 20 21  2  0  0  0  0
 20 62  1  0  0  0  0
 21 22  1  0  0  0  0
 21 63  1  0  0  0  0
 22 23  2  0  0  0  0
 22 64  1  0  0  0  0
 23 18  1  0  0  0  0
 23 65  1  0  0  0  0
 24 25  1  0  0  0  0
 24 66  1  0  0  0  0
 25 26  2  0  0  0  0
 25 27  1  0  0  0  0
 27 28  1  0  0  0  0
 27  4  1  0  0  0  0
 27 67  1  6  0  0  0
 28 29  1  0  0  0  0
 28 68  1  0  0  0  0
 29 30  2  0  0  0  0
 29 31  1  0  0  0  0
 31 32  1  0  0  0  0
 31 40  1  0  0  0  0
 31 69  1  1  0  0  0
 32 33  1  0  0  0  0
 32 34  1  0  0  0  0
 32 70  1  1  0  0  0
 33 71  1  0  0  0  0
 34 35  2  0  0  0  0
 35 36  1  0  0  0  0
 35 72  1  0  0  0  0
 36 37  2  0  0  0  0
 36 73  1  0  0  0  0
 37 38  1  0  0  0  0
 37 74  1  0  0  0  0
 38 39  2  0  0  0  0
 38 75  1  0  0  0  0
 39 34  1  0  0  0  0
 39 76  1  0  0  0  0
 40 41  1  0  0  0  0
 40 42  1  0  0  0  0
 41 77  1  0  0  0  0
 41 78  1  0  0  0  0
 41 79  1  0  0  0  0
 42 80  1  0  0  0  0
 42 81  1  0  0  0  0
 42 82  1  0  0  0  0
 43 44  2  0  0  0  0
 43 83  1  0  0  0  0
 44  6  1  0  0  0  0
 44 84  1  0  0  0  0
M  END
>  <IDENTIFIER>
CNP0312457.2

>  <Energy>
978.095

$$$$
