
 OpenBabel09092518033D

 88 93  0  0  0  0  0  0  0  0999 V2000
    7.7404    2.9415   -1.0866 C   0  0  0  0  0  0  0  0  0  0  0  0
    7.1303    2.0824   -0.1565 O   0  0  0  0  0  0  0  0  0  0  0  0
    6.4720    1.0166   -0.8178 C   0  0  2  0  0  0  0  0  0  0  0  0
    5.0036    1.0155   -0.4170 C   0  0  0  0  0  0  0  0  0  0  0  0
    4.3736   -0.2293   -1.0353 C   0  0  2  0  0  0  0  0  0  0  0  0
    3.0156   -0.1958   -0.7398 O   0  0  0  0  0  0  0  0  0  0  0  0
    2.1631   -0.4186   -1.8513 C   0  0  1  0  0  0  0  0  0  0  0  0
    1.3271   -1.6846   -1.6342 C   0  0  0  0  0  0  0  0  0  0  0  0
    0.8370   -1.6695   -0.2052 C   0  0  0  0  0  0  0  0  0  0  0  0
    0.0198   -0.3894    0.1976 C   0  0  2  0  0  0  0  0  0  0  0  0
    0.2243   -0.4038    1.7271 C   0  0  0  0  0  0  0  0  0  0  0  0
    0.8756    0.5184    2.3640 N   0  0  0  0  0  0  0  0  0  0  0  0
    1.0927    0.5857    3.7946 C   0  0  0  0  0  0  0  0  0  0  0  0
    0.3992   -0.4755    4.5423 C   0  0  0  0  0  0  0  0  0  0  0  0
   -0.1433   -1.3100    5.1305 N   0  0  0  0  0  0  0  0  0  0  0  0
   -1.5175   -0.5398   -0.0531 C   0  0  1  0  0  0  0  0  0  0  0  0
   -2.2027   -1.8627    0.3716 C   0  0  0  0  0  0  0  0  0  0  0  0
   -3.6436   -1.7932   -0.1388 C   0  0  0  0  0  0  0  0  0  0  0  0
   -4.4657   -0.6323    0.5272 C   0  0  2  0  0  0  0  0  0  0  0  0
   -5.4593   -1.3059    1.5039 C   0  0  0  0  0  0  0  0  0  0  0  0
   -5.1443    0.2727   -0.5368 C   0  0  1  0  0  0  0  0  0  0  0  0
   -6.4048   -0.2430   -1.2120 C   0  0  0  0  0  0  0  0  0  0  0  0
   -6.4942   -0.5446   -2.4982 C   0  0  0  0  0  0  0  0  0  0  0  0
   -7.8625   -0.9513   -2.7129 C   0  0  0  0  0  0  0  0  0  0  0  0
   -8.3303   -1.3107   -3.7798 O   0  0  0  0  0  0  0  0  0  0  0  0
   -8.5787   -0.8733   -1.5823 O   0  0  0  0  0  0  0  0  0  0  0  0
   -7.7667   -0.4393   -0.5573 C   0  0  0  0  0  0  0  0  0  0  0  0
   -5.3681    1.6421    0.1261 C   0  0  0  0  0  0  0  0  0  0  0  0
   -4.4792    1.6674    1.3736 C   0  0  0  0  0  0  0  0  0  0  0  0
   -3.5871    0.4118    1.3029 C   0  0  1  0  0  0  0  0  0  0  0  0
   -3.3263   -0.0895    2.6061 O   0  0  0  0  0  0  0  0  0  0  0  0
   -2.2093    0.7002    0.6276 C   0  0  2  0  0  0  0  0  0  0  0  0
   -1.9139    2.0439   -0.0667 C   0  0  0  0  0  0  0  0  0  0  0  0
   -0.7341    1.9099   -1.0190 C   0  0  0  0  0  0  0  0  0  0  0  0
    0.4853    1.0021   -0.5634 C   0  0  1  0  0  0  0  0  0  0  0  0
    1.3634    1.7358    0.2615 O   0  0  0  0  0  0  0  0  0  0  0  0
    1.2188    0.7485   -1.9192 C   0  0  0  0  0  0  0  0  0  0  0  0
    4.9230   -1.3798   -0.4255 O   0  0  0  0  0  0  0  0  0  0  0  0
    6.2618   -1.5438   -0.8416 C   0  0  2  0  0  0  0  0  0  0  0  0
    6.7999   -2.8151   -0.1869 C   0  0  0  0  0  0  0  0  0  0  0  0
    7.1269   -0.3212   -0.4184 C   0  0  1  0  0  0  0  0  0  0  0  0
    8.4134   -0.4136   -0.9745 O   0  0  0  0  0  0  0  0  0  0  0  0
    8.3085    3.7107   -0.5263 H   0  0  0  0  0  0  0  0  0  0  0  0
    6.9713    3.4627   -1.6979 H   0  0  0  0  0  0  0  0  0  0  0  0
    8.4682    2.3888   -1.7208 H   0  0  0  0  0  0  0  0  0  0  0  0
    6.4797    1.0980   -1.9348 H   0  0  0  0  0  0  0  0  0  0  0  0
    4.5087    1.9361   -0.7993 H   0  0  0  0  0  0  0  0  0  0  0  0
    4.8831    0.9874    0.6915 H   0  0  0  0  0  0  0  0  0  0  0  0
    4.5703   -0.2146   -2.1333 H   0  0  0  0  0  0  0  0  0  0  0  0
    2.6557   -0.4998   -2.8463 H   0  0  0  0  0  0  0  0  0  0  0  0
    1.9635   -2.5839   -1.7732 H   0  0  0  0  0  0  0  0  0  0  0  0
    0.4803   -1.7496   -2.3555 H   0  0  0  0  0  0  0  0  0  0  0  0
    1.7637   -1.7372    0.4103 H   0  0  0  0  0  0  0  0  0  0  0  0
    0.3322   -2.6162    0.0570 H   0  0  0  0  0  0  0  0  0  0  0  0
   -0.2046   -1.2375    2.2692 H   0  0  0  0  0  0  0  0  0  0  0  0
    0.7302    1.5768    4.1505 H   0  0  0  0  0  0  0  0  0  0  0  0
    2.1811    0.5200    4.0044 H   0  0  0  0  0  0  0  0  0  0  0  0
   -1.6780   -0.5273   -1.1513 H   0  0  0  0  0  0  0  0  0  0  0  0
   -2.1737   -2.0477    1.4649 H   0  0  0  0  0  0  0  0  0  0  0  0
   -1.7456   -2.7301   -0.1432 H   0  0  0  0  0  0  0  0  0  0  0  0
   -4.1382   -2.7832   -0.0373 H   0  0  0  0  0  0  0  0  0  0  0  0
   -3.5836   -1.6487   -1.2423 H   0  0  0  0  0  0  0  0  0  0  0  0
   -6.0449   -2.0799    0.9724 H   0  0  0  0  0  0  0  0  0  0  0  0
   -6.1306   -0.5747    1.9922 H   0  0  0  0  0  0  0  0  0  0  0  0
   -4.9074   -1.8759    2.2819 H   0  0  0  0  0  0  0  0  0  0  0  0
   -4.3501    0.4529   -1.3027 H   0  0  0  0  0  0  0  0  0  0  0  0
   -5.7019   -0.4897   -3.2330 H   0  0  0  0  0  0  0  0  0  0  0  0
   -7.7802   -1.1928    0.2451 H   0  0  0  0  0  0  0  0  0  0  0  0
   -8.1541    0.5153   -0.1486 H   0  0  0  0  0  0  0  0  0  0  0  0
   -6.4075    1.7883    0.4811 H   0  0  0  0  0  0  0  0  0  0  0  0
   -5.1495    2.4488   -0.6083 H   0  0  0  0  0  0  0  0  0  0  0  0
   -5.1630    1.5307    2.2372 H   0  0  0  0  0  0  0  0  0  0  0  0
   -3.9605    2.6330    1.5606 H   0  0  0  0  0  0  0  0  0  0  0  0
   -3.0901    0.6717    3.1998 H   0  0  0  0  0  0  0  0  0  0  0  0
   -1.6437    0.9298    1.5441 H   0  0  0  0  0  0  0  0  0  0  0  0
   -1.7158    2.8391    0.6902 H   0  0  0  0  0  0  0  0  0  0  0  0
   -2.7736    2.3751   -0.6816 H   0  0  0  0  0  0  0  0  0  0  0  0
   -0.4176    2.9032   -1.4043 H   0  0  0  0  0  0  0  0  0  0  0  0
   -1.2059    1.4191   -1.8992 H   0  0  0  0  0  0  0  0  0  0  0  0
    1.4646    2.6538   -0.1040 H   0  0  0  0  0  0  0  0  0  0  0  0
    1.7651    1.6717   -2.2217 H   0  0  0  0  0  0  0  0  0  0  0  0
    0.5211    0.5135   -2.7531 H   0  0  0  0  0  0  0  0  0  0  0  0
    6.2811   -1.6921   -1.9459 H   0  0  0  0  0  0  0  0  0  0  0  0
    6.7799   -2.7104    0.9210 H   0  0  0  0  0  0  0  0  0  0  0  0
    7.8413   -3.0096   -0.5141 H   0  0  0  0  0  0  0  0  0  0  0  0
    6.1642   -3.6827   -0.4637 H   0  0  0  0  0  0  0  0  0  0  0  0
    7.2045   -0.3264    0.6909 H   0  0  0  0  0  0  0  0  0  0  0  0
    8.2993   -0.4037   -1.9645 H   0  0  0  0  0  0  0  0  0  0  0  0
  1  2  1  0  0  0  0
  1 43  1  0  0  0  0
  1 44  1  0  0  0  0
  1 45  1  0  0  0  0
  3  2  1  0  0  0  0
  3  4  1  0  0  0  0
  3 46  1  6  0  0  0
  4  5  1  0  0  0  0
  4 47  1  0  0  0  0
  4 48  1  0  0  0  0
  5  6  1  0  0  0  0
  5 38  1  0  0  0  0
  5 49  1  6  0  0  0
  7  6  1  0  0  0  0
  7  8  1  0  0  0  0
  7 50  1  6  0  0  0
  8  9  1  0  0  0  0
  8 51  1  0  0  0  0
  8 52  1  0  0  0  0
  9 10  1  0  0  0  0
  9 53  1  0  0  0  0
  9 54  1  0  0  0  0
 10 11  1  1  0  0  0
 10 16  1  0  0  0  0
 11 12  2  0  0  0  0
 11 55  1  0  0  0  0
 12 13  1  0  0  0  0
 13 14  1  0  0  0  0
 13 56  1  0  0  0  0
 13 57  1  0  0  0  0
 14 15  3  0  0  0  0
 16 17  1  0  0  0  0
 16 58  1  6  0  0  0
 17 18  1  0  0  0  0
 17 59  1  0  0  0  0
 17 60  1  0  0  0  0
 18 19  1  0  0  0  0
 18 61  1  0  0  0  0
 18 62  1  0  0  0  0
 19 20  1  1  0  0  0
 19 21  1  0  0  0  0
 20 63  1  0  0  0  0
 20 64  1  0  0  0  0
 20 65  1  0  0  0  0
 21 22  1  0  0  0  0
 21 28  1  0  0  0  0
 21 66  1  6  0  0  0
 22 23  2  0  0  0  0
 23 24  1  0  0  0  0
 23 67  1  0  0  0  0
 24 25  2  0  0  0  0
 24 26  1  0  0  0  0
 26 27  1  0  0  0  0
 27 22  1  0  0  0  0
 27 68  1  0  0  0  0
 27 69  1  0  0  0  0
 28 29  1  0  0  0  0
 28 70  1  0  0  0  0
 28 71  1  0  0  0  0
 29 30  1  0  0  0  0
 29 72  1  0  0  0  0
 29 73  1  0  0  0  0
 30 31  1  1  0  0  0
 30 32  1  0  0  0  0
 30 19  1  0  0  0  0
 31 74  1  0  0  0  0
 32 33  1  0  0  0  0
 32 16  1  0  0  0  0
 32 75  1  1  0  0  0
 33 34  1  0  0  0  0
 33 76  1  0  0  0  0
 33 77  1  0  0  0  0
 34 35  1  0  0  0  0
 34 78  1  0  0  0  0
 34 79  1  0  0  0  0
 35 36  1  1  0  0  0
 35 37  1  0  0  0  0
 35 10  1  0  0  0  0
 36 80  1  0  0  0  0
 37  7  1  0  0  0  0
 37 81  1  0  0  0  0
 37 82  1  0  0  0  0
 38 39  1  0  0  0  0
 39 40  1  0  0  0  0
 39 41  1  0  0  0  0
 39 83  1  6  0  0  0
 40 84  1  0  0  0  0
 40 85  1  0  0  0  0
 40 86  1  0  0  0  0
 41 42  1  0  0  0  0
 41  3  1  0  0  0  0
 41 87  1  1  0  0  0
 42 88  1  0  0  0  0
M  END
>  <IDENTIFIER>
CNP0373324.3

>  <Energy>
1501.89

$$$$
