
 OpenBabel09062515123D

 49 50  0  0  0  0  0  0  0  0999 V2000
    0.0632   -3.5322   -1.2612 C   0  0  0  0  0  0  0  0  0  0  0  0
    0.5293   -2.6896   -0.3273 C   0  0  0  0  0  0  0  0  0  0  0  0
    1.7824   -2.9885    0.4701 C   0  0  0  0  0  0  0  0  0  0  0  0
    2.7992   -1.8405    0.3196 C   0  0  0  0  0  0  0  0  0  0  0  0
    2.1546   -0.4485    0.5851 C   0  0  1  0  0  0  0  0  0  0  0  0
    3.1034    0.5358    0.3518 O   0  0  0  0  0  0  0  0  0  0  0  0
    3.5596    1.4337    1.2645 C   0  0  0  0  0  0  0  0  0  0  0  0
    4.5170    2.4959    0.8312 C   0  0  0  0  0  0  0  0  0  0  0  0
    3.1875    1.3999    2.4284 O   0  0  0  0  0  0  0  0  0  0  0  0
    0.9010   -0.2129   -0.3304 C   0  0  2  0  0  0  0  0  0  0  0  0
    1.3258   -0.2445   -1.8352 C   0  0  0  0  0  0  0  0  0  0  0  0
    0.2455    1.1998   -0.1065 C   0  0  0  0  0  0  0  0  0  0  0  0
   -0.9083    1.1491    0.8902 C   0  0  0  0  0  0  0  0  0  0  0  0
   -2.0750    0.2216    0.3785 C   0  0  1  0  0  0  0  0  0  0  0  0
   -3.2823    0.9525   -0.3295 C   0  0  0  0  0  0  0  0  0  0  0  0
   -2.8649    1.7599   -1.5822 C   0  0  0  0  0  0  0  0  0  0  0  0
   -3.9725    1.9319    0.6451 C   0  0  0  0  0  0  0  0  0  0  0  0
   -4.2610   -0.0021   -0.6757 O   0  0  0  0  0  0  0  0  0  0  0  0
   -1.5349   -1.0102   -0.4559 C   0  0  2  0  0  0  0  0  0  0  0  0
   -2.4229   -2.0952   -0.3336 O   0  0  0  0  0  0  0  0  0  0  0  0
   -0.1142   -1.3649    0.0331 C   0  0  1  0  0  0  0  0  0  0  0  0
    0.5788   -4.4644   -1.4698 H   0  0  0  0  0  0  0  0  0  0  0  0
   -0.8250   -3.3071   -1.8387 H   0  0  0  0  0  0  0  0  0  0  0  0
    2.2514   -3.9540    0.1807 H   0  0  0  0  0  0  0  0  0  0  0  0
    1.4921   -3.0603    1.5408 H   0  0  0  0  0  0  0  0  0  0  0  0
    3.2245   -1.8707   -0.7034 H   0  0  0  0  0  0  0  0  0  0  0  0
    3.6477   -2.0059    1.0180 H   0  0  0  0  0  0  0  0  0  0  0  0
    1.8174   -0.4257    1.6467 H   0  0  0  0  0  0  0  0  0  0  0  0
    4.7439    2.3902   -0.2507 H   0  0  0  0  0  0  0  0  0  0  0  0
    5.4601    2.4115    1.4096 H   0  0  0  0  0  0  0  0  0  0  0  0
    4.0658    3.4954    1.0063 H   0  0  0  0  0  0  0  0  0  0  0  0
    2.0701    0.5534   -2.0450 H   0  0  0  0  0  0  0  0  0  0  0  0
    0.4590   -0.0745   -2.5060 H   0  0  0  0  0  0  0  0  0  0  0  0
    1.7630   -1.2101   -2.1510 H   0  0  0  0  0  0  0  0  0  0  0  0
   -0.2054    1.5722   -1.0464 H   0  0  0  0  0  0  0  0  0  0  0  0
    1.0111    1.9529    0.1727 H   0  0  0  0  0  0  0  0  0  0  0  0
   -1.2638    2.1612    1.1537 H   0  0  0  0  0  0  0  0  0  0  0  0
   -0.4768    0.7315    1.8262 H   0  0  0  0  0  0  0  0  0  0  0  0
   -2.4992   -0.1874    1.3240 H   0  0  0  0  0  0  0  0  0  0  0  0
   -2.1761    2.5862   -1.3120 H   0  0  0  0  0  0  0  0  0  0  0  0
   -3.7609    2.2172   -2.0551 H   0  0  0  0  0  0  0  0  0  0  0  0
   -2.3781    1.1172   -2.3428 H   0  0  0  0  0  0  0  0  0  0  0  0
   -3.3176    2.7723    0.9460 H   0  0  0  0  0  0  0  0  0  0  0  0
   -4.3078    1.3972    1.5596 H   0  0  0  0  0  0  0  0  0  0  0  0
   -4.8714    2.3771    0.1658 H   0  0  0  0  0  0  0  0  0  0  0  0
   -3.9989   -0.4353   -1.5299 H   0  0  0  0  0  0  0  0  0  0  0  0
   -1.4470   -0.7673   -1.5312 H   0  0  0  0  0  0  0  0  0  0  0  0
   -2.3873   -2.4128    0.6063 H   0  0  0  0  0  0  0  0  0  0  0  0
   -0.2473   -1.4360    1.1379 H   0  0  0  0  0  0  0  0  0  0  0  0
  1  2  2  0  0  0  0
  1 22  1  0  0  0  0
  1 23  1  0  0  0  0
  2  3  1  0  0  0  0
  3  4  1  0  0  0  0
  3 24  1  0  0  0  0
  3 25  1  0  0  0  0
  4  5  1  0  0  0  0
  4 26  1  0  0  0  0
  4 27  1  0  0  0  0
  5  6  1  0  0  0  0
  5 10  1  0  0  0  0
  5 28  1  1  0  0  0
  6  7  1  0  0  0  0
  7  8  1  0  0  0  0
  7  9  2  0  0  0  0
  8 29  1  0  0  0  0
  8 30  1  0  0  0  0
  8 31  1  0  0  0  0
 10 11  1  6  0  0  0
 10 12  1  0  0  0  0
 11 32  1  0  0  0  0
 11 33  1  0  0  0  0
 11 34  1  0  0  0  0
 12 13  1  0  0  0  0
 12 35  1  0  0  0  0
 12 36  1  0  0  0  0
 13 14  1  0  0  0  0
 13 37  1  0  0  0  0
 13 38  1  0  0  0  0
 14 15  1  0  0  0  0
 14 19  1  0  0  0  0
 14 39  1  1  0  0  0
 15 16  1  0  0  0  0
 15 17  1  0  0  0  0
 15 18  1  0  0  0  0
 16 40  1  0  0  0  0
 16 41  1  0  0  0  0
 16 42  1  0  0  0  0
 17 43  1  0  0  0  0
 17 44  1  0  0  0  0
 17 45  1  0  0  0  0
 18 46  1  0  0  0  0
 19 20  1  0  0  0  0
 19 21  1  0  0  0  0
 19 47  1  6  0  0  0
 20 48  1  0  0  0  0
 21  2  1  0  0  0  0
 21 10  1  0  0  0  0
 21 49  1  1  0  0  0
M  END
>  <IDENTIFIER>
CNP0312769.1

>  <Energy>
433.95

$$$$
