
 OpenBabel09112518563D

 28 30  0  0  0  0  0  0  0  0999 V2000
    4.1955    1.1385   -0.2211 C   0  0  0  0  0  0  0  0  0  0  0  0
    3.9423    0.3421   -1.3396 C   0  0  0  0  0  0  0  0  0  0  0  0
    2.8995   -0.5887   -1.3160 C   0  0  0  0  0  0  0  0  0  0  0  0
    2.0925   -0.7285   -0.1710 C   0  0  0  0  0  0  0  0  0  0  0  0
    0.9645   -1.7354   -0.1661 C   0  0  0  0  0  0  0  0  0  0  0  0
   -0.3846   -1.0723   -0.1238 C   0  0  0  0  0  0  0  0  0  0  0  0
   -1.2651   -1.1464   -1.1567 N   0  0  0  0  0  0  0  0  0  0  0  0
   -2.3183   -0.4296   -0.7293 C   0  0  0  0  0  0  0  0  0  0  0  0
   -3.5090   -0.1680   -1.4020 C   0  0  0  0  0  0  0  0  0  0  0  0
   -4.4722    0.6181   -0.7398 C   0  0  0  0  0  0  0  0  0  0  0  0
   -4.2218    1.1134    0.5617 C   0  0  0  0  0  0  0  0  0  0  0  0
   -3.0056    0.8278    1.2118 C   0  0  0  0  0  0  0  0  0  0  0  0
   -2.0776    0.0503    0.5235 C   0  0  0  0  0  0  0  0  0  0  0  0
   -0.8625   -0.3491    0.9213 N   0  0  0  0  0  0  0  0  0  0  0  0
    2.3636    0.0738    0.9527 C   0  0  0  0  0  0  0  0  0  0  0  0
    3.4089    1.0022    0.9246 C   0  0  0  0  0  0  0  0  0  0  0  0
    5.0032    1.8587   -0.2410 H   0  0  0  0  0  0  0  0  0  0  0  0
    4.5537    0.4461   -2.2266 H   0  0  0  0  0  0  0  0  0  0  0  0
    2.7190   -1.1944   -2.1954 H   0  0  0  0  0  0  0  0  0  0  0  0
    1.0779   -2.4440    0.6814 H   0  0  0  0  0  0  0  0  0  0  0  0
    1.0058   -2.3313   -1.1042 H   0  0  0  0  0  0  0  0  0  0  0  0
   -3.6878   -0.5530   -2.3974 H   0  0  0  0  0  0  0  0  0  0  0  0
   -5.4097    0.8446   -1.2304 H   0  0  0  0  0  0  0  0  0  0  0  0
   -4.9691    1.7162    1.0610 H   0  0  0  0  0  0  0  0  0  0  0  0
   -2.8000    1.2008    2.2066 H   0  0  0  0  0  0  0  0  0  0  0  0
   -0.4086   -0.1430    1.8363 H   0  0  0  0  0  0  0  0  0  0  0  0
    1.7804   -0.0186    1.8556 H   0  0  0  0  0  0  0  0  0  0  0  0
    3.6101    1.6157    1.7934 H   0  0  0  0  0  0  0  0  0  0  0  0
  1  2  2  0  0  0  0
  1 17  1  0  0  0  0
  2  3  1  0  0  0  0
  2 18  1  0  0  0  0
  3  4  2  0  0  0  0
  3 19  1  0  0  0  0
  4  5  1  0  0  0  0
  4 15  1  0  0  0  0
  5  6  1  0  0  0  0
  5 20  1  0  0  0  0
  5 21  1  0  0  0  0
  6  7  2  0  0  0  0
  7  8  1  0  0  0  0
  8  9  2  0  0  0  0
  9 10  1  0  0  0  0
  9 22  1  0  0  0  0
 10 11  2  0  0  0  0
 10 23  1  0  0  0  0
 11 12  1  0  0  0  0
 11 24  1  0  0  0  0
 12 13  2  0  0  0  0
 12 25  1  0  0  0  0
 13 14  1  0  0  0  0
 13  8  1  0  0  0  0
 14  6  1  0  0  0  0
 14 26  1  0  0  0  0
 15 16  2  0  0  0  0
 15 27  1  0  0  0  0
 16  1  1  0  0  0  0
 16 28  1  0  0  0  0
M  END
>  <IDENTIFIER>
CNP0288387.0

>  <Energy>
282.981

$$$$
