
 OpenBabel09112513513D

 39 40  0  0  0  0  0  0  0  0999 V2000
   -4.2354    0.6861   -2.6976 C   0  0  0  0  0  0  0  0  0  0  0  0
   -4.4669    0.2667   -1.2685 C   0  0  0  0  0  0  0  0  0  0  0  0
   -5.7575   -0.0957   -0.8600 C   0  0  0  0  0  0  0  0  0  0  0  0
   -5.9744   -0.4863    0.4629 C   0  0  0  0  0  0  0  0  0  0  0  0
   -7.0922   -0.8035    0.8280 O   0  0  0  0  0  0  0  0  0  0  0  0
   -4.9689   -0.5156    1.3303 O   0  0  0  0  0  0  0  0  0  0  0  0
   -3.7253   -0.1835    0.9984 C   0  0  0  0  0  0  0  0  0  0  0  0
   -2.7176   -0.2419    1.9638 C   0  0  0  0  0  0  0  0  0  0  0  0
   -1.4024    0.0976    1.6380 C   0  0  0  0  0  0  0  0  0  0  0  0
   -1.0774    0.5059    0.3270 C   0  0  0  0  0  0  0  0  0  0  0  0
    0.1780    0.8424   -0.0748 O   0  0  0  0  0  0  0  0  0  0  0  0
    1.3737    0.8163    0.6280 C   0  0  2  0  0  0  0  0  0  0  0  0
    1.9743    2.2211    0.6249 C   0  0  0  0  0  0  0  0  0  0  0  0
    2.3155   -0.1602   -0.0289 C   0  0  0  0  0  0  0  0  0  0  0  0
    1.9502   -0.7940   -1.0105 O   0  0  0  0  0  0  0  0  0  0  0  0
    3.5661   -0.3277    0.4795 O   0  0  0  0  0  0  0  0  0  0  0  0
    4.5195   -1.2050   -0.0129 C   0  0  0  0  0  0  0  0  0  0  0  0
    4.9358   -2.1724    1.0945 C   0  0  0  0  0  0  0  0  0  0  0  0
    5.7198   -0.4068   -0.5173 C   0  0  0  0  0  0  0  0  0  0  0  0
   -2.0913    0.5672   -0.6376 C   0  0  0  0  0  0  0  0  0  0  0  0
   -3.4193    0.2242   -0.3204 C   0  0  0  0  0  0  0  0  0  0  0  0
   -5.1733    0.6564   -3.2923 H   0  0  0  0  0  0  0  0  0  0  0  0
   -3.5041    0.0014   -3.1762 H   0  0  0  0  0  0  0  0  0  0  0  0
   -3.8434    1.7245   -2.7260 H   0  0  0  0  0  0  0  0  0  0  0  0
   -6.5859   -0.0763   -1.5591 H   0  0  0  0  0  0  0  0  0  0  0  0
   -2.9545   -0.5548    2.9734 H   0  0  0  0  0  0  0  0  0  0  0  0
   -0.6667    0.0316    2.4228 H   0  0  0  0  0  0  0  0  0  0  0  0
    1.2423    0.5008    1.6785 H   0  0  0  0  0  0  0  0  0  0  0  0
    2.1563    2.5632   -0.4168 H   0  0  0  0  0  0  0  0  0  0  0  0
    2.9353    2.2353    1.1827 H   0  0  0  0  0  0  0  0  0  0  0  0
    1.2741    2.9300    1.1158 H   0  0  0  0  0  0  0  0  0  0  0  0
    4.1238   -1.8044   -0.8630 H   0  0  0  0  0  0  0  0  0  0  0  0
    5.3613   -1.6171    1.9579 H   0  0  0  0  0  0  0  0  0  0  0  0
    5.6964   -2.8871    0.7139 H   0  0  0  0  0  0  0  0  0  0  0  0
    4.0527   -2.7499    1.4413 H   0  0  0  0  0  0  0  0  0  0  0  0
    6.1623    0.1952    0.3050 H   0  0  0  0  0  0  0  0  0  0  0  0
    5.3957    0.2800   -1.3283 H   0  0  0  0  0  0  0  0  0  0  0  0
    6.4937   -1.0919   -0.9248 H   0  0  0  0  0  0  0  0  0  0  0  0
   -1.8234    0.8811   -1.6384 H   0  0  0  0  0  0  0  0  0  0  0  0
  1  2  1  0  0  0  0
  1 22  1  0  0  0  0
  1 23  1  0  0  0  0
  1 24  1  0  0  0  0
  2  3  2  0  0  0  0
  3  4  1  0  0  0  0
  3 25  1  0  0  0  0
  4  5  2  0  0  0  0
  4  6  1  0  0  0  0
  6  7  1  0  0  0  0
  7  8  2  0  0  0  0
  8  9  1  0  0  0  0
  8 26  1  0  0  0  0
  9 10  2  0  0  0  0
  9 27  1  0  0  0  0
 10 11  1  0  0  0  0
 10 20  1  0  0  0  0
 11 12  1  0  0  0  0
 12 13  1  0  0  0  0
 12 14  1  0  0  0  0
 12 28  1  1  0  0  0
 13 29  1  0  0  0  0
 13 30  1  0  0  0  0
 13 31  1  0  0  0  0
 14 15  2  0  0  0  0
 14 16  1  0  0  0  0
 16 17  1  0  0  0  0
 17 18  1  0  0  0  0
 17 19  1  0  0  0  0
 17 32  1  0  0  0  0
 18 33  1  0  0  0  0
 18 34  1  0  0  0  0
 18 35  1  0  0  0  0
 19 36  1  0  0  0  0
 19 37  1  0  0  0  0
 19 38  1  0  0  0  0
 20 21  2  0  0  0  0
 20 39  1  0  0  0  0
 21  2  1  0  0  0  0
 21  7  1  0  0  0  0
M  END
>  <IDENTIFIER>
CNP0367000.1

>  <Energy>
166.639

$$$$
