
 OpenBabel09082513543D

 62 66  0  0  0  0  0  0  0  0999 V2000
    7.4253   -5.4244    0.5360 C   0  0  0  0  0  0  0  0  0  0  0  0
    6.8376   -4.2128    0.2408 O   0  0  0  0  0  0  0  0  0  0  0  0
    5.4975   -3.9913    0.2738 C   0  0  0  0  0  0  0  0  0  0  0  0
    4.7300   -4.8969    0.5734 O   0  0  0  0  0  0  0  0  0  0  0  0
    4.9658   -2.6461   -0.0573 C   0  0  0  0  0  0  0  0  0  0  0  0
    3.5848   -2.3965   -0.0537 C   0  0  0  0  0  0  0  0  0  0  0  0
    3.0917   -1.1270   -0.3656 C   0  0  0  0  0  0  0  0  0  0  0  0
    3.9612   -0.0635   -0.6789 C   0  0  0  0  0  0  0  0  0  0  0  0
    3.3633    1.3148   -1.0011 C   0  0  2  0  0  0  0  0  0  0  0  0
    4.3973    2.4336   -1.2521 C   0  0  0  0  0  0  0  0  0  0  0  0
    5.1187    2.7119    0.0504 C   0  0  0  0  0  0  0  0  0  0  0  0
    6.3358    2.7954    0.0861 O   0  0  0  0  0  0  0  0  0  0  0  0
    4.3964    2.8127    1.1979 O   0  0  0  0  0  0  0  0  0  0  0  0
    3.0747    2.4957    1.2323 C   0  0  0  0  0  0  0  0  0  0  0  0
    2.2864    2.9058    2.3274 C   0  0  0  0  0  0  0  0  0  0  0  0
    0.9068    2.6447    2.3469 C   0  0  0  0  0  0  0  0  0  0  0  0
    0.3508    1.9829    1.2549 C   0  0  0  0  0  0  0  0  0  0  0  0
   -1.0102    1.6111    0.9606 C   0  0  0  0  0  0  0  0  0  0  0  0
   -1.9877    1.9135    1.6252 O   0  0  0  0  0  0  0  0  0  0  0  0
   -0.9474    0.9752   -0.3723 C   0  0  0  0  0  0  0  0  0  0  0  0
   -1.9364    0.5166   -1.1713 C   0  0  0  0  0  0  0  0  0  0  0  0
   -3.3890    0.4629   -0.8560 C   0  0  0  0  0  0  0  0  0  0  0  0
   -3.8724    0.1832    0.4281 C   0  0  0  0  0  0  0  0  0  0  0  0
   -5.2538    0.1670    0.7040 C   0  0  0  0  0  0  0  0  0  0  0  0
   -5.7148   -0.1229    1.9502 O   0  0  0  0  0  0  0  0  0  0  0  0
   -4.9572   -0.5342    3.0285 C   0  0  0  0  0  0  0  0  0  0  0  0
   -6.1705    0.4460   -0.3434 C   0  0  0  0  0  0  0  0  0  0  0  0
   -7.5218    0.5067   -0.1704 O   0  0  0  0  0  0  0  0  0  0  0  0
   -8.2262    0.4986    1.0153 C   0  0  0  0  0  0  0  0  0  0  0  0
   -5.6891    0.6808   -1.6426 C   0  0  0  0  0  0  0  0  0  0  0  0
   -6.5972    0.9241   -2.6264 O   0  0  0  0  0  0  0  0  0  0  0  0
   -6.3111    1.1994   -3.9475 C   0  0  0  0  0  0  0  0  0  0  0  0
   -4.3039    0.6736   -1.8925 C   0  0  0  0  0  0  0  0  0  0  0  0
    0.3514    0.9723   -0.7747 O   0  0  0  0  0  0  0  0  0  0  0  0
    1.1025    1.5695    0.1805 C   0  0  0  0  0  0  0  0  0  0  0  0
    2.4848    1.7868    0.1480 C   0  0  0  0  0  0  0  0  0  0  0  0
    5.3488   -0.3282   -0.6905 C   0  0  0  0  0  0  0  0  0  0  0  0
    5.8403   -1.5998   -0.3837 C   0  0  0  0  0  0  0  0  0  0  0  0
    8.5248   -5.3327    0.4211 H   0  0  0  0  0  0  0  0  0  0  0  0
    7.0569   -6.2081   -0.1602 H   0  0  0  0  0  0  0  0  0  0  0  0
    7.1971   -5.7147    1.5838 H   0  0  0  0  0  0  0  0  0  0  0  0
    2.8819   -3.1835    0.1904 H   0  0  0  0  0  0  0  0  0  0  0  0
    2.0215   -0.9792   -0.3525 H   0  0  0  0  0  0  0  0  0  0  0  0
    2.7432    1.1861   -1.9154 H   0  0  0  0  0  0  0  0  0  0  0  0
    3.8329    3.3520   -1.5280 H   0  0  0  0  0  0  0  0  0  0  0  0
    5.0935    2.2067   -2.0873 H   0  0  0  0  0  0  0  0  0  0  0  0
    2.7406    3.4422    3.1501 H   0  0  0  0  0  0  0  0  0  0  0  0
    0.2907    2.9673    3.1767 H   0  0  0  0  0  0  0  0  0  0  0  0
   -1.6433    0.2092   -2.1720 H   0  0  0  0  0  0  0  0  0  0  0  0
   -3.1715   -0.0506    1.2115 H   0  0  0  0  0  0  0  0  0  0  0  0
   -5.6264   -0.7135    3.8942 H   0  0  0  0  0  0  0  0  0  0  0  0
   -4.2182    0.2463    3.3058 H   0  0  0  0  0  0  0  0  0  0  0  0
   -4.4362   -1.4865    2.7858 H   0  0  0  0  0  0  0  0  0  0  0  0
   -9.3064    0.6122    0.7908 H   0  0  0  0  0  0  0  0  0  0  0  0
   -7.9114    1.3569    1.6479 H   0  0  0  0  0  0  0  0  0  0  0  0
   -8.0883   -0.4615    1.5530 H   0  0  0  0  0  0  0  0  0  0  0  0
   -7.2613    1.3517   -4.4991 H   0  0  0  0  0  0  0  0  0  0  0  0
   -5.7663    0.3482   -4.4085 H   0  0  0  0  0  0  0  0  0  0  0  0
   -5.7062    2.1282   -4.0225 H   0  0  0  0  0  0  0  0  0  0  0  0
   -3.9279    0.8682   -2.8887 H   0  0  0  0  0  0  0  0  0  0  0  0
    6.0725    0.4305   -0.9386 H   0  0  0  0  0  0  0  0  0  0  0  0
    6.9111   -1.7606   -0.4020 H   0  0  0  0  0  0  0  0  0  0  0  0
  1  2  1  0  0  0  0
  1 39  1  0  0  0  0
  1 40  1  0  0  0  0
  1 41  1  0  0  0  0
  2  3  1  0  0  0  0
  3  4  2  0  0  0  0
  3  5  1  0  0  0  0
  5  6  2  0  0  0  0
  6  7  1  0  0  0  0
  6 42  1  0  0  0  0
  7  8  2  0  0  0  0
  7 43  1  0  0  0  0
  8 37  1  0  0  0  0
  9  8  1  0  0  0  0
  9 10  1  0  0  0  0
  9 44  1  6  0  0  0
 10 11  1  0  0  0  0
 10 45  1  0  0  0  0
 10 46  1  0  0  0  0
 11 12  2  0  0  0  0
 11 13  1  0  0  0  0
 13 14  1  0  0  0  0
 14 15  2  0  0  0  0
 15 16  1  0  0  0  0
 15 47  1  0  0  0  0
 16 17  2  0  0  0  0
 16 48  1  0  0  0  0
 17 18  1  0  0  0  0
 18 19  2  0  0  0  0
 18 20  1  0  0  0  0
 20 21  2  3  0  0  0
 20 34  1  0  0  0  0
 21 22  1  0  0  0  0
 21 49  1  0  0  0  0
 22 23  2  0  0  0  0
 23 24  1  0  0  0  0
 23 50  1  0  0  0  0
 24 25  1  0  0  0  0
 24 27  2  0  0  0  0
 25 26  1  0  0  0  0
 26 51  1  0  0  0  0
 26 52  1  0  0  0  0
 26 53  1  0  0  0  0
 27 28  1  0  0  0  0
 27 30  1  0  0  0  0
 28 29  1  0  0  0  0
 29 54  1  0  0  0  0
 29 55  1  0  0  0  0
 29 56  1  0  0  0  0
 30 31  1  0  0  0  0
 30 33  2  0  0  0  0
 31 32  1  0  0  0  0
 32 57  1  0  0  0  0
 32 58  1  0  0  0  0
 32 59  1  0  0  0  0
 33 22  1  0  0  0  0
 33 60  1  0  0  0  0
 34 35  1  0  0  0  0
 35 36  2  0  0  0  0
 35 17  1  0  0  0  0
 36  9  1  0  0  0  0
 36 14  1  0  0  0  0
 37 38  2  0  0  0  0
 37 61  1  0  0  0  0
 38  5  1  0  0  0  0
 38 62  1  0  0  0  0
M  END
>  <IDENTIFIER>
CNP0279941.0

>  <Energy>
593.97

$$$$
