
 OpenBabel09122509573D

153156  0  0  0  0  0  0  0  0999 V2000
   -8.2027   -2.3137    3.3940 C   0  0  0  0  0  0  0  0  0  0  0  0
   -7.7694   -2.6529    2.3217 C   0  0  0  0  0  0  0  0  0  0  0  0
   -7.2372   -3.0904    1.0250 C   0  0  0  0  0  0  0  0  0  0  0  0
   -6.2529   -2.0773    0.4230 C   0  0  0  0  0  0  0  0  0  0  0  0
   -5.0167   -1.8568    1.3298 C   0  0  0  0  0  0  0  0  0  0  0  0
   -3.7997   -1.1140    0.6892 C   0  0  1  0  0  0  0  0  0  0  0  0
   -3.3162   -1.9427   -0.3275 O   0  0  0  0  0  0  0  0  0  0  0  0
   -2.1379   -2.6300   -0.4358 C   0  0  0  0  0  0  0  0  0  0  0  0
   -1.1994   -2.3870    0.3077 O   0  0  0  0  0  0  0  0  0  0  0  0
   -2.0141   -3.6466   -1.5787 C   0  0  2  0  0  0  0  0  0  0  0  0
   -2.9594   -4.9013   -1.4444 C   0  0  0  0  0  0  0  0  0  0  0  0
   -4.4195   -4.5742   -1.1676 C   0  0  0  0  0  0  0  0  0  0  0  0
   -2.8975   -5.7623   -2.7186 C   0  0  0  0  0  0  0  0  0  0  0  0
   -0.6540   -4.1409   -1.8300 N   0  0  0  0  0  0  0  0  0  0  0  0
    0.0148   -4.9904   -0.9933 C   0  0  0  0  0  0  0  0  0  0  0  0
   -0.3894   -5.1721    0.1459 O   0  0  0  0  0  0  0  0  0  0  0  0
    1.1583   -5.8512   -1.5386 C   0  0  2  0  0  0  0  0  0  0  0  0
    0.7328   -7.3305   -1.6034 C   0  0  0  0  0  0  0  0  0  0  0  0
    1.0094   -7.8335   -0.1988 C   0  0  0  0  0  0  0  0  0  0  0  0
    2.3316   -7.1497    0.1158 C   0  0  0  0  0  0  0  0  0  0  0  0
    2.2847   -5.9004   -0.6264 N   0  0  0  0  0  0  0  0  0  0  0  0
    3.2785   -4.9726   -0.5274 C   0  0  0  0  0  0  0  0  0  0  0  0
    4.1337   -5.1123    0.3386 O   0  0  0  0  0  0  0  0  0  0  0  0
    3.4542   -3.8385   -1.5255 C   0  0  2  0  0  0  0  0  0  0  0  0
    4.0356   -4.3897   -2.8463 C   0  0  0  0  0  0  0  0  0  0  0  0
    5.0730   -3.3434   -3.2265 C   0  0  0  0  0  0  0  0  0  0  0  0
    5.6572   -3.0095   -1.8688 C   0  0  0  0  0  0  0  0  0  0  0  0
    4.4716   -2.9042   -1.0522 N   0  0  0  0  0  0  0  0  0  0  0  0
    4.1609   -1.9474   -0.1096 C   0  0  0  0  0  0  0  0  0  0  0  0
    3.0142   -1.9250    0.3220 O   0  0  0  0  0  0  0  0  0  0  0  0
    5.0630   -0.8604    0.4759 C   0  0  1  0  0  0  0  0  0  0  0  0
    6.6098   -0.8882    0.3900 C   0  0  0  0  0  0  0  0  0  0  0  0
    7.2525   -2.0996    1.0325 C   0  0  0  0  0  0  0  0  0  0  0  0
    8.1809   -2.8785    0.3194 C   0  0  0  0  0  0  0  0  0  0  0  0
    8.8022   -3.9738    0.9299 C   0  0  0  0  0  0  0  0  0  0  0  0
    8.5025   -4.3033    2.2540 C   0  0  0  0  0  0  0  0  0  0  0  0
    7.5867   -3.5347    2.9734 C   0  0  0  0  0  0  0  0  0  0  0  0
    6.9702   -2.4363    2.3719 C   0  0  0  0  0  0  0  0  0  0  0  0
    4.6159    0.3732    0.0210 O   0  0  0  0  0  0  0  0  0  0  0  0
    4.3252    1.4346    0.8202 C   0  0  0  0  0  0  0  0  0  0  0  0
    4.4736    1.3558    2.0314 O   0  0  0  0  0  0  0  0  0  0  0  0
    3.9087    2.7581    0.1796 C   0  0  2  0  0  0  0  0  0  0  0  0
    5.0603    3.8219    0.3413 C   0  0  0  0  0  0  0  0  0  0  0  0
    6.3425    3.3723   -0.3792 C   0  0  0  0  0  0  0  0  0  0  0  0
    5.3893    4.1800    1.8014 C   0  0  0  0  0  0  0  0  0  0  0  0
    2.5989    3.2926    0.6555 N   0  0  0  0  0  0  0  0  0  0  0  0
    1.8919    2.6016    1.7292 C   0  0  0  0  0  0  0  0  0  0  0  0
    2.0738    4.4037    0.0040 C   0  0  0  0  0  0  0  0  0  0  0  0
    2.5798    4.7181   -1.0673 O   0  0  0  0  0  0  0  0  0  0  0  0
    0.9299    5.3610    0.4531 C   0  0  2  0  0  0  0  0  0  0  0  0
    1.4873    6.8025    0.3109 C   0  0  0  0  0  0  0  0  0  0  0  0
    0.4089    5.2575    1.8241 N   0  0  0  0  0  0  0  0  0  0  0  0
    1.3777    5.3047    2.9285 C   0  0  0  0  0  0  0  0  0  0  0  0
   -0.9348    5.3137    2.1902 C   0  0  0  0  0  0  0  0  0  0  0  0
   -1.1760    5.2395    3.3904 O   0  0  0  0  0  0  0  0  0  0  0  0
   -2.2103    5.6281    1.3331 C   0  0  2  0  0  0  0  0  0  0  0  0
   -3.4763    4.9951    1.9245 C   0  0  0  0  0  0  0  0  0  0  0  0
   -2.1580    5.7555   -0.1501 N   0  0  0  0  0  0  0  0  0  0  0  0
   -1.6517    7.0409   -0.6626 C   0  0  0  0  0  0  0  0  0  0  0  0
   -2.6611    4.8904   -1.1334 C   0  0  0  0  0  0  0  0  0  0  0  0
   -2.4470    5.1712   -2.3089 O   0  0  0  0  0  0  0  0  0  0  0  0
   -3.5479    3.6130   -0.9509 C   0  0  2  0  0  0  0  0  0  0  0  0
   -5.0897    4.0637   -0.6422 C   0  0  1  0  0  0  0  0  0  0  0  0
   -5.3685    5.4915   -1.2068 C   0  0  0  0  0  0  0  0  0  0  0  0
   -6.2099    3.1419   -1.2449 C   0  0  0  0  0  0  0  0  0  0  0  0
   -7.6574    3.5803   -0.9637 C   0  0  0  0  0  0  0  0  0  0  0  0
   -2.7363    2.6225   -0.1710 N   0  0  0  0  0  0  0  0  0  0  0  0
   -2.8366    1.2903    0.2186 C   0  0  0  0  0  0  0  0  0  0  0  0
   -1.8362    0.7940    0.7219 O   0  0  0  0  0  0  0  0  0  0  0  0
   -4.0817    0.3868    0.1658 C   0  0  0  0  0  0  0  0  0  0  0  0
   -5.0459    1.0574    1.1810 C   0  0  0  0  0  0  0  0  0  0  0  0
   -4.5626    0.2929   -1.3074 C   0  0  0  0  0  0  0  0  0  0  0  0
   -8.5813   -2.0256    4.3391 H   0  0  0  0  0  0  0  0  0  0  0  0
   -8.0873   -3.2345    0.3250 H   0  0  0  0  0  0  0  0  0  0  0  0
   -6.7329   -4.0714    1.1588 H   0  0  0  0  0  0  0  0  0  0  0  0
   -6.7933   -1.1335    0.2273 H   0  0  0  0  0  0  0  0  0  0  0  0
   -5.9408   -2.4672   -0.5602 H   0  0  0  0  0  0  0  0  0  0  0  0
   -4.6329   -2.8467    1.6574 H   0  0  0  0  0  0  0  0  0  0  0  0
   -5.3415   -1.3464    2.2609 H   0  0  0  0  0  0  0  0  0  0  0  0
   -3.0744   -1.0690    1.5316 H   0  0  0  0  0  0  0  0  0  0  0  0
   -2.3287   -3.0834   -2.4860 H   0  0  0  0  0  0  0  0  0  0  0  0
   -2.6293   -5.5314   -0.5928 H   0  0  0  0  0  0  0  0  0  0  0  0
   -4.8338   -3.9182   -1.9609 H   0  0  0  0  0  0  0  0  0  0  0  0
   -4.4932   -4.1127   -0.1738 H   0  0  0  0  0  0  0  0  0  0  0  0
   -5.0234   -5.5056   -1.1116 H   0  0  0  0  0  0  0  0  0  0  0  0
   -3.2728   -5.1891   -3.5925 H   0  0  0  0  0  0  0  0  0  0  0  0
   -3.5175   -6.6765   -2.5949 H   0  0  0  0  0  0  0  0  0  0  0  0
   -1.8636   -6.0932   -2.9348 H   0  0  0  0  0  0  0  0  0  0  0  0
   -0.2782   -3.9921   -2.7790 H   0  0  0  0  0  0  0  0  0  0  0  0
    1.4301   -5.5514   -2.5719 H   0  0  0  0  0  0  0  0  0  0  0  0
    1.4446   -7.8616   -2.2757 H   0  0  0  0  0  0  0  0  0  0  0  0
   -0.2954   -7.5195   -1.9766 H   0  0  0  0  0  0  0  0  0  0  0  0
    1.0195   -8.9373   -0.0760 H   0  0  0  0  0  0  0  0  0  0  0  0
    0.2327   -7.4290    0.4798 H   0  0  0  0  0  0  0  0  0  0  0  0
    3.1822   -7.7461   -0.2870 H   0  0  0  0  0  0  0  0  0  0  0  0
    2.4511   -7.0129    1.2113 H   0  0  0  0  0  0  0  0  0  0  0  0
    2.5255   -3.2613   -1.7358 H   0  0  0  0  0  0  0  0  0  0  0  0
    3.2874   -4.6050   -3.6389 H   0  0  0  0  0  0  0  0  0  0  0  0
    4.6105   -5.3226   -2.6442 H   0  0  0  0  0  0  0  0  0  0  0  0
    4.5603   -2.4344   -3.6118 H   0  0  0  0  0  0  0  0  0  0  0  0
    5.8184   -3.6939   -3.9733 H   0  0  0  0  0  0  0  0  0  0  0  0
    6.2845   -2.1186   -1.9339 H   0  0  0  0  0  0  0  0  0  0  0  0
    6.2509   -3.8860   -1.5156 H   0  0  0  0  0  0  0  0  0  0  0  0
    4.8697   -0.9389    1.5649 H   0  0  0  0  0  0  0  0  0  0  0  0
    6.9726   -0.0105    0.9688 H   0  0  0  0  0  0  0  0  0  0  0  0
    6.9755   -0.7025   -0.6349 H   0  0  0  0  0  0  0  0  0  0  0  0
    8.4361   -2.6331   -0.7035 H   0  0  0  0  0  0  0  0  0  0  0  0
    9.5214   -4.5651    0.3784 H   0  0  0  0  0  0  0  0  0  0  0  0
    8.9850   -5.1490    2.7267 H   0  0  0  0  0  0  0  0  0  0  0  0
    7.3587   -3.7843    4.0017 H   0  0  0  0  0  0  0  0  0  0  0  0
    6.2789   -1.8516    2.9627 H   0  0  0  0  0  0  0  0  0  0  0  0
    3.8059    2.5463   -0.9080 H   0  0  0  0  0  0  0  0  0  0  0  0
    4.7547    4.7653   -0.1515 H   0  0  0  0  0  0  0  0  0  0  0  0
    6.7545    2.4453    0.0714 H   0  0  0  0  0  0  0  0  0  0  0  0
    7.1167    4.1672   -0.3156 H   0  0  0  0  0  0  0  0  0  0  0  0
    6.1308    3.1876   -1.4537 H   0  0  0  0  0  0  0  0  0  0  0  0
    5.8233    3.3219    2.3518 H   0  0  0  0  0  0  0  0  0  0  0  0
    4.4872    4.5295    2.3332 H   0  0  0  0  0  0  0  0  0  0  0  0
    6.1402    4.9989    1.8287 H   0  0  0  0  0  0  0  0  0  0  0  0
    1.7671    1.5330    1.4614 H   0  0  0  0  0  0  0  0  0  0  0  0
    0.8574    2.9502    1.8665 H   0  0  0  0  0  0  0  0  0  0  0  0
    2.4617    2.6740    2.6788 H   0  0  0  0  0  0  0  0  0  0  0  0
    0.1296    5.2153   -0.2728 H   0  0  0  0  0  0  0  0  0  0  0  0
    2.3910    6.9473    0.9402 H   0  0  0  0  0  0  0  0  0  0  0  0
    0.7512    7.5569    0.6400 H   0  0  0  0  0  0  0  0  0  0  0  0
    1.7617    7.0285   -0.7411 H   0  0  0  0  0  0  0  0  0  0  0  0
    2.4216    5.3121    2.5695 H   0  0  0  0  0  0  0  0  0  0  0  0
    1.2426    4.4437    3.6162 H   0  0  0  0  0  0  0  0  0  0  0  0
    1.2291    6.2360    3.5165 H   0  0  0  0  0  0  0  0  0  0  0  0
   -2.4231    6.6606    1.6973 H   0  0  0  0  0  0  0  0  0  0  0  0
   -3.5170    3.9060    1.7629 H   0  0  0  0  0  0  0  0  0  0  0  0
   -4.3562    5.5527    1.5528 H   0  0  0  0  0  0  0  0  0  0  0  0
   -3.5304    5.1367    3.0249 H   0  0  0  0  0  0  0  0  0  0  0  0
   -1.3460    7.7281    0.1502 H   0  0  0  0  0  0  0  0  0  0  0  0
   -2.4592    7.5622   -1.2156 H   0  0  0  0  0  0  0  0  0  0  0  0
   -0.8004    6.8946   -1.3561 H   0  0  0  0  0  0  0  0  0  0  0  0
   -3.6254    3.2061   -1.9790 H   0  0  0  0  0  0  0  0  0  0  0  0
   -5.2944    4.1328    0.4246 H   0  0  0  0  0  0  0  0  0  0  0  0
   -5.2537    5.5041   -2.3140 H   0  0  0  0  0  0  0  0  0  0  0  0
   -4.7008    6.2559   -0.7676 H   0  0  0  0  0  0  0  0  0  0  0  0
   -6.3727    5.8689   -0.9450 H   0  0  0  0  0  0  0  0  0  0  0  0
   -6.1879    2.1467   -0.8099 H   0  0  0  0  0  0  0  0  0  0  0  0
   -6.0815    3.0566   -2.3462 H   0  0  0  0  0  0  0  0  0  0  0  0
   -7.8246    3.6810    0.1301 H   0  0  0  0  0  0  0  0  0  0  0  0
   -8.3560    2.8099   -1.3557 H   0  0  0  0  0  0  0  0  0  0  0  0
   -7.9269    4.5244   -1.4751 H   0  0  0  0  0  0  0  0  0  0  0  0
   -1.8060    3.0037    0.0782 H   0  0  0  0  0  0  0  0  0  0  0  0
   -5.1592    2.1290    1.0433 H   0  0  0  0  0  0  0  0  0  0  0  0
   -4.6324    0.9663    2.2088 H   0  0  0  0  0  0  0  0  0  0  0  0
   -6.0618    0.6295    1.1794 H   0  0  0  0  0  0  0  0  0  0  0  0
   -4.6180    1.2531   -1.8242 H   0  0  0  0  0  0  0  0  0  0  0  0
   -5.5356   -0.2212   -1.4038 H   0  0  0  0  0  0  0  0  0  0  0  0
   -3.8209   -0.2538   -1.9249 H   0  0  0  0  0  0  0  0  0  0  0  0
  1  2  3  0  0  0  0
  1 73  1  0  0  0  0
  2  3  1  0  0  0  0
  3  4  1  0  0  0  0
  3 74  1  0  0  0  0
  3 75  1  0  0  0  0
  4  5  1  0  0  0  0
  4 76  1  0  0  0  0
  4 77  1  0  0  0  0
  5 78  1  0  0  0  0
  5 79  1  0  0  0  0
  6  5  1  0  0  0  0
  6  7  1  0  0  0  0
  6 80  1  1  0  0  0
  7  8  1  0  0  0  0
  8  9  2  0  0  0  0
  8 10  1  0  0  0  0
 10 11  1  0  0  0  0
 10 14  1  0  0  0  0
 10 81  1  6  0  0  0
 11 12  1  0  0  0  0
 11 13  1  0  0  0  0
 11 82  1  0  0  0  0
 12 83  1  0  0  0  0
 12 84  1  0  0  0  0
 12 85  1  0  0  0  0
 13 86  1  0  0  0  0
 13 87  1  0  0  0  0
 13 88  1  0  0  0  0
 14 15  1  0  0  0  0
 14 89  1  0  0  0  0
 15 16  2  0  0  0  0
 15 17  1  0  0  0  0
 17 18  1  0  0  0  0
 17 90  1  6  0  0  0
 18 19  1  0  0  0  0
 18 91  1  0  0  0  0
 18 92  1  0  0  0  0
 19 20  1  0  0  0  0
 19 93  1  0  0  0  0
 19 94  1  0  0  0  0
 20 21  1  0  0  0  0
 20 95  1  0  0  0  0
 20 96  1  0  0  0  0
 21 22  1  0  0  0  0
 21 17  1  0  0  0  0
 22 23  2  0  0  0  0
 22 24  1  0  0  0  0
 24 25  1  0  0  0  0
 24 97  1  6  0  0  0
 25 26  1  0  0  0  0
 25 98  1  0  0  0  0
 25 99  1  0  0  0  0
 26 27  1  0  0  0  0
 26100  1  0  0  0  0
 26101  1  0  0  0  0
 27 28  1  0  0  0  0
 27102  1  0  0  0  0
 27103  1  0  0  0  0
 28 29  1  0  0  0  0
 28 24  1  0  0  0  0
 29 30  2  0  0  0  0
 29 31  1  0  0  0  0
 31 32  1  0  0  0  0
 31 39  1  0  0  0  0
 31104  1  1  0  0  0
 32 33  1  0  0  0  0
 32105  1  0  0  0  0
 32106  1  0  0  0  0
 33 34  2  0  0  0  0
 34 35  1  0  0  0  0
 34107  1  0  0  0  0
 35 36  2  0  0  0  0
 35108  1  0  0  0  0
 36 37  1  0  0  0  0
 36109  1  0  0  0  0
 37 38  2  0  0  0  0
 37110  1  0  0  0  0
 38 33  1  0  0  0  0
 38111  1  0  0  0  0
 39 40  1  0  0  0  0
 40 41  2  0  0  0  0
 40 42  1  0  0  0  0
 42 43  1  0  0  0  0
 42 46  1  0  0  0  0
 42112  1  6  0  0  0
 43 44  1  0  0  0  0
 43 45  1  0  0  0  0
 43113  1  0  0  0  0
 44114  1  0  0  0  0
 44115  1  0  0  0  0
 44116  1  0  0  0  0
 45117  1  0  0  0  0
 45118  1  0  0  0  0
 45119  1  0  0  0  0
 46 47  1  0  0  0  0
 46 48  1  0  0  0  0
 47120  1  0  0  0  0
 47121  1  0  0  0  0
 47122  1  0  0  0  0
 48 49  2  0  0  0  0
 48 50  1  0  0  0  0
 50 51  1  0  0  0  0
 50 52  1  0  0  0  0
 50123  1  6  0  0  0
 51124  1  0  0  0  0
 51125  1  0  0  0  0
 51126  1  0  0  0  0
 52 53  1  0  0  0  0
 52 54  1  0  0  0  0
 53127  1  0  0  0  0
 53128  1  0  0  0  0
 53129  1  0  0  0  0
 54 55  2  0  0  0  0
 54 56  1  0  0  0  0
 56 57  1  0  0  0  0
 56 58  1  0  0  0  0
 56130  1  1  0  0  0
 57131  1  0  0  0  0
 57132  1  0  0  0  0
 57133  1  0  0  0  0
 58 59  1  0  0  0  0
 58 60  1  0  0  0  0
 59134  1  0  0  0  0
 59135  1  0  0  0  0
 59136  1  0  0  0  0
 60 61  2  0  0  0  0
 60 62  1  0  0  0  0
 62 63  1  0  0  0  0
 62 67  1  0  0  0  0
 62137  1  6  0  0  0
 63 64  1  0  0  0  0
 63 65  1  0  0  0  0
 63138  1  1  0  0  0
 64139  1  0  0  0  0
 64140  1  0  0  0  0
 64141  1  0  0  0  0
 65 66  1  0  0  0  0
 65142  1  0  0  0  0
 65143  1  0  0  0  0
 66144  1  0  0  0  0
 66145  1  0  0  0  0
 66146  1  0  0  0  0
 67 68  1  0  0  0  0
 67147  1  0  0  0  0
 68 69  2  0  0  0  0
 68 70  1  0  0  0  0
 70 71  1  0  0  0  0
 70 72  1  0  0  0  0
 70  6  1  0  0  0  0
 71148  1  0  0  0  0
 71149  1  0  0  0  0
 71150  1  0  0  0  0
 72151  1  0  0  0  0
 72152  1  0  0  0  0
 72153  1  0  0  0  0
M  END
>  <IDENTIFIER>
CNP0250655.2

>  <Energy>
1834.85

$$$$
