
 OpenBabel09072510383D

135146  0  0  0  0  0  0  0  0999 V2000
   14.1920    0.6359   -1.0877 C   0  0  0  0  0  0  0  0  0  0  0  0
   13.8422   -0.6174   -1.4229 C   0  0  0  0  0  0  0  0  0  0  0  0
   14.5754   -1.7863   -0.8755 C   0  0  0  0  0  0  0  0  0  0  0  0
   15.5050   -1.6462   -0.0946 O   0  0  0  0  0  0  0  0  0  0  0  0
   12.6958   -0.8580   -2.3800 C   0  0  0  0  0  0  0  0  0  0  0  0
   11.5474   -1.6235   -1.7027 C   0  0  2  0  0  0  0  0  0  0  0  0
   10.4742   -1.9704   -2.7600 C   0  0  0  0  0  0  0  0  0  0  0  0
    9.2768   -2.6805   -2.0913 C   0  0  2  0  0  0  0  0  0  0  0  0
    8.1780   -2.6513   -2.9714 O   0  0  0  0  0  0  0  0  0  0  0  0
    8.9264   -2.0794   -0.6773 C   0  0  2  0  0  0  0  0  0  0  0  0
    9.4223   -3.0576    0.4253 C   0  0  0  0  0  0  0  0  0  0  0  0
    7.5091   -1.9605   -0.5884 O   0  0  0  0  0  0  0  0  0  0  0  0
    7.0403   -1.1844    0.5084 C   0  0  2  0  0  0  0  0  0  0  0  0
    5.5489   -0.9963    0.2991 C   0  0  0  0  0  0  0  0  0  0  0  0
    4.9064   -0.0326    1.3053 C   0  0  2  0  0  0  0  0  0  0  0  0
    3.6092    0.1372    0.7697 O   0  0  0  0  0  0  0  0  0  0  0  0
    2.6926    0.8703    1.5411 C   0  0  2  0  0  0  0  0  0  0  0  0
    1.4712   -0.0290    1.8473 C   0  0  0  0  0  0  0  0  0  0  0  0
    0.2764    0.7863    2.4208 C   0  0  2  0  0  0  0  0  0  0  0  0
    0.6641    1.4103    3.7907 C   0  0  0  0  0  0  0  0  0  0  0  0
   -0.8168   -0.1317    2.5944 O   0  0  0  0  0  0  0  0  0  0  0  0
   -2.1716    0.3477    2.4762 C   0  0  2  0  0  0  0  0  0  0  0  0
   -2.6384    1.0568    3.7809 C   0  0  0  0  0  0  0  0  0  0  0  0
   -3.0426   -0.9408    2.3034 C   0  0  0  0  0  0  0  0  0  0  0  0
   -4.5892   -0.7876    2.3802 C   0  0  0  0  0  0  0  0  0  0  0  0
   -5.3379   -0.0339    1.2408 C   0  0  2  0  0  0  0  0  0  0  0  0
   -6.1103   -0.9972    0.5308 O   0  0  0  0  0  0  0  0  0  0  0  0
   -7.2133   -0.3828   -0.1033 C   0  0  2  0  0  0  0  0  0  0  0  0
   -8.5235   -1.1354    0.1759 C   0  0  0  0  0  0  0  0  0  0  0  0
   -9.7020   -0.4851   -0.6052 C   0  0  2  0  0  0  0  0  0  0  0  0
   -9.9985    0.9443   -0.0429 C   0  0  0  0  0  0  0  0  0  0  0  0
  -10.8433   -1.3299   -0.4388 O   0  0  0  0  0  0  0  0  0  0  0  0
  -11.9373   -0.9545   -1.2729 C   0  0  2  0  0  0  0  0  0  0  0  0
  -13.1369   -1.8640   -1.0466 C   0  0  0  0  0  0  0  0  0  0  0  0
  -13.3779   -2.5267    0.2850 C   0  0  0  0  0  0  0  0  0  0  0  0
  -14.0468   -2.0058   -2.0348 C   0  0  0  0  0  0  0  0  0  0  0  0
  -13.8212   -1.3207   -3.3312 C   0  0  0  0  0  0  0  0  0  0  0  0
  -14.6910   -1.3135   -4.1865 O   0  0  0  0  0  0  0  0  0  0  0  0
  -12.6404   -0.6855   -3.5522 O   0  0  0  0  0  0  0  0  0  0  0  0
  -11.5429   -0.9883   -2.7662 C   0  0  1  0  0  0  0  0  0  0  0  0
  -10.3774   -0.0237   -3.0195 C   0  0  0  0  0  0  0  0  0  0  0  0
   -9.2369   -0.4571   -2.0945 C   0  0  1  0  0  0  0  0  0  0  0  0
   -8.0799    0.3682   -2.2371 O   0  0  0  0  0  0  0  0  0  0  0  0
   -6.9743   -0.2887   -1.6184 C   0  0  1  0  0  0  0  0  0  0  0  0
   -5.6277    0.3881   -1.9860 C   0  0  0  0  0  0  0  0  0  0  0  0
   -4.9808    1.4153   -1.0059 C   0  0  1  0  0  0  0  0  0  0  0  0
   -5.8175    2.6828   -0.7725 C   0  0  0  0  0  0  0  0  0  0  0  0
   -4.3960    0.7333    0.2834 C   0  0  1  0  0  0  0  0  0  0  0  0
   -3.6580    1.6979    1.0393 O   0  0  0  0  0  0  0  0  0  0  0  0
   -2.3223    1.2714    1.2359 C   0  0  1  0  0  0  0  0  0  0  0  0
   -1.3485    2.4684    1.3486 C   0  0  0  0  0  0  0  0  0  0  0  0
    0.0416    1.8445    1.3187 C   0  0  1  0  0  0  0  0  0  0  0  0
    1.1139    2.7831    1.2973 O   0  0  0  0  0  0  0  0  0  0  0  0
    2.3026    2.1899    0.7465 C   0  0  2  0  0  0  0  0  0  0  0  0
    2.1277    1.9252   -0.7888 C   0  0  0  0  0  0  0  0  0  0  0  0
    3.4567    3.2434    0.8314 C   0  0  0  0  0  0  0  0  0  0  0  0
    4.1846    3.2785    2.1866 C   0  0  2  0  0  0  0  0  0  0  0  0
    5.5528    3.6225    2.0917 O   0  0  0  0  0  0  0  0  0  0  0  0
    5.2703    2.2774    2.4334 C   0  0  2  0  0  0  0  0  0  0  0  0
    5.7602    1.2811    1.3451 C   0  0  1  0  0  0  0  0  0  0  0  0
    7.1227    0.9665    1.6287 O   0  0  0  0  0  0  0  0  0  0  0  0
    7.6689    0.2221    0.5484 C   0  0  1  0  0  0  0  0  0  0  0  0
    9.1853    0.0789    0.6693 C   0  0  0  0  0  0  0  0  0  0  0  0
    9.6436   -0.6919   -0.5746 C   0  0  1  0  0  0  0  0  0  0  0  0
   11.0591   -0.8433   -0.5961 O   0  0  0  0  0  0  0  0  0  0  0  0
   15.0140    0.8279   -0.4053 H   0  0  0  0  0  0  0  0  0  0  0  0
   13.6589    1.4926   -1.4884 H   0  0  0  0  0  0  0  0  0  0  0  0
   14.2916   -2.7893   -1.1767 H   0  0  0  0  0  0  0  0  0  0  0  0
   13.0841   -1.4354   -3.2474 H   0  0  0  0  0  0  0  0  0  0  0  0
   12.2926    0.1049   -2.7670 H   0  0  0  0  0  0  0  0  0  0  0  0
   11.9332   -2.5878   -1.3118 H   0  0  0  0  0  0  0  0  0  0  0  0
   10.8723   -2.5895   -3.5932 H   0  0  0  0  0  0  0  0  0  0  0  0
   10.1333   -1.0136   -3.2147 H   0  0  0  0  0  0  0  0  0  0  0  0
    9.5392   -3.7532   -1.9598 H   0  0  0  0  0  0  0  0  0  0  0  0
    7.9096   -1.7012   -3.0881 H   0  0  0  0  0  0  0  0  0  0  0  0
    8.9054   -4.0354    0.3174 H   0  0  0  0  0  0  0  0  0  0  0  0
    9.2174   -2.6885    1.4476 H   0  0  0  0  0  0  0  0  0  0  0  0
   10.5125   -3.2397    0.3547 H   0  0  0  0  0  0  0  0  0  0  0  0
    7.1955   -1.7147    1.4734 H   0  0  0  0  0  0  0  0  0  0  0  0
    5.0262   -1.9783    0.3156 H   0  0  0  0  0  0  0  0  0  0  0  0
    5.4147   -0.5626   -0.7202 H   0  0  0  0  0  0  0  0  0  0  0  0
    4.8881   -0.5212    2.3064 H   0  0  0  0  0  0  0  0  0  0  0  0
    3.0699    1.1010    2.5534 H   0  0  0  0  0  0  0  0  0  0  0  0
    1.7673   -0.8510    2.5375 H   0  0  0  0  0  0  0  0  0  0  0  0
    1.1430   -0.5148    0.9012 H   0  0  0  0  0  0  0  0  0  0  0  0
    0.8814    0.6065    4.5252 H   0  0  0  0  0  0  0  0  0  0  0  0
   -0.1027    2.0659    4.2148 H   0  0  0  0  0  0  0  0  0  0  0  0
    1.5514    2.0682    3.7242 H   0  0  0  0  0  0  0  0  0  0  0  0
   -2.5353    0.3762    4.6523 H   0  0  0  0  0  0  0  0  0  0  0  0
   -3.6921    1.3890    3.7022 H   0  0  0  0  0  0  0  0  0  0  0  0
   -2.1190    1.9904    4.0103 H   0  0  0  0  0  0  0  0  0  0  0  0
   -2.7738   -1.6181    3.1453 H   0  0  0  0  0  0  0  0  0  0  0  0
   -2.7568   -1.4789    1.3727 H   0  0  0  0  0  0  0  0  0  0  0  0
   -4.8752   -0.3558    3.3591 H   0  0  0  0  0  0  0  0  0  0  0  0
   -5.0161   -1.8134    2.4442 H   0  0  0  0  0  0  0  0  0  0  0  0
   -5.9899    0.6947    1.7792 H   0  0  0  0  0  0  0  0  0  0  0  0
   -7.3975    0.6231    0.2810 H   0  0  0  0  0  0  0  0  0  0  0  0
   -8.7376   -1.1560    1.2669 H   0  0  0  0  0  0  0  0  0  0  0  0
   -8.3982   -2.1889   -0.1623 H   0  0  0  0  0  0  0  0  0  0  0  0
  -10.2601    0.8792    1.0338 H   0  0  0  0  0  0  0  0  0  0  0  0
  -10.8252    1.4591   -0.5623 H   0  0  0  0  0  0  0  0  0  0  0  0
   -9.1528    1.6453   -0.1615 H   0  0  0  0  0  0  0  0  0  0  0  0
  -12.3158    0.0529   -1.0113 H   0  0  0  0  0  0  0  0  0  0  0  0
  -12.5810   -2.2816    1.0172 H   0  0  0  0  0  0  0  0  0  0  0  0
  -13.4154   -3.6284    0.1585 H   0  0  0  0  0  0  0  0  0  0  0  0
  -14.3438   -2.1745    0.7062 H   0  0  0  0  0  0  0  0  0  0  0  0
  -14.9445   -2.5990   -1.8824 H   0  0  0  0  0  0  0  0  0  0  0  0
  -11.2177   -2.0266   -3.0130 H   0  0  0  0  0  0  0  0  0  0  0  0
  -10.6837    1.0226   -2.8115 H   0  0  0  0  0  0  0  0  0  0  0  0
  -10.0530   -0.0872   -4.0810 H   0  0  0  0  0  0  0  0  0  0  0  0
   -9.0059   -1.5014   -2.4237 H   0  0  0  0  0  0  0  0  0  0  0  0
   -6.8805   -1.3100   -2.0624 H   0  0  0  0  0  0  0  0  0  0  0  0
   -5.7196    0.8126   -3.0099 H   0  0  0  0  0  0  0  0  0  0  0  0
   -4.8712   -0.4234   -2.0840 H   0  0  0  0  0  0  0  0  0  0  0  0
   -4.0765    1.7766   -1.5485 H   0  0  0  0  0  0  0  0  0  0  0  0
   -6.7525    2.5201   -0.2181 H   0  0  0  0  0  0  0  0  0  0  0  0
   -6.0772    3.1371   -1.7526 H   0  0  0  0  0  0  0  0  0  0  0  0
   -5.2190    3.4244   -0.2033 H   0  0  0  0  0  0  0  0  0  0  0  0
   -3.7693   -0.0791   -0.1510 H   0  0  0  0  0  0  0  0  0  0  0  0
   -1.9752    0.7120    0.3339 H   0  0  0  0  0  0  0  0  0  0  0  0
   -1.5147    3.0913    2.2490 H   0  0  0  0  0  0  0  0  0  0  0  0
   -1.4665    3.1272    0.4603 H   0  0  0  0  0  0  0  0  0  0  0  0
   -0.0076    1.3258    0.3501 H   0  0  0  0  0  0  0  0  0  0  0  0
    1.8087    2.8571   -1.3025 H   0  0  0  0  0  0  0  0  0  0  0  0
    1.4301    1.1117   -1.0568 H   0  0  0  0  0  0  0  0  0  0  0  0
    3.0899    1.6008   -1.2415 H   0  0  0  0  0  0  0  0  0  0  0  0
    3.0651    4.2530    0.5818 H   0  0  0  0  0  0  0  0  0  0  0  0
    4.2025    3.0691    0.0406 H   0  0  0  0  0  0  0  0  0  0  0  0
    3.6941    3.6835    3.0970 H   0  0  0  0  0  0  0  0  0  0  0  0
    5.4789    2.0644    3.5036 H   0  0  0  0  0  0  0  0  0  0  0  0
    5.7199    1.7616    0.3508 H   0  0  0  0  0  0  0  0  0  0  0  0
    7.4842    0.7582   -0.4147 H   0  0  0  0  0  0  0  0  0  0  0  0
    9.4629   -0.4469    1.6070 H   0  0  0  0  0  0  0  0  0  0  0  0
    9.6599    1.0840    0.6841 H   0  0  0  0  0  0  0  0  0  0  0  0
    9.3410   -0.0432   -1.4288 H   0  0  0  0  0  0  0  0  0  0  0  0
  1  2  2  0  0  0  0
  1 66  1  0  0  0  0
  1 67  1  0  0  0  0
  2  3  1  0  0  0  0
  2  5  1  0  0  0  0
  3  4  2  0  0  0  0
  3 68  1  0  0  0  0
  5 69  1  0  0  0  0
  5 70  1  0  0  0  0
  6  5  1  0  0  0  0
  6  7  1  0  0  0  0
  6 71  1  1  0  0  0
  7  8  1  0  0  0  0
  7 72  1  0  0  0  0
  7 73  1  0  0  0  0
  8  9  1  0  0  0  0
  8 10  1  0  0  0  0
  8 74  1  1  0  0  0
  9 75  1  0  0  0  0
 10 11  1  1  0  0  0
 10 12  1  0  0  0  0
 11 76  1  0  0  0  0
 11 77  1  0  0  0  0
 11 78  1  0  0  0  0
 12 13  1  0  0  0  0
 13 14  1  0  0  0  0
 13 79  1  1  0  0  0
 14 80  1  0  0  0  0
 14 81  1  0  0  0  0
 15 14  1  0  0  0  0
 15 16  1  0  0  0  0
 15 82  1  1  0  0  0
 16 17  1  0  0  0  0
 17 18  1  0  0  0  0
 17 83  1  1  0  0  0
 18 19  1  0  0  0  0
 18 84  1  0  0  0  0
 18 85  1  0  0  0  0
 19 20  1  1  0  0  0
 19 21  1  0  0  0  0
 20 86  1  0  0  0  0
 20 87  1  0  0  0  0
 20 88  1  0  0  0  0
 21 22  1  0  0  0  0
 22 23  1  1  0  0  0
 22 24  1  0  0  0  0
 23 89  1  0  0  0  0
 23 90  1  0  0  0  0
 23 91  1  0  0  0  0
 24 25  1  0  0  0  0
 24 92  1  0  0  0  0
 24 93  1  0  0  0  0
 25 94  1  0  0  0  0
 25 95  1  0  0  0  0
 26 25  1  0  0  0  0
 26 27  1  0  0  0  0
 26 96  1  1  0  0  0
 27 28  1  0  0  0  0
 28 29  1  0  0  0  0
 28 97  1  1  0  0  0
 29 30  1  0  0  0  0
 29 98  1  0  0  0  0
 29 99  1  0  0  0  0
 30 31  1  1  0  0  0
 30 32  1  0  0  0  0
 31100  1  0  0  0  0
 31101  1  0  0  0  0
 31102  1  0  0  0  0
 33 32  1  0  0  0  0
 33 34  1  0  0  0  0
 33103  1  1  0  0  0
 34 35  1  0  0  0  0
 34 36  2  0  0  0  0
 35104  1  0  0  0  0
 35105  1  0  0  0  0
 35106  1  0  0  0  0
 36 37  1  0  0  0  0
 36107  1  0  0  0  0
 37 38  2  0  0  0  0
 37 39  1  0  0  0  0
 39 40  1  0  0  0  0
 40 41  1  0  0  0  0
 40 33  1  0  0  0  0
 40108  1  6  0  0  0
 41109  1  0  0  0  0
 41110  1  0  0  0  0
 42 41  1  0  0  0  0
 42 43  1  0  0  0  0
 42 30  1  0  0  0  0
 42111  1  6  0  0  0
 43 44  1  0  0  0  0
 44 45  1  0  0  0  0
 44 28  1  0  0  0  0
 44112  1  6  0  0  0
 45 46  1  0  0  0  0
 45113  1  0  0  0  0
 45114  1  0  0  0  0
 46 47  1  0  0  0  0
 46 48  1  0  0  0  0
 46115  1  6  0  0  0
 47116  1  0  0  0  0
 47117  1  0  0  0  0
 47118  1  0  0  0  0
 48 49  1  0  0  0  0
 48 26  1  0  0  0  0
 48119  1  6  0  0  0
 49 50  1  0  0  0  0
 50 51  1  0  0  0  0
 50 22  1  0  0  0  0
 50120  1  6  0  0  0
 51121  1  0  0  0  0
 51122  1  0  0  0  0
 52 51  1  0  0  0  0
 52 53  1  0  0  0  0
 52 19  1  0  0  0  0
 52123  1  6  0  0  0
 53 54  1  0  0  0  0
 54 55  1  6  0  0  0
 54 56  1  0  0  0  0
 54 17  1  0  0  0  0
 55124  1  0  0  0  0
 55125  1  0  0  0  0
 55126  1  0  0  0  0
 56127  1  0  0  0  0
 56128  1  0  0  0  0
 57 56  1  0  0  0  0
 57 58  1  0  0  0  0
 57129  1  1  0  0  0
 59 58  1  0  0  0  0
 59 60  1  0  0  0  0
 59 57  1  0  0  0  0
 59130  1  1  0  0  0
 60 61  1  0  0  0  0
 60 15  1  0  0  0  0
 60131  1  6  0  0  0
 61 62  1  0  0  0  0
 62 63  1  0  0  0  0
 62 13  1  0  0  0  0
 62132  1  6  0  0  0
 63133  1  0  0  0  0
 63134  1  0  0  0  0
 64 63  1  0  0  0  0
 64 65  1  0  0  0  0
 64 10  1  0  0  0  0
 64135  1  6  0  0  0
 65  6  1  0  0  0  0
M  END
>  <IDENTIFIER>
CNP0122974.1

>  <Energy>
3210.73

$$$$
