
 OpenBabel09082522482D

194193  0  0  0  0  0  0  0  0999 V2000
   11.2500    1.2990    0.0000 C   0  0  0  0  0  0  0  0  0  0  0  0
    9.7500    1.2990    0.0000 C   0  0  0  0  0  2  0  0  0  0  0  0
    8.2500    1.2990    0.0000 C   0  0  0  0  0  2  0  0  0  0  0  0
    6.7500    1.2990    0.0000 C   0  0  0  0  0  2  0  0  0  0  0  0
    5.2500    1.2990    0.0000 C   0  0  0  0  0  2  0  0  0  0  0  0
    3.7500    1.2990    0.0000 C   0  0  0  0  0  2  0  0  0  0  0  0
    2.2500    1.2990    0.0000 C   0  0  0  0  0  0  0  0  0  0  0  0
    1.9717   -0.1068   -0.0147 C   0  0  0  0  0  0  0  0  0  0  0  0
    3.1702   -1.2469   -0.0477 C   0  0  0  0  0  0  0  0  0  0  0  0
    3.1290   -2.8444   -0.0324 C   0  0  0  0  0  0  0  0  0  0  0  0
    4.5888   -3.5999   -0.0855 C   0  0  0  0  0  0  0  0  0  0  0  0
    4.5000   -5.1962    0.0000 C   0  0  0  0  0  0  0  0  0  0  0  0
    5.2500   -6.4952    0.0000 C   0  0  0  0  0  0  0  0  0  0  0  0
    6.0000   -7.7942    0.0000 C   0  0  0  0  0  0  0  0  0  0  0  0
    6.7500   -9.0933    0.0000 C   0  0  0  0  0  0  0  0  0  0  0  0
    7.5000  -10.3923    0.0000 C   0  0  0  0  0  0  0  0  0  0  0  0
    8.2500  -11.6913    0.0000 C   0  0  0  0  0  0  0  0  0  0  0  0
    8.0161  -13.2996    0.0707 C   0  0  0  0  0  0  0  0  0  0  0  0
    9.4459  -14.0517   -0.0915 C   0  0  0  0  0  0  0  0  0  0  0  0
   10.2077  -15.4631   -0.1570 C   0  0  0  0  0  0  0  0  0  0  0  0
   11.4086  -15.2883   -0.3416 O   0  0  0  0  0  0  0  0  0  0  0  0
    9.7918  -16.8236   -0.0396 O   0  0  0  0  0  0  0  0  0  0  0  0
   10.7522  -17.8579   -0.1277 C   0  0  0  0  0  0  0  0  0  0  0  0
   11.2500  -19.4856    0.0000 C   0  0  1  0  0  0  0  0  0  0  0  0
    9.9510  -20.2356    0.0000 C   0  0  0  0  0  0  0  0  0  0  0  0
    9.0155  -19.5086    0.8148 O   0  0  0  0  0  0  0  0  0  0  0  0
    7.3962  -20.1974    0.9044 P   0  0  3  0  0  0  0  0  0  0  0  0
    7.4953  -21.6689    0.4174 O   0  0  0  0  0  0  0  0  0  0  0  0
    6.9373  -20.3557    2.5705 O   0  0  0  0  0  0  0  0  0  0  0  0
    6.0538  -19.4856    0.0000 O   0  0  0  0  0  0  0  0  0  0  0  0
    6.0538  -17.9856    0.0000 C   0  0  0  0  0  2  0  0  0  0  0  0
    6.0538  -16.4856    0.0000 C   0  0  3  0  0  0  0  0  0  0  0  0
    7.5538  -16.4856    0.0000 O   0  0  0  0  0  0  0  0  0  0  0  0
    4.5538  -16.4856    0.0000 C   0  0  0  0  0  2  0  0  0  0  0  0
    3.0538  -16.4856    0.0000 O   0  0  0  0  0  0  0  0  0  0  0  0
    2.3038  -17.7846    0.0000 P   0  0  3  0  0  0  0  0  0  0  0  0
    3.1231  -18.3185   -1.2108 O   0  0  0  0  0  0  0  0  0  0  0  0
    1.1585  -17.0068   -1.0674 O   0  0  0  0  0  0  0  0  0  0  0  0
    1.5538  -19.0836    0.0000 O   0  0  0  0  0  0  0  0  0  0  0  0
    0.0538  -19.0836    0.0000 C   0  0  0  0  0  2  0  0  0  0  0  0
   -1.4462  -19.0836    0.0000 C   0  0  1  0  0  0  0  0  0  0  0  0
   -1.4462  -20.5836    0.0000 C   0  0  0  0  0  2  0  0  0  0  0  0
   -1.4462  -22.0836    0.0000 O   0  0  0  0  0  0  0  0  0  0  0  0
   -2.7452  -22.8336    0.0000 C   0  0  0  0  0  0  0  0  0  0  0  0
   -3.5637  -22.5785    0.8715 O   0  0  0  0  0  0  0  0  0  0  0  0
   -2.7452  -24.3336    0.0000 C   0  0  0  0  0  2  0  0  0  0  0  0
   -2.7452  -25.8336    0.0000 C   0  0  0  0  0  2  0  0  0  0  0  0
   -2.7452  -27.3336    0.0000 C   0  0  0  0  0  2  0  0  0  0  0  0
   -2.7452  -28.8336    0.0000 C   0  0  0  0  0  2  0  0  0  0  0  0
   -2.7452  -30.3336    0.0000 C   0  0  0  0  0  2  0  0  0  0  0  0
   -2.7452  -31.8336    0.0000 C   0  0  0  0  0  2  0  0  0  0  0  0
   -2.7452  -33.3336    0.0000 C   0  0  0  0  0  2  0  0  0  0  0  0
   -2.7452  -34.8336    0.0000 C   0  0  0  0  0  2  0  0  0  0  0  0
   -2.7452  -36.3336    0.0000 C   0  0  0  0  0  2  0  0  0  0  0  0
   -2.7452  -37.8336    0.0000 C   0  0  0  0  0  2  0  0  0  0  0  0
   -2.7452  -39.3336    0.0000 C   0  0  0  0  0  2  0  0  0  0  0  0
   -2.7452  -40.8336    0.0000 C   0  0  0  0  0  2  0  0  0  0  0  0
   -2.7452  -42.3336    0.0000 C   0  0  0  0  0  2  0  0  0  0  0  0
   -2.7452  -43.8336    0.0000 C   0  0  0  0  0  2  0  0  0  0  0  0
   -2.7452  -45.3336    0.0000 C   0  0  0  0  0  0  0  0  0  0  0  0
   -2.9462  -19.0836    0.0000 O   0  0  0  0  0  0  0  0  0  0  0  0
   -3.6962  -20.3827    0.0000 C   0  0  0  0  0  0  0  0  0  0  0  0
   -3.5245  -20.8779   -1.1234 O   0  0  0  0  0  0  0  0  0  0  0  0
   -5.1962  -20.3827    0.0000 C   0  0  0  0  0  2  0  0  0  0  0  0
   -6.6962  -20.3827    0.0000 C   0  0  0  0  0  2  0  0  0  0  0  0
   -8.1962  -20.3827    0.0000 C   0  0  0  0  0  2  0  0  0  0  0  0
   -9.6962  -20.3827    0.0000 C   0  0  0  0  0  2  0  0  0  0  0  0
  -11.1962  -20.3827    0.0000 C   0  0  0  0  0  2  0  0  0  0  0  0
  -12.6962  -20.3827    0.0000 C   0  0  0  0  0  2  0  0  0  0  0  0
  -14.1962  -20.3827    0.0000 C   0  0  0  0  0  2  0  0  0  0  0  0
  -15.6962  -20.3827    0.0000 C   0  0  0  0  0  2  0  0  0  0  0  0
  -17.1962  -20.3827    0.0000 C   0  0  0  0  0  2  0  0  0  0  0  0
  -18.6962  -20.3827    0.0000 C   0  0  0  0  0  0  0  0  0  0  0  0
  -19.3378  -21.5701    0.1625 C   0  0  0  0  0  0  0  0  0  0  0  0
  -18.6962  -22.9808    0.0000 C   0  0  0  0  0  0  0  0  0  0  0  0
  -17.9462  -24.2798    0.0000 C   0  0  0  0  0  0  0  0  0  0  0  0
  -17.1962  -25.5788    0.0000 C   0  0  0  0  0  0  0  0  0  0  0  0
  -16.8797  -27.2274    0.0598 C   0  0  0  0  0  0  0  0  0  0  0  0
  -15.2934  -27.8321   -0.0529 C   0  0  0  0  0  0  0  0  0  0  0  0
  -14.9462  -29.4760    0.0000 C   0  0  0  0  0  0  0  0  0  0  0  0
  -14.1962  -30.7750    0.0000 C   0  0  0  0  0  2  0  0  0  0  0  0
  -13.4462  -32.0740    0.0000 C   0  0  0  0  0  0  0  0  0  0  0  0
   12.5490  -18.7356    0.0000 O   0  0  0  0  0  0  0  0  0  0  0  0
   13.9251  -18.9062    0.0361 C   0  0  0  0  0  0  0  0  0  0  0  0
   14.3867  -20.0356    0.0766 O   0  0  0  0  0  0  0  0  0  0  0  0
   14.9000  -17.6398    0.0027 C   0  0  0  0  0  0  0  0  0  0  0  0
   16.4462  -17.9856    0.0000 C   0  0  0  0  0  0  0  0  0  0  0  0
   17.7452  -17.2356    0.0000 C   0  0  0  0  0  2  0  0  0  0  0  0
   19.0442  -16.4856    0.0000 C   0  0  0  0  0  0  0  0  0  0  0  0
   20.3433  -15.7356    0.0000 C   0  0  0  0  0  0  0  0  0  0  0  0
   21.6423  -14.9856    0.0000 C   0  0  0  0  0  2  0  0  0  0  0  0
   22.9413  -14.2356    0.0000 C   0  0  0  0  0  0  0  0  0  0  0  0
   24.5885  -13.9036   -0.0031 C   0  0  0  0  0  0  0  0  0  0  0  0
   25.1910  -12.3145    0.0031 C   0  0  0  0  0  0  0  0  0  0  0  0
   26.8385  -11.9856    0.0000 C   0  0  0  0  0  0  0  0  0  0  0  0
   28.1375  -11.2356    0.0000 C   0  0  0  0  0  2  0  0  0  0  0  0
   29.4365  -10.4856    0.0000 C   0  0  0  0  0  0  0  0  0  0  0  0
   29.4365   -8.9856    0.0000 C   0  0  0  0  0  0  0  0  0  0  0  0
   28.1375   -8.2356    0.0000 C   0  0  0  0  0  2  0  0  0  0  0  0
   26.8385   -7.4856    0.0000 C   0  0  0  0  0  0  0  0  0  0  0  0
   25.1910   -7.1566    0.0070 C   0  0  0  0  0  0  0  0  0  0  0  0
   24.5885   -5.5676   -0.0070 C   0  0  0  0  0  0  0  0  0  0  0  0
   22.9413   -5.2356    0.0000 C   0  0  0  0  0  0  0  0  0  0  0  0
   21.6423   -4.4856    0.0000 C   0  0  0  0  0  2  0  0  0  0  0  0
   20.3433   -3.7356    0.0000 C   0  0  0  0  0  0  0  0  0  0  0  0
   19.0442   -2.9856    0.0000 C   0  0  0  0  0  0  0  0  0  0  0  0
   11.3302    0.3928    0.6350 H   0  0  0  0  0  0  0  0  0  0  0  0
   11.3302    2.2045    0.6360 H   0  0  0  0  0  0  0  0  0  0  0  0
   12.3200    1.2990    0.0000 H   0  0  0  0  0  0  0  0  0  0  0  0
    1.5471    2.1244    0.0230 H   0  0  0  0  0  0  0  0  0  0  0  0
    0.9394   -0.4390   -0.0035 H   0  0  0  0  0  0  0  0  0  0  0  0
    3.7549   -1.0307   -0.9687 H   0  0  0  0  0  0  0  0  0  0  0  0
    3.8037   -1.0362    0.8415 H   0  0  0  0  0  0  0  0  0  0  0  0
    2.5250   -3.1860   -0.8996 H   0  0  0  0  0  0  0  0  0  0  0  0
    2.6056   -3.1569    0.8959 H   0  0  0  0  0  0  0  0  0  0  0  0
    5.2087   -3.2419    0.7634 H   0  0  0  0  0  0  0  0  0  0  0  0
    5.0987   -3.3204   -1.0316 H   0  0  0  0  0  0  0  0  0  0  0  0
    3.7497   -5.3853   -0.8065 H   0  0  0  0  0  0  0  0  0  0  0  0
    3.8880   -5.3024    0.9310 H   0  0  0  0  0  0  0  0  0  0  0  0
    5.8559   -5.9748    0.8105 H   0  0  0  0  0  0  0  0  0  0  0  0
    5.6378   -6.2573   -1.0257 H   0  0  0  0  0  0  0  0  0  0  0  0
    5.6686   -7.9645    1.0699 H   0  0  0  0  0  0  0  0  0  0  0  0
    7.0315   -7.3054    0.0459 H   0  0  0  0  0  0  0  0  0  0  0  0
    7.0810   -8.9222   -1.0699 H   0  0  0  0  0  0  0  0  0  0  0  0
    5.7185   -9.5823   -0.0439 H   0  0  0  0  0  0  0  0  0  0  0  0
    7.1153  -10.6309    1.0262 H   0  0  0  0  0  0  0  0  0  0  0  0
    6.8933  -10.9106   -0.8115 H   0  0  0  0  0  0  0  0  0  0  0  0
    9.0062  -11.5273    0.8054 H   0  0  0  0  0  0  0  0  0  0  0  0
    8.8536  -11.5885   -0.9363 H   0  0  0  0  0  0  0  0  0  0  0  0
    7.5501  -13.5689    1.0419 H   0  0  0  0  0  0  0  0  0  0  0  0
    7.3411  -13.6106   -0.7538 H   0  0  0  0  0  0  0  0  0  0  0  0
    9.7865  -13.6175   -1.0569 H   0  0  0  0  0  0  0  0  0  0  0  0
   10.0258  -13.5625    0.7217 H   0  0  0  0  0  0  0  0  0  0  0  0
   11.1375  -17.6123   -1.1606 H   0  0  0  0  0  0  0  0  0  0  0  0
   11.2406  -17.4293    0.8140 H   0  0  0  0  0  0  0  0  0  0  0  0
   11.3494  -19.7625    1.0765 H   0  0  0  0  0  0  0  0  0  0  0  0
   10.0763  -21.2916    0.3410 H   0  0  0  0  0  0  0  0  0  0  0  0
    9.5744  -20.2400   -1.0459 H   0  0  0  0  0  0  0  0  0  0  0  0
    6.8337  -19.4226    2.8885 H   0  0  0  0  0  0  0  0  0  0  0  0
    5.9902  -16.0983    1.0378 H   0  0  0  0  0  0  0  0  0  0  0  0
    7.7436  -16.1137   -0.9022 H   0  0  0  0  0  0  0  0  0  0  0  0
    0.5680  -16.4695   -0.4778 H   0  0  0  0  0  0  0  0  0  0  0  0
   -1.3758  -18.6904    1.0351 H   0  0  0  0  0  0  0  0  0  0  0  0
   -3.6510  -45.4138    0.6355 H   0  0  0  0  0  0  0  0  0  0  0  0
   -1.8394  -45.4138    0.6355 H   0  0  0  0  0  0  0  0  0  0  0  0
   -2.7452  -46.4036    0.0000 H   0  0  0  0  0  0  0  0  0  0  0  0
  -19.2388  -19.4450    0.0656 H   0  0  0  0  0  0  0  0  0  0  0  0
  -20.4195  -21.4892    0.2935 H   0  0  0  0  0  0  0  0  0  0  0  0
  -19.7368  -23.4200    0.0364 H   0  0  0  0  0  0  0  0  0  0  0  0
  -18.4040  -22.7395   -1.0524 H   0  0  0  0  0  0  0  0  0  0  0  0
  -18.5741  -24.7643   -0.8103 H   0  0  0  0  0  0  0  0  0  0  0  0
  -18.3386  -24.5194    1.0249 H   0  0  0  0  0  0  0  0  0  0  0  0
  -16.6195  -25.4108   -0.9447 H   0  0  0  0  0  0  0  0  0  0  0  0
  -16.4536  -25.3195    0.7952 H   0  0  0  0  0  0  0  0  0  0  0  0
  -17.2993  -27.6019    1.0171 H   0  0  0  0  0  0  0  0  0  0  0  0
  -17.4621  -27.6968   -0.7608 H   0  0  0  0  0  0  0  0  0  0  0  0
  -14.7155  -27.3595    0.7690 H   0  0  0  0  0  0  0  0  0  0  0  0
  -14.8755  -27.4505   -1.0081 H   0  0  0  0  0  0  0  0  0  0  0  0
  -15.6442  -29.7656   -0.8131 H   0  0  0  0  0  0  0  0  0  0  0  0
  -15.4879  -29.6759    0.9480 H   0  0  0  0  0  0  0  0  0  0  0  0
  -14.1921  -32.5969    0.6332 H   0  0  0  0  0  0  0  0  0  0  0  0
  -12.6232  -31.6911    0.6378 H   0  0  0  0  0  0  0  0  0  0  0  0
  -12.9112  -33.0006    0.0000 H   0  0  0  0  0  0  0  0  0  0  0  0
   14.6768  -17.0507   -0.9114 H   0  0  0  0  0  0  0  0  0  0  0  0
   14.6794  -17.0077    0.8883 H   0  0  0  0  0  0  0  0  0  0  0  0
   16.5658  -18.6394    0.8897 H   0  0  0  0  0  0  0  0  0  0  0  0
   16.5648  -18.6595   -0.8747 H   0  0  0  0  0  0  0  0  0  0  0  0
   18.6750  -15.9299   -0.8959 H   0  0  0  0  0  0  0  0  0  0  0  0
   18.6750  -15.9300    0.8959 H   0  0  0  0  0  0  0  0  0  0  0  0
   20.7124  -16.2912    0.8960 H   0  0  0  0  0  0  0  0  0  0  0  0
   20.7124  -16.2912   -0.8960 H   0  0  0  0  0  0  0  0  0  0  0  0
   22.6944  -13.6072   -0.8811 H   0  0  0  0  0  0  0  0  0  0  0  0
   22.6994  -13.6160    0.8886 H   0  0  0  0  0  0  0  0  0  0  0  0
   25.0177  -14.4102    0.8868 H   0  0  0  0  0  0  0  0  0  0  0  0
   25.0126  -14.4014   -0.9003 H   0  0  0  0  0  0  0  0  0  0  0  0
   24.7675  -11.8161    0.9003 H   0  0  0  0  0  0  0  0  0  0  0  0
   24.7624  -11.8073   -0.8868 H   0  0  0  0  0  0  0  0  0  0  0  0
   27.0798  -12.6055   -0.8886 H   0  0  0  0  0  0  0  0  0  0  0  0
   27.0849  -12.6142    0.8810 H   0  0  0  0  0  0  0  0  0  0  0  0
   30.3747  -11.0296   -0.0000 H   0  0  0  0  0  0  0  0  0  0  0  0
   30.3747   -8.4416   -0.0000 H   0  0  0  0  0  0  0  0  0  0  0  0
   27.0881   -6.8514    0.8761 H   0  0  0  0  0  0  0  0  0  0  0  0
   27.0765   -6.8714   -0.8934 H   0  0  0  0  0  0  0  0  0  0  0  0
   24.7592   -7.6695   -0.8779 H   0  0  0  0  0  0  0  0  0  0  0  0
   24.7709   -7.6493    0.9090 H   0  0  0  0  0  0  0  0  0  0  0  0
   25.0092   -5.0756   -0.9090 H   0  0  0  0  0  0  0  0  0  0  0  0
   25.0210   -5.0553    0.8779 H   0  0  0  0  0  0  0  0  0  0  0  0
   22.7027   -5.8495    0.8935 H   0  0  0  0  0  0  0  0  0  0  0  0
   22.6911   -5.8697   -0.8760 H   0  0  0  0  0  0  0  0  0  0  0  0
   20.7522   -3.1161   -0.8316 H   0  0  0  0  0  0  0  0  0  0  0  0
   20.6673   -3.3705    1.0095 H   0  0  0  0  0  0  0  0  0  0  0  0
   19.4052   -1.9509    0.2491 H   0  0  0  0  0  0  0  0  0  0  0  0
   18.5866   -3.5103    0.8716 H   0  0  0  0  0  0  0  0  0  0  0  0
   18.1175   -2.4506    0.0000 H   0  0  0  0  0  0  0  0  0  0  0  0
  1  2  1  0  0  0  0
  1107  1  0  0  0  0
  1108  1  0  0  0  0
  1109  1  0  0  0  0
  2  3  1  0  0  0  0
  3  4  1  0  0  0  0
  4  5  1  0  0  0  0
  5  6  1  0  0  0  0
  6  7  1  0  0  0  0
  7  8  2  0  0  0  0
  7110  1  0  0  0  0
  8  9  1  0  0  0  0
  8111  1  0  0  0  0
  9 10  1  0  0  0  0
  9112  1  0  0  0  0
  9113  1  0  0  0  0
 10 11  1  0  0  0  0
 10114  1  0  0  0  0
 10115  1  0  0  0  0
 11 12  1  0  0  0  0
 11116  1  0  0  0  0
 11117  1  0  0  0  0
 12 13  1  0  0  0  0
 12118  1  0  0  0  0
 12119  1  0  0  0  0
 13 14  1  0  0  0  0
 13120  1  0  0  0  0
 13121  1  0  0  0  0
 14 15  1  0  0  0  0
 14122  1  0  0  0  0
 14123  1  0  0  0  0
 15 16  1  0  0  0  0
 15124  1  0  0  0  0
 15125  1  0  0  0  0
 16 17  1  0  0  0  0
 16126  1  0  0  0  0
 16127  1  0  0  0  0
 17 18  1  0  0  0  0
 17128  1  0  0  0  0
 17129  1  0  0  0  0
 18 19  1  0  0  0  0
 18130  1  0  0  0  0
 18131  1  0  0  0  0
 19 20  1  0  0  0  0
 19132  1  0  0  0  0
 19133  1  0  0  0  0
 20 21  2  0  0  0  0
 20 22  1  0  0  0  0
 22 23  1  0  0  0  0
 23134  1  0  0  0  0
 23135  1  0  0  0  0
 24 23  1  0  0  0  0
 24 25  1  0  0  0  0
 24 83  1  0  0  0  0
 24136  1  1  0  0  0
 25 26  1  0  0  0  0
 25137  1  0  0  0  0
 25138  1  0  0  0  0
 26 27  1  0  0  0  0
 27 28  2  0  0  0  0
 27 29  1  0  0  0  0
 27 30  1  0  0  0  0
 29139  1  0  0  0  0
 30 31  1  0  0  0  0
 31 32  1  0  0  0  0
 32 33  1  0  0  0  0
 32 34  1  0  0  0  0
 32140  1  0  0  0  0
 33141  1  0  0  0  0
 34 35  1  0  0  0  0
 35 36  1  0  0  0  0
 36 37  2  0  0  0  0
 36 38  1  0  0  0  0
 36 39  1  0  0  0  0
 38142  1  0  0  0  0
 39 40  1  0  0  0  0
 41 40  1  0  0  0  0
 41 42  1  0  0  0  0
 41 61  1  0  0  0  0
 41143  1  6  0  0  0
 42 43  1  0  0  0  0
 43 44  1  0  0  0  0
 44 45  2  0  0  0  0
 44 46  1  0  0  0  0
 46 47  1  0  0  0  0
 47 48  1  0  0  0  0
 48 49  1  0  0  0  0
 49 50  1  0  0  0  0
 50 51  1  0  0  0  0
 51 52  1  0  0  0  0
 52 53  1  0  0  0  0
 53 54  1  0  0  0  0
 54 55  1  0  0  0  0
 55 56  1  0  0  0  0
 56 57  1  0  0  0  0
 57 58  1  0  0  0  0
 58 59  1  0  0  0  0
 59 60  1  0  0  0  0
 60144  1  0  0  0  0
 60145  1  0  0  0  0
 60146  1  0  0  0  0
 61 62  1  0  0  0  0
 62 63  2  0  0  0  0
 62 64  1  0  0  0  0
 64 65  1  0  0  0  0
 65 66  1  0  0  0  0
 66 67  1  0  0  0  0
 67 68  1  0  0  0  0
 68 69  1  0  0  0  0
 69 70  1  0  0  0  0
 70 71  1  0  0  0  0
 71 72  1  0  0  0  0
 72 73  1  0  0  0  0
 73 74  2  0  0  0  0
 73147  1  0  0  0  0
 74 75  1  0  0  0  0
 74148  1  0  0  0  0
 75 76  1  0  0  0  0
 75149  1  0  0  0  0
 75150  1  0  0  0  0
 76 77  1  0  0  0  0
 76151  1  0  0  0  0
 76152  1  0  0  0  0
 77 78  1  0  0  0  0
 77153  1  0  0  0  0
 77154  1  0  0  0  0
 78 79  1  0  0  0  0
 78155  1  0  0  0  0
 78156  1  0  0  0  0
 79 80  1  0  0  0  0
 79157  1  0  0  0  0
 79158  1  0  0  0  0
 80 81  1  0  0  0  0
 80159  1  0  0  0  0
 80160  1  0  0  0  0
 81 82  1  0  0  0  0
 82161  1  0  0  0  0
 82162  1  0  0  0  0
 82163  1  0  0  0  0
 83 84  1  0  0  0  0
 84 85  2  0  0  0  0
 84 86  1  0  0  0  0
 86 87  1  0  0  0  0
 86164  1  0  0  0  0
 86165  1  0  0  0  0
 87 88  1  0  0  0  0
 87166  1  0  0  0  0
 87167  1  0  0  0  0
 88 89  1  0  0  0  0
 89 90  1  0  0  0  0
 89168  1  0  0  0  0
 89169  1  0  0  0  0
 90 91  1  0  0  0  0
 90170  1  0  0  0  0
 90171  1  0  0  0  0
 91 92  1  0  0  0  0
 92 93  1  0  0  0  0
 92172  1  0  0  0  0
 92173  1  0  0  0  0
 93 94  1  0  0  0  0
 93174  1  0  0  0  0
 93175  1  0  0  0  0
 94 95  1  0  0  0  0
 94176  1  0  0  0  0
 94177  1  0  0  0  0
 95 96  1  0  0  0  0
 95178  1  0  0  0  0
 95179  1  0  0  0  0
 96 97  1  0  0  0  0
 97 98  2  0  0  0  0
 97180  1  0  0  0  0
 98 99  1  0  0  0  0
 98181  1  0  0  0  0
 99100  1  0  0  0  0
100101  1  0  0  0  0
100182  1  0  0  0  0
100183  1  0  0  0  0
101102  1  0  0  0  0
101184  1  0  0  0  0
101185  1  0  0  0  0
102103  1  0  0  0  0
102186  1  0  0  0  0
102187  1  0  0  0  0
103104  1  0  0  0  0
103188  1  0  0  0  0
103189  1  0  0  0  0
104105  1  0  0  0  0
105106  1  0  0  0  0
105190  1  0  0  0  0
105191  1  0  0  0  0
106192  1  0  0  0  0
106193  1  0  0  0  0
106194  1  0  0  0  0
M  END
>  <IDENTIFIER>
CNP0507177.1

>  <Energy>
22119.2

$$$$
