
 OpenBabel09072523102D

164163  0  0  0  0  0  0  0  0999 V2000
  -24.3336  -13.6471    0.0000 C   0  0  0  0  0  0  0  0  0  0  0  0
  -23.0346  -12.8971    0.0000 C   0  0  0  0  0  2  0  0  0  0  0  0
  -21.7356  -12.1471    0.0000 C   0  0  0  0  0  0  0  0  0  0  0  0
  -20.4365  -11.3971    0.0000 C   0  0  0  0  0  0  0  0  0  0  0  0
  -19.1375  -10.6471    0.0000 C   0  0  0  0  0  2  0  0  0  0  0  0
  -17.8385   -9.8971    0.0000 C   0  0  0  0  0  0  0  0  0  0  0  0
  -16.1857   -9.9151   -0.0086 C   0  0  0  0  0  0  0  0  0  0  0  0
  -15.5282   -8.4005    0.0186 C   0  0  0  0  0  0  0  0  0  0  0  0
  -14.1114   -7.5807    0.0208 C   0  0  0  0  0  0  0  0  0  0  0  0
  -12.7157   -7.7785    0.0036 C   0  0  0  0  0  0  0  0  0  0  0  0
  -11.6352   -6.5522    0.0107 C   0  0  0  0  0  0  0  0  0  0  0  0
  -10.0442   -6.8971    0.0000 C   0  0  0  0  0  0  0  0  0  0  0  0
   -8.7452   -6.1471    0.0000 C   0  0  0  0  0  0  0  0  0  0  0  0
   -7.4462   -5.3971    0.0000 C   0  0  0  0  0  0  0  0  0  0  0  0
   -5.9218   -4.8585    0.6162 C   0  0  0  0  0  0  0  0  0  0  0  0
   -4.7993   -3.9810   -0.3643 C   0  0  0  0  0  0  0  0  0  0  0  0
   -3.5490   -3.1471    0.0000 O   0  0  0  0  0  0  0  0  0  0  0  0
   -2.2500   -3.8971    0.0000 C   0  0  3  0  0  0  0  0  0  0  0  0
   -2.1109   -2.2972    1.0064 C   0  0  0  0  0  0  0  0  0  0  0  0
   -0.9783   -1.0846    1.3321 C   0  0  0  0  0  0  0  0  0  0  0  0
   -0.1956    0.1343    0.5494 C   0  0  0  0  0  0  0  0  0  0  0  0
   -0.7500    1.2990    0.0000 C   0  0  0  0  0  0  0  0  0  0  0  0
   -2.2500    1.2990    0.0000 C   0  0  0  0  0  0  0  0  0  0  0  0
   -0.1004    2.7931   -0.3185 C   0  0  0  0  0  0  0  0  0  0  0  0
    1.3531    3.5003   -0.1226 C   0  0  0  0  0  0  0  0  0  0  0  0
    1.5000    5.1962    0.0000 C   0  0  0  0  0  0  0  0  0  0  0  0
    2.2500    6.4952    0.0000 C   0  0  2  0  0  0  0  0  0  0  0  0
    0.9510    7.2452    0.0000 C   0  0  0  0  0  0  0  0  0  0  0  0
    3.0000    7.7942    0.0000 C   0  0  0  0  0  0  0  0  0  0  0  0
    3.7500    9.0933    0.0000 C   0  0  0  0  0  0  0  0  0  0  0  0
    4.5000   10.3923    0.0000 C   0  0  0  0  0  0  0  0  0  0  0  0
    5.2500   11.6913    0.0000 C   0  0  2  0  0  0  0  0  0  0  0  0
    3.9510   12.4413    0.0000 C   0  0  0  0  0  0  0  0  0  0  0  0
    6.1923   13.1282   -0.1207 C   0  0  0  0  0  0  0  0  0  0  0  0
    7.6585   13.9243    0.0167 C   0  0  0  0  0  0  0  0  0  0  0  0
    7.5000   15.5885    0.0000 C   0  0  0  0  0  0  0  0  0  0  0  0
    8.2500   16.8875    0.0000 C   0  0  0  0  0  0  0  0  0  0  0  0
    6.9510   17.6375    0.0000 C   0  0  0  0  0  0  0  0  0  0  0  0
    9.0000   18.1865    0.0000 C   0  0  0  0  0  0  0  0  0  0  0  0
   -0.9510   -4.6471    0.0000 C   0  0  3  0  0  0  0  0  0  0  0  0
   -0.2010   -3.3481    0.0000 C   0  0  0  0  0  0  0  0  0  0  0  0
   -0.6776   -4.7639    1.4053 O   0  0  0  0  0  0  0  0  0  0  0  0
   -1.7010   -5.9462    0.0000 C   0  0  0  0  0  0  0  0  0  0  0  0
   -2.4510   -7.2452    0.0000 C   0  0  0  0  0  0  0  0  0  0  0  0
   -3.2010   -8.5442    0.0000 C   0  0  0  0  0  0  0  0  0  0  0  0
   -3.9510   -9.8433    0.0000 C   0  0  1  0  0  0  0  0  0  0  0  0
   -2.6519  -10.5933    0.0000 C   0  0  0  0  0  0  0  0  0  0  0  0
   -4.7010  -11.1423    0.0000 C   0  0  0  0  0  0  0  0  0  0  0  0
   -5.4510  -12.4413    0.0000 C   0  0  0  0  0  0  0  0  0  0  0  0
   -6.5817  -13.5058   -0.7272 C   0  0  0  0  0  0  0  0  0  0  0  0
   -6.9510  -15.0394    0.0000 C   0  0  2  0  0  0  0  0  0  0  0  0
   -5.6519  -15.7894    0.0000 C   0  0  0  0  0  0  0  0  0  0  0  0
   -7.7010  -16.3385    0.0000 C   0  0  0  0  0  0  0  0  0  0  0  0
   -8.4510  -17.6375    0.0000 C   0  0  0  0  0  0  0  0  0  0  0  0
   -9.2010  -18.9365    0.0000 C   0  0  0  0  0  0  0  0  0  0  0  0
   -9.9510  -20.2356    0.0000 C   0  0  0  0  0  0  0  0  0  0  0  0
   -8.6519  -20.9856    0.0000 C   0  0  0  0  0  0  0  0  0  0  0  0
  -10.7010  -21.5346    0.0000 C   0  0  0  0  0  0  0  0  0  0  0  0
  -24.8569  -12.9004   -0.6318 H   0  0  0  0  0  0  0  0  0  0  0  0
  -23.9512  -14.4692   -0.6392 H   0  0  0  0  0  0  0  0  0  0  0  0
  -25.2602  -14.1821    0.0000 H   0  0  0  0  0  0  0  0  0  0  0  0
  -22.1048  -11.5909    0.8956 H   0  0  0  0  0  0  0  0  0  0  0  0
  -22.1044  -11.5918   -0.8963 H   0  0  0  0  0  0  0  0  0  0  0  0
  -20.0675  -11.9524    0.8962 H   0  0  0  0  0  0  0  0  0  0  0  0
  -20.0672  -11.9530   -0.8957 H   0  0  0  0  0  0  0  0  0  0  0  0
  -18.0338   -9.2352   -0.8692 H   0  0  0  0  0  0  0  0  0  0  0  0
  -18.0223   -9.2629    0.8921 H   0  0  0  0  0  0  0  0  0  0  0  0
  -15.8379  -10.4412   -0.9221 H   0  0  0  0  0  0  0  0  0  0  0  0
  -15.8275  -10.4771    0.8793 H   0  0  0  0  0  0  0  0  0  0  0  0
  -16.0104   -7.9746    0.9244 H   0  0  0  0  0  0  0  0  0  0  0  0
  -16.0283   -7.9357   -0.8574 H   0  0  0  0  0  0  0  0  0  0  0  0
  -14.3385   -6.5176    0.0430 H   0  0  0  0  0  0  0  0  0  0  0  0
  -12.3395   -8.7955   -0.0173 H   0  0  0  0  0  0  0  0  0  0  0  0
  -11.8429   -5.9210   -0.8783 H   0  0  0  0  0  0  0  0  0  0  0  0
  -11.8307   -5.9400    0.9163 H   0  0  0  0  0  0  0  0  0  0  0  0
   -9.9466   -7.5708    0.8830 H   0  0  0  0  0  0  0  0  0  0  0  0
   -9.9562   -7.5934   -0.8692 H   0  0  0  0  0  0  0  0  0  0  0  0
   -9.1095   -5.6651   -0.9496 H   0  0  0  0  0  0  0  0  0  0  0  0
   -9.0723   -5.5861    0.9085 H   0  0  0  0  0  0  0  0  0  0  0  0
   -7.0169   -5.8453   -0.9274 H   0  0  0  0  0  0  0  0  0  0  0  0
   -7.7704   -4.3486   -0.2480 H   0  0  0  0  0  0  0  0  0  0  0  0
   -5.3742   -5.7483    0.9896 H   0  0  0  0  0  0  0  0  0  0  0  0
   -6.1545   -4.2252    1.4983 H   0  0  0  0  0  0  0  0  0  0  0  0
   -5.4578   -3.2334   -0.8520 H   0  0  0  0  0  0  0  0  0  0  0  0
   -4.5257   -4.6587   -1.2002 H   0  0  0  0  0  0  0  0  0  0  0  0
   -2.2232   -3.7831   -1.1240 H   0  0  0  0  0  0  0  0  0  0  0  0
   -2.3241   -2.6775    2.0341 H   0  0  0  0  0  0  0  0  0  0  0  0
   -2.8772   -1.4583    0.8503 H   0  0  0  0  0  0  0  0  0  0  0  0
   -0.1688   -1.6024    1.8923 H   0  0  0  0  0  0  0  0  0  0  0  0
   -1.4642   -0.5096    2.1545 H   0  0  0  0  0  0  0  0  0  0  0  0
    0.8841    0.1309    0.6599 H   0  0  0  0  0  0  0  0  0  0  0  0
   -2.4455    2.2919   -0.4503 H   0  0  0  0  0  0  0  0  0  0  0  0
   -2.3600    0.5261   -0.7925 H   0  0  0  0  0  0  0  0  0  0  0  0
   -3.3200    1.2990    0.0000 H   0  0  0  0  0  0  0  0  0  0  0  0
   -0.6955    3.4239    0.3766 H   0  0  0  0  0  0  0  0  0  0  0  0
   -0.4256    3.0745   -1.3430 H   0  0  0  0  0  0  0  0  0  0  0  0
    1.9695    3.0976   -0.9645 H   0  0  0  0  0  0  0  0  0  0  0  0
    1.7550    3.0534    0.8226 H   0  0  0  0  0  0  0  0  0  0  0  0
    0.8950    5.1738    0.9616 H   0  0  0  0  0  0  0  0  0  0  0  0
    2.5573    4.8143    0.0492 H   0  0  0  0  0  0  0  0  0  0  0  0
    2.4932    6.4125    1.1229 H   0  0  0  0  0  0  0  0  0  0  0  0
    0.9398    7.8863    0.9339 H   0  0  0  0  0  0  0  0  0  0  0  0
    0.8670    7.5781   -1.0694 H   0  0  0  0  0  0  0  0  0  0  0  0
    0.0244    7.7802    0.0000 H   0  0  0  0  0  0  0  0  0  0  0  0
    2.9959    7.8179   -1.1284 H   0  0  0  0  0  0  0  0  0  0  0  0
    3.9888    7.2634    0.1384 H   0  0  0  0  0  0  0  0  0  0  0  0
    3.7796    9.0717    1.1259 H   0  0  0  0  0  0  0  0  0  0  0  0
    2.7919    9.6492   -0.2030 H   0  0  0  0  0  0  0  0  0  0  0  0
    4.4948   10.3753   -1.1278 H   0  0  0  0  0  0  0  0  0  0  0  0
    5.4512    9.8142    0.1805 H   0  0  0  0  0  0  0  0  0  0  0  0
    5.5717   11.6045    1.0736 H   0  0  0  0  0  0  0  0  0  0  0  0
    3.6125   12.3330   -1.0641 H   0  0  0  0  0  0  0  0  0  0  0  0
    3.4186   12.1398    0.9509 H   0  0  0  0  0  0  0  0  0  0  0  0
    3.0244   12.9763    0.0000 H   0  0  0  0  0  0  0  0  0  0  0  0
    5.8771   13.5215   -1.1161 H   0  0  0  0  0  0  0  0  0  0  0  0
    5.7222   13.7503    0.6805 H   0  0  0  0  0  0  0  0  0  0  0  0
    8.3309   13.5926   -0.8044 H   0  0  0  0  0  0  0  0  0  0  0  0
    8.1297   13.6408    0.9825 H   0  0  0  0  0  0  0  0  0  0  0  0
    6.7699   15.5858    0.8711 H   0  0  0  0  0  0  0  0  0  0  0  0
    6.9633   15.5848   -0.9914 H   0  0  0  0  0  0  0  0  0  0  0  0
    8.5495   16.6538    1.0559 H   0  0  0  0  0  0  0  0  0  0  0  0
    6.8805   18.0124   -1.0574 H   0  0  0  0  0  0  0  0  0  0  0  0
    6.9450   18.2313    0.9625 H   0  0  0  0  0  0  0  0  0  0  0  0
    6.0244   18.1725    0.0000 H   0  0  0  0  0  0  0  0  0  0  0  0
   10.0183   17.7614    0.1805 H   0  0  0  0  0  0  0  0  0  0  0  0
    8.9969   18.3543   -1.1064 H   0  0  0  0  0  0  0  0  0  0  0  0
    9.5350   19.1131    0.0000 H   0  0  0  0  0  0  0  0  0  0  0  0
   -0.2043   -3.1720   -1.1055 H   0  0  0  0  0  0  0  0  0  0  0  0
    0.8354   -3.7560    0.1109 H   0  0  0  0  0  0  0  0  0  0  0  0
    0.3340   -2.4215    0.0000 H   0  0  0  0  0  0  0  0  0  0  0  0
    0.1984   -5.2244    1.5580 H   0  0  0  0  0  0  0  0  0  0  0  0
   -1.3285   -6.0242   -1.0647 H   0  0  0  0  0  0  0  0  0  0  0  0
   -0.8758   -6.6087    0.3916 H   0  0  0  0  0  0  0  0  0  0  0  0
   -2.9825   -6.7213    0.8642 H   0  0  0  0  0  0  0  0  0  0  0  0
   -3.0086   -6.9614   -0.9451 H   0  0  0  0  0  0  0  0  0  0  0  0
   -4.2357   -8.0619    0.1108 H   0  0  0  0  0  0  0  0  0  0  0  0
   -2.9419   -8.6413    1.1010 H   0  0  0  0  0  0  0  0  0  0  0  0
   -4.2886   -9.6311   -1.0629 H   0  0  0  0  0  0  0  0  0  0  0  0
   -2.1202  -10.2982   -0.9534 H   0  0  0  0  0  0  0  0  0  0  0  0
   -2.3094  -10.5646    1.0695 H   0  0  0  0  0  0  0  0  0  0  0  0
   -1.7252  -11.1283    0.0000 H   0  0  0  0  0  0  0  0  0  0  0  0
   -4.3706  -11.5821   -1.0127 H   0  0  0  0  0  0  0  0  0  0  0  0
   -4.4414  -11.3158    1.1004 H   0  0  0  0  0  0  0  0  0  0  0  0
   -6.0545  -12.3930    0.9483 H   0  0  0  0  0  0  0  0  0  0  0  0
   -4.6250  -13.1777    0.1831 H   0  0  0  0  0  0  0  0  0  0  0  0
   -6.2333  -13.6947   -1.7646 H   0  0  0  0  0  0  0  0  0  0  0  0
   -7.5377  -12.9474   -0.8147 H   0  0  0  0  0  0  0  0  0  0  0  0
   -7.2268  -14.6874    1.0242 H   0  0  0  0  0  0  0  0  0  0  0  0
   -5.3814  -15.6709   -1.0761 H   0  0  0  0  0  0  0  0  0  0  0  0
   -5.0872  -15.1324    0.6835 H   0  0  0  0  0  0  0  0  0  0  0  0
   -4.7252  -16.3244    0.0000 H   0  0  0  0  0  0  0  0  0  0  0  0
   -7.2927  -16.7768    1.0000 H   0  0  0  0  0  0  0  0  0  0  0  0
   -7.3312  -16.6208   -1.0567 H   0  0  0  0  0  0  0  0  0  0  0  0
   -8.9901  -17.4526   -0.9929 H   0  0  0  0  0  0  0  0  0  0  0  0
   -9.1622  -17.0775    0.7222 H   0  0  0  0  0  0  0  0  0  0  0  0
   -8.9626  -19.0079    1.1065 H   0  0  0  0  0  0  0  0  0  0  0  0
  -10.2656  -18.4947    0.0604 H   0  0  0  0  0  0  0  0  0  0  0  0
  -10.2338  -20.0575   -1.0911 H   0  0  0  0  0  0  0  0  0  0  0  0
   -8.3440  -20.9665    1.0789 H   0  0  0  0  0  0  0  0  0  0  0  0
   -8.0996  -20.6782   -0.9386 H   0  0  0  0  0  0  0  0  0  0  0  0
   -7.7252  -21.5206    0.0000 H   0  0  0  0  0  0  0  0  0  0  0  0
  -11.7155  -21.0793    0.0788 H   0  0  0  0  0  0  0  0  0  0  0  0
  -10.5385  -21.9811   -1.0312 H   0  0  0  0  0  0  0  0  0  0  0  0
  -11.2360  -22.4612    0.0000 H   0  0  0  0  0  0  0  0  0  0  0  0
  1  2  1  0  0  0  0
  1 59  1  0  0  0  0
  1 60  1  0  0  0  0
  1 61  1  0  0  0  0
  2  3  1  0  0  0  0
  3  4  1  0  0  0  0
  3 62  1  0  0  0  0
  3 63  1  0  0  0  0
  4  5  1  0  0  0  0
  4 64  1  0  0  0  0
  4 65  1  0  0  0  0
  5  6  1  0  0  0  0
  6  7  1  0  0  0  0
  6 66  1  0  0  0  0
  6 67  1  0  0  0  0
  7  8  1  0  0  0  0
  7 68  1  0  0  0  0
  7 69  1  0  0  0  0
  8  9  1  0  0  0  0
  8 70  1  0  0  0  0
  8 71  1  0  0  0  0
  9 10  2  3  0  0  0
  9 72  1  0  0  0  0
 10 11  1  0  0  0  0
 10 73  1  0  0  0  0
 11 12  1  0  0  0  0
 11 74  1  0  0  0  0
 11 75  1  0  0  0  0
 12 13  1  0  0  0  0
 12 76  1  0  0  0  0
 12 77  1  0  0  0  0
 13 14  1  0  0  0  0
 13 78  1  0  0  0  0
 13 79  1  0  0  0  0
 14 15  1  0  0  0  0
 14 80  1  0  0  0  0
 14 81  1  0  0  0  0
 15 16  1  0  0  0  0
 15 82  1  0  0  0  0
 15 83  1  0  0  0  0
 16 17  1  0  0  0  0
 16 84  1  0  0  0  0
 16 85  1  0  0  0  0
 17 18  1  0  0  0  0
 18 19  1  0  0  0  0
 18 40  1  0  0  0  0
 18 86  1  0  0  0  0
 19 20  1  0  0  0  0
 19 87  1  0  0  0  0
 19 88  1  0  0  0  0
 20 21  1  0  0  0  0
 20 89  1  0  0  0  0
 20 90  1  0  0  0  0
 21 22  2  0  0  0  0
 21 91  1  0  0  0  0
 22 23  1  0  0  0  0
 22 24  1  0  0  0  0
 23 92  1  0  0  0  0
 23 93  1  0  0  0  0
 23 94  1  0  0  0  0
 24 25  1  0  0  0  0
 24 95  1  0  0  0  0
 24 96  1  0  0  0  0
 25 26  1  0  0  0  0
 25 97  1  0  0  0  0
 25 98  1  0  0  0  0
 26 27  1  0  0  0  0
 26 99  1  0  0  0  0
 26100  1  0  0  0  0
 27 28  1  0  0  0  0
 27 29  1  0  0  0  0
 27101  1  1  0  0  0
 28102  1  0  0  0  0
 28103  1  0  0  0  0
 28104  1  0  0  0  0
 29 30  1  0  0  0  0
 29105  1  0  0  0  0
 29106  1  0  0  0  0
 30 31  1  0  0  0  0
 30107  1  0  0  0  0
 30108  1  0  0  0  0
 31 32  1  0  0  0  0
 31109  1  0  0  0  0
 31110  1  0  0  0  0
 32 33  1  0  0  0  0
 32 34  1  0  0  0  0
 32111  1  1  0  0  0
 33112  1  0  0  0  0
 33113  1  0  0  0  0
 33114  1  0  0  0  0
 34 35  1  0  0  0  0
 34115  1  0  0  0  0
 34116  1  0  0  0  0
 35 36  1  0  0  0  0
 35117  1  0  0  0  0
 35118  1  0  0  0  0
 36 37  1  0  0  0  0
 36119  1  0  0  0  0
 36120  1  0  0  0  0
 37 38  1  0  0  0  0
 37 39  1  0  0  0  0
 37121  1  0  0  0  0
 38122  1  0  0  0  0
 38123  1  0  0  0  0
 38124  1  0  0  0  0
 39125  1  0  0  0  0
 39126  1  0  0  0  0
 39127  1  0  0  0  0
 40 41  1  0  0  0  0
 40 42  1  0  0  0  0
 40 43  1  0  0  0  0
 41128  1  0  0  0  0
 41129  1  0  0  0  0
 41130  1  0  0  0  0
 42131  1  0  0  0  0
 43 44  1  0  0  0  0
 43132  1  0  0  0  0
 43133  1  0  0  0  0
 44 45  1  0  0  0  0
 44134  1  0  0  0  0
 44135  1  0  0  0  0
 45 46  1  0  0  0  0
 45136  1  0  0  0  0
 45137  1  0  0  0  0
 46 47  1  0  0  0  0
 46 48  1  0  0  0  0
 46138  1  6  0  0  0
 47139  1  0  0  0  0
 47140  1  0  0  0  0
 47141  1  0  0  0  0
 48 49  1  0  0  0  0
 48142  1  0  0  0  0
 48143  1  0  0  0  0
 49 50  1  0  0  0  0
 49144  1  0  0  0  0
 49145  1  0  0  0  0
 50 51  1  0  0  0  0
 50146  1  0  0  0  0
 50147  1  0  0  0  0
 51 52  1  0  0  0  0
 51 53  1  0  0  0  0
 51148  1  1  0  0  0
 52149  1  0  0  0  0
 52150  1  0  0  0  0
 52151  1  0  0  0  0
 53 54  1  0  0  0  0
 53152  1  0  0  0  0
 53153  1  0  0  0  0
 54 55  1  0  0  0  0
 54154  1  0  0  0  0
 54155  1  0  0  0  0
 55 56  1  0  0  0  0
 55156  1  0  0  0  0
 55157  1  0  0  0  0
 56 57  1  0  0  0  0
 56 58  1  0  0  0  0
 56158  1  0  0  0  0
 57159  1  0  0  0  0
 57160  1  0  0  0  0
 57161  1  0  0  0  0
 58162  1  0  0  0  0
 58163  1  0  0  0  0
 58164  1  0  0  0  0
M  END
>  <IDENTIFIER>
CNP0278840.1

>  <Energy>
17310.2

$$$$
