
 OpenBabel09122511283D

108115  0  0  0  0  0  0  0  0999 V2000
   -0.8535    1.9358    5.9399 C   0  0  0  0  0  0  0  0  0  0  0  0
   -1.4621    0.7409    5.6091 O   0  0  0  0  0  0  0  0  0  0  0  0
   -1.8007    0.3390    4.3538 C   0  0  0  0  0  0  0  0  0  0  0  0
   -1.6168    1.1529    3.2320 C   0  0  0  0  0  0  0  0  0  0  0  0
   -1.9231    0.7156    1.9204 C   0  0  0  0  0  0  0  0  0  0  0  0
   -2.5053   -0.5759    1.7398 C   0  0  0  0  0  0  0  0  0  0  0  0
   -2.6899   -1.3722    2.9014 C   0  0  0  0  0  0  0  0  0  0  0  0
   -2.3348   -0.9308    4.1795 C   0  0  0  0  0  0  0  0  0  0  0  0
   -2.5169   -1.7264    5.2547 O   0  0  0  0  0  0  0  0  0  0  0  0
   -3.0159   -1.1519    0.4308 C   0  0  0  0  0  0  0  0  0  0  0  0
   -3.3417   -0.4697   -0.6928 C   0  0  0  0  0  0  0  0  0  0  0  0
   -3.3170    0.9967   -1.0383 C   0  0  1  0  0  0  0  0  0  0  0  0
   -4.7664    1.3924   -1.5052 C   0  0  0  0  0  0  0  0  0  0  0  0
   -5.0638    2.9332   -1.5562 C   0  0  0  0  0  0  0  0  0  0  0  0
   -5.7082    3.5101   -0.2465 C   0  0  0  0  0  0  0  0  0  0  0  0
   -7.1413    3.8584   -0.6195 C   0  0  0  0  0  0  0  0  0  0  0  0
   -6.9726    4.3570   -2.0448 C   0  0  0  0  0  0  0  0  0  0  0  0
   -6.1407    3.2295   -2.6330 C   0  0  0  0  0  0  0  0  0  0  0  0
   -3.7343    3.6511   -1.8601 C   0  0  0  0  0  0  0  0  0  0  0  0
   -2.6912    3.4114   -0.7353 C   0  0  0  0  0  0  0  0  0  0  0  0
   -2.8353    2.0249   -0.0192 C   0  0  2  0  0  0  0  0  0  0  0  0
   -1.5743    1.6857    0.7930 C   0  0  2  0  0  0  0  0  0  0  0  0
   -0.2762    1.2349    0.0235 C   0  0  0  0  0  0  0  0  0  0  0  0
    0.9474    1.2741    0.9542 C   0  0  0  0  0  0  0  0  0  0  0  0
    0.8022    1.6930    2.0904 O   0  0  0  0  0  0  0  0  0  0  0  0
    2.3720    0.8713    0.6687 C   0  0  0  0  0  0  0  0  0  0  0  0
    2.8901    0.3899   -0.7044 C   0  0  1  0  0  0  0  0  0  0  0  0
    4.3803   -0.0057   -0.4808 C   0  0  2  0  0  0  0  0  0  0  0  0
    5.1132    1.0831    0.0321 O   0  0  0  0  0  0  0  0  0  0  0  0
    5.1414   -0.6006   -1.6824 C   0  0  0  0  0  0  0  0  0  0  0  0
    6.4911   -1.0682   -1.1719 C   0  0  0  0  0  0  0  0  0  0  0  0
    6.5694   -2.1880   -0.3256 C   0  0  0  0  0  0  0  0  0  0  0  0
    7.7925   -2.5851    0.2134 C   0  0  0  0  0  0  0  0  0  0  0  0
    8.9566   -1.8600   -0.0692 C   0  0  0  0  0  0  0  0  0  0  0  0
   10.1354   -2.2259    0.4772 O   0  0  0  0  0  0  0  0  0  0  0  0
    8.8991   -0.7355   -0.9076 C   0  0  0  0  0  0  0  0  0  0  0  0
   10.0481   -0.0408   -1.1257 O   0  0  0  0  0  0  0  0  0  0  0  0
   10.1703    1.2123   -1.7005 C   0  0  0  0  0  0  0  0  0  0  0  0
    9.5471    2.3023   -0.8167 C   0  0  0  0  0  0  0  0  0  0  0  0
   10.1714    2.3364    0.4387 O   0  0  0  0  0  0  0  0  0  0  0  0
    7.6612   -0.3542   -1.4721 C   0  0  0  0  0  0  0  0  0  0  0  0
    2.2030   -0.7357   -1.1056 O   0  0  0  0  0  0  0  0  0  0  0  0
    1.4304   -0.8510   -2.2150 C   0  0  0  0  0  0  0  0  0  0  0  0
    1.1686    0.1181   -2.9140 O   0  0  0  0  0  0  0  0  0  0  0  0
    0.8517   -2.1879   -2.5352 C   0  0  0  0  0  0  0  0  0  0  0  0
    0.1646   -2.6815   -1.3424 C   0  0  0  0  0  0  0  0  0  0  0  0
   -0.3523   -3.0855   -0.3334 C   0  0  0  0  0  0  0  0  0  0  0  0
   -0.9961   -3.6122    0.8699 C   0  0  0  0  0  0  0  0  0  0  0  0
   -2.4633   -3.6849    0.5907 C   0  0  0  0  0  0  0  0  0  0  0  0
   -3.3322   -2.6133    0.3548 C   0  0  0  0  0  0  0  0  0  0  0  0
   -4.5646   -3.0813    0.0384 N   0  0  0  0  0  0  0  0  0  0  0  0
   -4.4911   -4.4218    0.0989 C   0  0  0  0  0  0  0  0  0  0  0  0
   -5.5176   -5.3345   -0.1377 C   0  0  0  0  0  0  0  0  0  0  0  0
   -5.2156   -6.7044   -0.0366 C   0  0  0  0  0  0  0  0  0  0  0  0
   -3.9085   -7.1261    0.2911 C   0  0  0  0  0  0  0  0  0  0  0  0
   -2.8931   -6.1822    0.5279 C   0  0  0  0  0  0  0  0  0  0  0  0
   -3.2237   -4.8286    0.4303 C   0  0  0  0  0  0  0  0  0  0  0  0
   -0.6892    1.9702    7.0360 H   0  0  0  0  0  0  0  0  0  0  0  0
   -1.4993    2.7923    5.6515 H   0  0  0  0  0  0  0  0  0  0  0  0
    0.1334    2.0159    5.4340 H   0  0  0  0  0  0  0  0  0  0  0  0
   -1.2008    2.1395    3.3800 H   0  0  0  0  0  0  0  0  0  0  0  0
   -3.1346   -2.3546    2.8405 H   0  0  0  0  0  0  0  0  0  0  0  0
   -2.8818   -2.6196    5.1821 H   0  0  0  0  0  0  0  0  0  0  0  0
   -3.7116   -1.0628   -1.5296 H   0  0  0  0  0  0  0  0  0  0  0  0
   -2.6147    1.0854   -1.8982 H   0  0  0  0  0  0  0  0  0  0  0  0
   -5.5511    0.9315   -0.8634 H   0  0  0  0  0  0  0  0  0  0  0  0
   -4.8750    0.9403   -2.5170 H   0  0  0  0  0  0  0  0  0  0  0  0
   -5.2357    4.4926   -0.0162 H   0  0  0  0  0  0  0  0  0  0  0  0
   -5.6498    2.8855    0.6672 H   0  0  0  0  0  0  0  0  0  0  0  0
   -7.6130    4.5891    0.0723 H   0  0  0  0  0  0  0  0  0  0  0  0
   -7.7583    2.9303   -0.6269 H   0  0  0  0  0  0  0  0  0  0  0  0
   -6.3905    5.3066   -2.0503 H   0  0  0  0  0  0  0  0  0  0  0  0
   -7.9361    4.5159   -2.5745 H   0  0  0  0  0  0  0  0  0  0  0  0
   -5.7472    3.4001   -3.6576 H   0  0  0  0  0  0  0  0  0  0  0  0
   -6.8378    2.3601   -2.6960 H   0  0  0  0  0  0  0  0  0  0  0  0
   -3.8473    4.7420   -2.0429 H   0  0  0  0  0  0  0  0  0  0  0  0
   -3.3491    3.2058   -2.8051 H   0  0  0  0  0  0  0  0  0  0  0  0
   -2.7861    4.1888    0.0542 H   0  0  0  0  0  0  0  0  0  0  0  0
   -1.6948    3.5436   -1.2072 H   0  0  0  0  0  0  0  0  0  0  0  0
   -3.6409    2.1297    0.7339 H   0  0  0  0  0  0  0  0  0  0  0  0
   -1.3025    2.6604    1.2601 H   0  0  0  0  0  0  0  0  0  0  0  0
   -0.0698    1.9179   -0.8256 H   0  0  0  0  0  0  0  0  0  0  0  0
   -0.4283    0.2108   -0.3740 H   0  0  0  0  0  0  0  0  0  0  0  0
    2.5895    0.0714    1.4124 H   0  0  0  0  0  0  0  0  0  0  0  0
    2.9788    1.7632    0.9395 H   0  0  0  0  0  0  0  0  0  0  0  0
    2.8055    1.2123   -1.4495 H   0  0  0  0  0  0  0  0  0  0  0  0
    4.3628   -0.7968    0.3022 H   0  0  0  0  0  0  0  0  0  0  0  0
    5.1019    1.7971   -0.6580 H   0  0  0  0  0  0  0  0  0  0  0  0
    5.2504    0.1924   -2.4539 H   0  0  0  0  0  0  0  0  0  0  0  0
    4.6035   -1.4581   -2.1416 H   0  0  0  0  0  0  0  0  0  0  0  0
    5.6784   -2.7505   -0.0750 H   0  0  0  0  0  0  0  0  0  0  0  0
    7.8313   -3.4476    0.8676 H   0  0  0  0  0  0  0  0  0  0  0  0
   10.2136   -2.9823    1.0765 H   0  0  0  0  0  0  0  0  0  0  0  0
    9.7182    1.2181   -2.7147 H   0  0  0  0  0  0  0  0  0  0  0  0
   11.2519    1.4380   -1.8117 H   0  0  0  0  0  0  0  0  0  0  0  0
    8.4491    2.1670   -0.6992 H   0  0  0  0  0  0  0  0  0  0  0  0
    9.6887    3.2891   -1.3051 H   0  0  0  0  0  0  0  0  0  0  0  0
    9.7140    1.6603    1.0042 H   0  0  0  0  0  0  0  0  0  0  0  0
    7.5916    0.5127   -2.1134 H   0  0  0  0  0  0  0  0  0  0  0  0
    1.6720   -2.8937   -2.7828 H   0  0  0  0  0  0  0  0  0  0  0  0
    0.1520   -2.1267   -3.3966 H   0  0  0  0  0  0  0  0  0  0  0  0
   -0.7856   -2.9679    1.7458 H   0  0  0  0  0  0  0  0  0  0  0  0
   -0.5745   -4.6187    1.0625 H   0  0  0  0  0  0  0  0  0  0  0  0
   -5.4122   -2.5133   -0.1863 H   0  0  0  0  0  0  0  0  0  0  0  0
   -6.5148   -5.0013   -0.3942 H   0  0  0  0  0  0  0  0  0  0  0  0
   -5.9888   -7.4400   -0.2158 H   0  0  0  0  0  0  0  0  0  0  0  0
   -3.6855   -8.1828    0.3596 H   0  0  0  0  0  0  0  0  0  0  0  0
   -1.8917   -6.5065    0.7760 H   0  0  0  0  0  0  0  0  0  0  0  0
  1  2  1  0  0  0  0
  1 58  1  0  0  0  0
  1 59  1  0  0  0  0
  1 60  1  0  0  0  0
  2  3  1  0  0  0  0
  3  4  2  0  0  0  0
  4  5  1  0  0  0  0
  4 61  1  0  0  0  0
  5  6  2  0  0  0  0
  6  7  1  0  0  0  0
  6 10  1  0  0  0  0
  7  8  2  0  0  0  0
  7 62  1  0  0  0  0
  8  9  1  0  0  0  0
  8  3  1  0  0  0  0
  9 63  1  0  0  0  0
 10 11  2  0  0  0  0
 11 12  1  0  0  0  0
 11 64  1  0  0  0  0
 12 13  1  0  0  0  0
 12 65  1  6  0  0  0
 13 14  1  0  0  0  0
 13 66  1  0  0  0  0
 13 67  1  0  0  0  0
 14 15  1  0  0  0  0
 14 19  1  0  0  0  0
 15 16  1  0  0  0  0
 15 68  1  0  0  0  0
 15 69  1  0  0  0  0
 16 17  1  0  0  0  0
 16 70  1  0  0  0  0
 16 71  1  0  0  0  0
 17 18  1  0  0  0  0
 17 72  1  0  0  0  0
 17 73  1  0  0  0  0
 18 14  1  0  0  0  0
 18 74  1  0  0  0  0
 18 75  1  0  0  0  0
 19 20  1  0  0  0  0
 19 76  1  0  0  0  0
 19 77  1  0  0  0  0
 20 78  1  0  0  0  0
 20 79  1  0  0  0  0
 21 20  1  0  0  0  0
 21 22  1  0  0  0  0
 21 12  1  0  0  0  0
 21 80  1  1  0  0  0
 22 23  1  0  0  0  0
 22  5  1  0  0  0  0
 22 81  1  1  0  0  0
 23 24  1  0  0  0  0
 23 82  1  0  0  0  0
 23 83  1  0  0  0  0
 24 25  2  0  0  0  0
 24 26  1  0  0  0  0
 26 84  1  0  0  0  0
 26 85  1  0  0  0  0
 27 26  1  0  0  0  0
 27 28  1  0  0  0  0
 27 42  1  0  0  0  0
 27 86  1  6  0  0  0
 28 29  1  0  0  0  0
 28 30  1  0  0  0  0
 28 87  1  1  0  0  0
 29 88  1  0  0  0  0
 30 31  1  0  0  0  0
 30 89  1  0  0  0  0
 30 90  1  0  0  0  0
 31 32  2  0  0  0  0
 32 33  1  0  0  0  0
 32 91  1  0  0  0  0
 33 34  2  0  0  0  0
 33 92  1  0  0  0  0
 34 35  1  0  0  0  0
 34 36  1  0  0  0  0
 35 93  1  0  0  0  0
 36 37  1  0  0  0  0
 36 41  2  0  0  0  0
 37 38  1  0  0  0  0
 38 39  1  0  0  0  0
 38 94  1  0  0  0  0
 38 95  1  0  0  0  0
 39 40  1  0  0  0  0
 39 96  1  0  0  0  0
 39 97  1  0  0  0  0
 40 98  1  0  0  0  0
 41 31  1  0  0  0  0
 41 99  1  0  0  0  0
 42 43  1  0  0  0  0
 43 44  2  0  0  0  0
 43 45  1  0  0  0  0
 45 46  1  0  0  0  0
 45100  1  0  0  0  0
 45101  1  0  0  0  0
 46 47  3  0  0  0  0
 47 48  1  0  0  0  0
 48 49  1  0  0  0  0
 48102  1  0  0  0  0
 48103  1  0  0  0  0
 49 50  2  0  0  0  0
 50 51  1  0  0  0  0
 50 10  1  0  0  0  0
 51 52  1  0  0  0  0
 51104  1  0  0  0  0
 52 53  2  0  0  0  0
 53 54  1  0  0  0  0
 53105  1  0  0  0  0
 54 55  2  0  0  0  0
 54106  1  0  0  0  0
 55 56  1  0  0  0  0
 55107  1  0  0  0  0
 56 57  2  0  0  0  0
 56108  1  0  0  0  0
 57 52  1  0  0  0  0
 57 49  1  0  0  0  0
M  END
>  <IDENTIFIER>
CNP0161512.1

>  <Energy>
1289.38

$$$$
