
 OpenBabel09092507523D

 34 35  0  0  0  0  0  0  0  0999 V2000
    2.8178   -0.5444   -1.5073 O   0  0  0  0  0  0  0  0  0  0  0  0
    2.1562    0.1563   -0.7538 C   0  0  0  0  0  0  0  0  0  0  0  0
    2.7825    1.1643   -0.0748 N   0  0  0  0  0  0  0  0  0  0  0  0
    4.2196    1.3796   -0.1311 C   0  0  0  0  0  0  0  0  0  0  0  0
    4.9929    0.2122    0.4983 C   0  0  0  0  0  0  0  0  0  0  0  0
    4.5927    0.0135    1.8276 O   0  0  0  0  0  0  0  0  0  0  0  0
    0.6670   -0.0867   -0.6652 C   0  0  0  0  0  0  0  0  0  0  0  0
   -0.1286    0.2337    0.4768 C   0  0  0  0  0  0  0  0  0  0  0  0
    0.3984    0.6999    1.6330 O   0  0  0  0  0  0  0  0  0  0  0  0
   -1.5174   -0.0099    0.4644 C   0  0  0  0  0  0  0  0  0  0  0  0
   -2.1159   -0.5689   -0.6828 C   0  0  0  0  0  0  0  0  0  0  0  0
   -3.6052   -0.8284   -0.7607 C   0  0  0  0  0  0  0  0  0  0  0  0
   -4.3992   -0.1407    0.3574 C   0  0  0  0  0  0  0  0  0  0  0  0
   -3.7185   -0.3873    1.6915 C   0  0  0  0  0  0  0  0  0  0  0  0
   -2.3436    0.2962    1.7023 C   0  0  0  0  0  0  0  0  0  0  0  0
   -1.3428   -0.9082   -1.7452 N   0  0  0  0  0  0  0  0  0  0  0  0
    0.0091   -0.6884   -1.7689 C   0  0  0  0  0  0  0  0  0  0  0  0
    0.6311   -0.9995   -2.7719 O   0  0  0  0  0  0  0  0  0  0  0  0
    2.2357    1.8501    0.4609 H   0  0  0  0  0  0  0  0  0  0  0  0
    4.4720    2.3039    0.4337 H   0  0  0  0  0  0  0  0  0  0  0  0
    4.5402    1.5244   -1.1858 H   0  0  0  0  0  0  0  0  0  0  0  0
    6.0883    0.4078    0.4460 H   0  0  0  0  0  0  0  0  0  0  0  0
    4.8220   -0.7281   -0.0638 H   0  0  0  0  0  0  0  0  0  0  0  0
    5.1045    0.6600    2.3798 H   0  0  0  0  0  0  0  0  0  0  0  0
    1.3295    0.6569    1.8756 H   0  0  0  0  0  0  0  0  0  0  0  0
   -3.7488   -1.9301   -0.7240 H   0  0  0  0  0  0  0  0  0  0  0  0
   -4.0121   -0.4574   -1.7261 H   0  0  0  0  0  0  0  0  0  0  0  0
   -5.4380   -0.5359    0.3579 H   0  0  0  0  0  0  0  0  0  0  0  0
   -4.4430    0.9569    0.1815 H   0  0  0  0  0  0  0  0  0  0  0  0
   -3.6036   -1.4852    1.8348 H   0  0  0  0  0  0  0  0  0  0  0  0
   -4.3280    0.0116    2.5306 H   0  0  0  0  0  0  0  0  0  0  0  0
   -1.8261   -0.0629    2.6181 H   0  0  0  0  0  0  0  0  0  0  0  0
   -2.4493    1.4009    1.7724 H   0  0  0  0  0  0  0  0  0  0  0  0
   -1.7957   -1.3386   -2.5847 H   0  0  0  0  0  0  0  0  0  0  0  0
  1  2  2  0  0  0  0
  2  3  1  0  0  0  0
  2  7  1  0  0  0  0
  3  4  1  0  0  0  0
  3 19  1  0  0  0  0
  4  5  1  0  0  0  0
  4 20  1  0  0  0  0
  4 21  1  0  0  0  0
  5  6  1  0  0  0  0
  5 22  1  0  0  0  0
  5 23  1  0  0  0  0
  6 24  1  0  0  0  0
  7  8  2  0  0  0  0
  8  9  1  0  0  0  0
  8 10  1  0  0  0  0
  9 25  1  0  0  0  0
 10 11  2  0  0  0  0
 11 12  1  0  0  0  0
 11 16  1  0  0  0  0
 12 13  1  0  0  0  0
 12 26  1  0  0  0  0
 12 27  1  0  0  0  0
 13 14  1  0  0  0  0
 13 28  1  0  0  0  0
 13 29  1  0  0  0  0
 14 15  1  0  0  0  0
 14 30  1  0  0  0  0
 14 31  1  0  0  0  0
 15 10  1  0  0  0  0
 15 32  1  0  0  0  0
 15 33  1  0  0  0  0
 16 17  1  0  0  0  0
 16 34  1  0  0  0  0
 17 18  2  0  0  0  0
 17  7  1  0  0  0  0
M  END
>  <IDENTIFIER>
CNP0348076.0

>  <Energy>
265.825

$$$$
