
 OpenBabel09092500482D

195196  0  0  0  0  0  0  0  0999 V2000
    5.4086   -2.7898    1.3281 C   0  0  0  0  0  0  0  0  0  0  0  0
    4.9695   -3.4409    0.2164 C   0  0  0  0  0  0  0  0  0  0  0  0
    4.0011   -2.6425   -0.6961 C   0  0  0  0  0  0  0  0  0  0  0  0
    2.7783   -2.0659    0.1033 C   0  0  0  0  0  0  0  0  0  0  0  0
    1.5331   -1.7200   -0.7616 C   0  0  2  0  0  0  0  0  0  0  0  0
    1.0870   -2.8927   -1.3959 O   0  0  0  0  0  0  0  0  0  0  0  0
    0.3809   -1.0788    0.0906 C   0  0  1  0  0  0  0  0  0  0  0  0
    0.7317    0.2396    0.5430 O   0  0  0  0  0  0  0  0  0  0  0  0
    0.0900    1.2724   -0.2056 C   0  0  2  0  0  0  0  0  0  0  0  0
    0.6999    2.6686    0.1124 C   0  0  0  0  0  0  0  0  0  0  0  0
    2.1903    2.7568   -0.2834 C   0  0  1  0  0  0  0  0  0  0  0  0
    2.7994    1.6166    0.2720 O   0  0  0  0  0  0  0  0  0  0  0  0
    2.8949    4.0616    0.2674 C   0  0  2  0  0  0  0  0  0  0  0  0
    2.2086    5.1996   -0.1941 O   0  0  0  0  0  0  0  0  0  0  0  0
    4.4656    4.2477    0.0000 C   0  0  2  0  0  0  0  0  0  0  0  0
    4.9786    2.8381   -0.0000 C   0  0  0  0  0  0  0  0  0  0  0  0
    4.9708    5.1974    1.1303 C   0  0  0  0  0  0  0  0  0  0  0  0
    6.4404    5.5979    1.3059 C   0  0  0  0  0  0  0  0  0  0  0  0
    6.9656    6.7305    0.3971 C   0  0  0  0  0  0  0  0  0  0  0  0
    7.8242    6.3506   -0.8347 C   0  0  1  0  0  0  0  0  0  0  0  0
    8.2612    7.5417   -1.4452 O   0  0  0  0  0  0  0  0  0  0  0  0
    9.0649    5.4688   -0.4684 C   0  0  2  0  0  0  0  0  0  0  0  0
    9.4562    5.6748    0.8688 O   0  0  0  0  0  0  0  0  0  0  0  0
    8.8113    3.9683   -0.7603 C   0  0  2  0  0  0  0  0  0  0  0  0
    8.8952    3.7661   -2.1526 O   0  0  0  0  0  0  0  0  0  0  0  0
    9.7203    2.9677    0.0000 C   0  0  2  0  0  0  0  0  0  0  0  0
   11.1298    3.4807    0.0000 C   0  0  0  0  0  0  0  0  0  0  0  0
    9.7455    1.4166   -0.7851 C   0  0  0  0  0  0  0  0  0  0  0  0
   10.1031   -0.2795   -0.7550 C   0  0  0  0  0  0  0  0  0  0  0  0
   11.2594   -1.2609    0.0000 C   0  0  1  0  0  0  0  0  0  0  0  0
   10.7697   -1.1997    1.4190 O   0  0  0  0  0  0  0  0  0  0  0  0
   12.6689   -0.7479    0.0000 C   0  0  2  0  0  0  0  0  0  0  0  0
   14.0784   -0.2349    0.0000 O   0  0  0  0  0  0  0  0  0  0  0  0
   13.1819   -2.1574    0.0000 C   0  0  1  0  0  0  0  0  0  0  0  0
   11.7724   -2.6705    0.0000 C   0  0  0  0  0  0  0  0  0  0  0  0
   14.1588   -2.7761   -1.0462 C   0  0  0  0  0  0  0  0  0  0  0  0
   14.5826   -4.2373   -0.6391 C   0  0  1  0  0  0  0  0  0  0  0  0
   13.4966   -5.0853   -0.9169 O   0  0  0  0  0  0  0  0  0  0  0  0
   15.8467   -4.7892   -1.3743 C   0  0  0  0  0  0  0  0  0  0  0  0
   17.2361   -4.3364   -0.8140 C   0  0  0  0  0  0  0  0  0  0  0  0
   17.2750   -2.8316   -0.6457 C   0  0  0  0  0  0  0  0  0  0  0  0
   18.5497   -2.0559   -0.2972 C   0  0  1  0  0  0  0  0  0  0  0  0
   19.1674   -2.5524    0.8609 O   0  0  0  0  0  0  0  0  0  0  0  0
   18.0389   -0.6179   -0.0347 C   0  0  0  0  0  0  0  0  0  0  0  0
   19.0634    0.5089   -0.0226 C   0  0  0  0  0  0  0  0  0  0  0  0
   18.3068    1.8062    0.3396 C   0  0  0  0  0  0  0  0  0  0  0  0
   19.0313    3.1347    0.0786 C   0  0  1  0  0  0  0  0  0  0  0  0
   18.2077    4.1800    0.5292 O   0  0  0  0  0  0  0  0  0  0  0  0
   20.3648    3.2590    0.7593 C   0  0  0  0  0  0  0  0  0  0  0  0
   21.4372    2.5871    0.3164 C   0  0  0  0  0  0  0  0  0  0  0  0
   22.7977    2.7789    0.9176 C   0  0  0  0  0  0  0  0  0  0  0  0
   23.7756    3.3832   -0.1111 C   0  0  1  0  0  0  0  0  0  0  0  0
   25.0586    3.4264    0.4553 O   0  0  0  0  0  0  0  0  0  0  0  0
   23.3915    4.8160   -0.5294 C   0  0  0  0  0  0  0  0  0  0  0  0
   22.1610    4.8333   -1.2005 O   0  0  0  0  0  0  0  0  0  0  0  0
   -1.4358    1.2527    0.0755 C   0  0  1  0  0  0  0  0  0  0  0  0
   -2.0911    1.9036   -0.9834 O   0  0  0  0  0  0  0  0  0  0  0  0
   -1.9472   -0.2054    0.2129 C   0  0  1  0  0  0  0  0  0  0  0  0
   -3.2881   -0.3102   -0.1936 O   0  0  0  0  0  0  0  0  0  0  0  0
   -1.0336   -1.1453   -0.5917 C   0  0  2  0  0  0  0  0  0  0  0  0
   -1.5142   -2.4642   -0.5432 O   0  0  0  0  0  0  0  0  0  0  0  0
    5.4342   -4.9672    0.0000 C   0  0  2  0  0  0  0  0  0  0  0  0
    6.8437   -4.4542    0.0000 O   0  0  0  0  0  0  0  0  0  0  0  0
    4.0247   -5.4802    0.0000 C   0  0  2  0  0  0  0  0  0  0  0  0
    3.2704   -5.0004    1.1102 O   0  0  0  0  0  0  0  0  0  0  0  0
    4.1045   -7.1123    0.1818 C   0  0  2  0  0  0  0  0  0  0  0  0
    2.6246   -7.5017    0.2370 C   0  0  0  0  0  0  0  0  0  0  0  0
    2.5425   -8.7807    0.9646 C   0  0  2  0  0  0  0  0  0  0  0  0
    1.1987   -9.2019    1.0299 O   0  0  0  0  0  0  0  0  0  0  0  0
    3.3731   -9.7938    0.2205 C   0  0  2  0  0  0  0  0  0  0  0  0
    2.7651   -9.9993   -1.0461 O   0  0  0  0  0  0  0  0  0  0  0  0
    4.9888   -9.4484    0.0000 C   0  0  1  0  0  0  0  0  0  0  0  0
    4.9888  -10.9484    0.0000 C   0  0  2  0  0  3  0  0  0  0  0  0
    4.9888  -12.4484    0.0000 O   0  0  0  0  0  0  0  0  0  0  0  0
    6.4888  -10.9484    0.0000 C   0  0  1  0  0  3  0  0  0  0  0  0
    7.9888  -10.9484    0.0000 O   0  0  0  0  0  0  0  0  0  0  0  0
    7.0645  -12.3138   -0.7836 C   0  0  0  0  0  0  0  0  0  0  0  0
    7.7879  -13.1984    0.0000 C   0  0  0  0  0  0  0  0  0  0  0  0
    7.7879  -14.6984    0.0000 C   0  0  0  0  0  2  0  0  0  0  0  0
    7.7879  -16.1984    0.0000 C   0  0  0  0  0  2  0  0  0  0  0  0
    7.7879  -17.6984    0.0000 C   0  0  0  0  0  2  0  0  0  0  0  0
    7.7879  -19.1984    0.0000 C   0  0  0  0  0  2  0  0  0  0  0  0
    7.7879  -20.6984    0.0000 C   0  0  0  0  0  2  0  0  0  0  0  0
    7.7879  -22.1984    0.0000 C   0  0  0  0  0  2  0  0  0  0  0  0
    7.7879  -23.6984    0.0000 C   0  0  0  0  0  2  0  0  0  0  0  0
    7.7879  -25.1984    0.0000 C   0  0  0  0  0  2  0  0  0  0  0  0
    7.7879  -26.6984    0.0000 C   0  0  0  0  0  0  0  0  0  0  0  0
    8.9415  -27.3745   -0.0020 C   0  0  0  0  0  0  0  0  0  0  0  0
    8.9574  -28.8515   -0.0024 C   0  0  0  0  0  0  0  0  0  0  0  0
   10.1103  -29.5271   -0.0038 C   0  0  0  0  0  0  0  0  0  0  0  0
   10.1104  -31.2833   -0.0042 Cl  0  0  0  0  0  0  0  0  0  0  0  0
    4.8582   -8.1122   -0.6828 O   0  0  0  0  0  0  0  0  0  0  0  0
    6.0603   -3.2798    2.0453 H   0  0  0  0  0  0  0  0  0  0  0  0
    5.1275   -1.7661    1.5468 H   0  0  0  0  0  0  0  0  0  0  0  0
    4.5272   -1.7895   -1.1759 H   0  0  0  0  0  0  0  0  0  0  0  0
    3.6546   -3.2857   -1.5233 H   0  0  0  0  0  0  0  0  0  0  0  0
    2.4263   -2.8110    0.8421 H   0  0  0  0  0  0  0  0  0  0  0  0
    3.1075   -1.1810    0.6874 H   0  0  0  0  0  0  0  0  0  0  0  0
    1.8139   -0.9969   -1.5569 H   0  0  0  0  0  0  0  0  0  0  0  0
    0.8525   -3.5507   -0.6880 H   0  0  0  0  0  0  0  0  0  0  0  0
    0.2598   -1.6873    1.0156 H   0  0  0  0  0  0  0  0  0  0  0  0
    0.2673    1.0840   -1.2901 H   0  0  0  0  0  0  0  0  0  0  0  0
    0.1479    3.4727   -0.4197 H   0  0  0  0  0  0  0  0  0  0  0  0
    0.5932    2.8370    1.2072 H   0  0  0  0  0  0  0  0  0  0  0  0
    2.2723    2.7436   -1.3969 H   0  0  0  0  0  0  0  0  0  0  0  0
    3.0143    0.9985   -0.4753 H   0  0  0  0  0  0  0  0  0  0  0  0
    2.7444    3.9434    1.3696 H   0  0  0  0  0  0  0  0  0  0  0  0
    2.0301    5.7812    0.5901 H   0  0  0  0  0  0  0  0  0  0  0  0
    4.6033    4.6697   -1.0216 H   0  0  0  0  0  0  0  0  0  0  0  0
    5.9749    3.0699   -0.3323 H   0  0  0  0  0  0  0  0  0  0  0  0
    4.9366    2.6591    1.0978 H   0  0  0  0  0  0  0  0  0  0  0  0
    5.3445    1.8326    0.0000 H   0  0  0  0  0  0  0  0  0  0  0  0
    4.3798    6.1387    1.0931 H   0  0  0  0  0  0  0  0  0  0  0  0
    4.7056    4.7012    2.0920 H   0  0  0  0  0  0  0  0  0  0  0  0
    7.1279    4.7415    1.4372 H   0  0  0  0  0  0  0  0  0  0  0  0
    6.4167    6.0804    2.3112 H   0  0  0  0  0  0  0  0  0  0  0  0
    6.1399    7.4219    0.1222 H   0  0  0  0  0  0  0  0  0  0  0  0
    7.6475    7.3379    1.0348 H   0  0  0  0  0  0  0  0  0  0  0  0
    7.2001    5.8301   -1.5916 H   0  0  0  0  0  0  0  0  0  0  0  0
    8.8887    7.9964   -0.8232 H   0  0  0  0  0  0  0  0  0  0  0  0
    9.9250    5.7236   -1.1353 H   0  0  0  0  0  0  0  0  0  0  0  0
   10.0413    6.4768    0.8804 H   0  0  0  0  0  0  0  0  0  0  0  0
    7.8293    3.7015   -0.4029 H   0  0  0  0  0  0  0  0  0  0  0  0
    7.9690    3.7158   -2.5072 H   0  0  0  0  0  0  0  0  0  0  0  0
    9.3514    2.9024    1.0490 H   0  0  0  0  0  0  0  0  0  0  0  0
   11.5790    2.6136    0.5330 H   0  0  0  0  0  0  0  0  0  0  0  0
   11.3171    3.4576   -1.0945 H   0  0  0  0  0  0  0  0  0  0  0  0
   12.1353    3.8467    0.0000 H   0  0  0  0  0  0  0  0  0  0  0  0
   10.2794    1.6708   -1.7248 H   0  0  0  0  0  0  0  0  0  0  0  0
    8.6834    1.3458   -1.1061 H   0  0  0  0  0  0  0  0  0  0  0  0
   10.1175   -0.5857   -1.8251 H   0  0  0  0  0  0  0  0  0  0  0  0
    9.1453   -0.7317   -0.4092 H   0  0  0  0  0  0  0  0  0  0  0  0
   11.3025   -0.1557    0.2247 H   0  0  0  0  0  0  0  0  0  0  0  0
    9.8895   -1.6596    1.4785 H   0  0  0  0  0  0  0  0  0  0  0  0
   12.6087   -0.5303   -1.1257 H   0  0  0  0  0  0  0  0  0  0  0  0
   14.1787    0.2374    0.8664 H   0  0  0  0  0  0  0  0  0  0  0  0
   13.6230   -2.2838    1.0254 H   0  0  0  0  0  0  0  0  0  0  0  0
   11.9665   -3.5558    0.6684 H   0  0  0  0  0  0  0  0  0  0  0  0
   11.7802   -3.2068   -1.0196 H   0  0  0  0  0  0  0  0  0  0  0  0
   10.7669   -3.0365    0.0000 H   0  0  0  0  0  0  0  0  0  0  0  0
   13.7505   -2.7530   -2.0797 H   0  0  0  0  0  0  0  0  0  0  0  0
   14.9903   -2.0855   -1.0738 H   0  0  0  0  0  0  0  0  0  0  0  0
   14.8083   -4.2685    0.4542 H   0  0  0  0  0  0  0  0  0  0  0  0
   13.4951   -5.8009   -0.2283 H   0  0  0  0  0  0  0  0  0  0  0  0
   15.7528   -4.5432   -2.4537 H   0  0  0  0  0  0  0  0  0  0  0  0
   15.8548   -5.8984   -1.2883 H   0  0  0  0  0  0  0  0  0  0  0  0
   17.4169   -4.8004    0.1813 H   0  0  0  0  0  0  0  0  0  0  0  0
   18.0281   -4.6820   -1.5118 H   0  0  0  0  0  0  0  0  0  0  0  0
   16.5620   -2.6301    0.1843 H   0  0  0  0  0  0  0  0  0  0  0  0
   16.9608   -2.4128   -1.6272 H   0  0  0  0  0  0  0  0  0  0  0  0
   19.2507   -2.0824   -1.1625 H   0  0  0  0  0  0  0  0  0  0  0  0
   19.5933   -3.4129    0.6085 H   0  0  0  0  0  0  0  0  0  0  0  0
   17.4710   -0.6240    0.9251 H   0  0  0  0  0  0  0  0  0  0  0  0
   17.3262   -0.3382   -0.8459 H   0  0  0  0  0  0  0  0  0  0  0  0
   19.4945    0.5776   -1.0447 H   0  0  0  0  0  0  0  0  0  0  0  0
   19.8698    0.3145    0.7164 H   0  0  0  0  0  0  0  0  0  0  0  0
   17.3748    1.8647   -0.2682 H   0  0  0  0  0  0  0  0  0  0  0  0
   18.0045    1.7443    1.4094 H   0  0  0  0  0  0  0  0  0  0  0  0
   19.2116    3.2656   -1.0155 H   0  0  0  0  0  0  0  0  0  0  0  0
   17.5008    4.3101   -0.1569 H   0  0  0  0  0  0  0  0  0  0  0  0
   20.4756    3.9709    1.5733 H   0  0  0  0  0  0  0  0  0  0  0  0
   21.3524    1.9213   -0.5356 H   0  0  0  0  0  0  0  0  0  0  0  0
   23.1615    1.7809    1.2418 H   0  0  0  0  0  0  0  0  0  0  0  0
   22.7585    3.4385    1.8129 H   0  0  0  0  0  0  0  0  0  0  0  0
   23.7985    2.7531   -1.0330 H   0  0  0  0  0  0  0  0  0  0  0  0
   25.4506    2.5203    0.3469 H   0  0  0  0  0  0  0  0  0  0  0  0
   23.3459    5.4583    0.3802 H   0  0  0  0  0  0  0  0  0  0  0  0
   24.1723    5.2088   -1.2167 H   0  0  0  0  0  0  0  0  0  0  0  0
   21.8872    5.7860   -1.2576 H   0  0  0  0  0  0  0  0  0  0  0  0
   -1.6961    1.7438    1.0447 H   0  0  0  0  0  0  0  0  0  0  0  0
   -2.1848    2.8583   -0.7277 H   0  0  0  0  0  0  0  0  0  0  0  0
   -1.8572   -0.5417    1.2751 H   0  0  0  0  0  0  0  0  0  0  0  0
   -3.8342    0.0888    0.5340 H   0  0  0  0  0  0  0  0  0  0  0  0
   -0.9796   -0.7958   -1.6477 H   0  0  0  0  0  0  0  0  0  0  0  0
   -2.2631   -2.5219   -1.1928 H   0  0  0  0  0  0  0  0  0  0  0  0
    5.5386   -5.2767   -1.0650 H   0  0  0  0  0  0  0  0  0  0  0  0
    7.2956   -4.9529    0.7287 H   0  0  0  0  0  0  0  0  0  0  0  0
    3.4514   -5.2860   -0.9377 H   0  0  0  0  0  0  0  0  0  0  0  0
    3.7648   -5.2163    1.9450 H   0  0  0  0  0  0  0  0  0  0  0  0
    4.5482   -7.1842    1.2026 H   0  0  0  0  0  0  0  0  0  0  0  0
    1.9792   -6.8155    0.8225 H   0  0  0  0  0  0  0  0  0  0  0  0
    2.2006   -7.5480   -0.7908 H   0  0  0  0  0  0  0  0  0  0  0  0
    2.9535   -8.6719    2.0004 H   0  0  0  0  0  0  0  0  0  0  0  0
    0.7933   -8.7595    1.8214 H   0  0  0  0  0  0  0  0  0  0  0  0
    3.0500  -10.6428    0.9330 H   0  0  0  0  0  0  0  0  0  0  0  0
    2.5964  -10.9720   -1.1476 H   0  0  0  0  0  0  0  0  0  0  0  0
    5.3836   -9.1838    1.0205 H   0  0  0  0  0  0  0  0  0  0  0  0
    4.3118  -12.7025   -0.6788 H   0  0  0  0  0  0  0  0  0  0  0  0
    8.2430  -10.0387   -0.3090 H   0  0  0  0  0  0  0  0  0  0  0  0
    6.6269  -12.6348   -1.7283 H   0  0  0  0  0  0  0  0  0  0  0  0
    8.0867  -12.8987    1.0056 H   0  0  0  0  0  0  0  0  0  0  0  0
    6.8360  -27.2212    0.0015 H   0  0  0  0  0  0  0  0  0  0  0  0
    9.8829  -26.8296   -0.0035 H   0  0  0  0  0  0  0  0  0  0  0  0
    8.0187  -29.3995   -0.0014 H   0  0  0  0  0  0  0  0  0  0  0  0
   11.0628  -29.0051   -0.0048 H   0  0  0  0  0  0  0  0  0  0  0  0
  1  2  2  0  0  0  0
  1 93  1  0  0  0  0
  1 94  1  0  0  0  0
  2  3  1  0  0  0  0
  2 62  1  0  0  0  0
  3  4  1  0  0  0  0
  3 95  1  0  0  0  0
  3 96  1  0  0  0  0
  4  5  1  0  0  0  0
  4 97  1  0  0  0  0
  4 98  1  0  0  0  0
  5  6  1  0  0  0  0
  5  7  1  0  0  0  0
  5 99  1  1  0  0  0
  6100  1  0  0  0  0
  7  8  1  0  0  0  0
  7101  1  1  0  0  0
  8  9  1  0  0  0  0
  9 10  1  0  0  0  0
  9 56  1  0  0  0  0
  9102  1  6  0  0  0
 10 11  1  0  0  0  0
 10103  1  0  0  0  0
 10104  1  0  0  0  0
 11 12  1  0  0  0  0
 11 13  1  0  0  0  0
 11105  1  1  0  0  0
 12106  1  0  0  0  0
 13 14  1  0  0  0  0
 13 15  1  0  0  0  0
 13107  1  1  0  0  0
 14108  1  0  0  0  0
 15 16  1  0  0  0  0
 15 17  1  0  0  0  0
 15109  1  6  0  0  0
 16110  1  0  0  0  0
 16111  1  0  0  0  0
 16112  1  0  0  0  0
 17 18  1  0  0  0  0
 17113  1  0  0  0  0
 17114  1  0  0  0  0
 18 19  1  0  0  0  0
 18115  1  0  0  0  0
 18116  1  0  0  0  0
 19 20  1  0  0  0  0
 19117  1  0  0  0  0
 19118  1  0  0  0  0
 20 21  1  0  0  0  0
 20 22  1  0  0  0  0
 20119  1  6  0  0  0
 21120  1  0  0  0  0
 22 23  1  0  0  0  0
 22 24  1  0  0  0  0
 22121  1  1  0  0  0
 23122  1  0  0  0  0
 24 25  1  0  0  0  0
 24 26  1  0  0  0  0
 24123  1  6  0  0  0
 25124  1  0  0  0  0
 26 27  1  0  0  0  0
 26 28  1  0  0  0  0
 26125  1  1  0  0  0
 27126  1  0  0  0  0
 27127  1  0  0  0  0
 27128  1  0  0  0  0
 28 29  1  0  0  0  0
 28129  1  0  0  0  0
 28130  1  0  0  0  0
 29 30  1  0  0  0  0
 29131  1  0  0  0  0
 29132  1  0  0  0  0
 30 31  1  0  0  0  0
 30 32  1  0  0  0  0
 30133  1  1  0  0  0
 31134  1  0  0  0  0
 32 33  1  0  0  0  0
 32 34  1  0  0  0  0
 32135  1  1  0  0  0
 33136  1  0  0  0  0
 34 35  1  0  0  0  0
 34 36  1  0  0  0  0
 34137  1  1  0  0  0
 35138  1  0  0  0  0
 35139  1  0  0  0  0
 35140  1  0  0  0  0
 36 37  1  0  0  0  0
 36141  1  0  0  0  0
 36142  1  0  0  0  0
 37 38  1  0  0  0  0
 37 39  1  0  0  0  0
 37143  1  1  0  0  0
 38144  1  0  0  0  0
 39 40  1  0  0  0  0
 39145  1  0  0  0  0
 39146  1  0  0  0  0
 40 41  1  0  0  0  0
 40147  1  0  0  0  0
 40148  1  0  0  0  0
 41 42  1  0  0  0  0
 41149  1  0  0  0  0
 41150  1  0  0  0  0
 42 43  1  0  0  0  0
 42 44  1  0  0  0  0
 42151  1  1  0  0  0
 43152  1  0  0  0  0
 44 45  1  0  0  0  0
 44153  1  0  0  0  0
 44154  1  0  0  0  0
 45 46  1  0  0  0  0
 45155  1  0  0  0  0
 45156  1  0  0  0  0
 46 47  1  0  0  0  0
 46157  1  0  0  0  0
 46158  1  0  0  0  0
 47 48  1  0  0  0  0
 47 49  1  0  0  0  0
 47159  1  6  0  0  0
 48160  1  0  0  0  0
 49 50  2  0  0  0  0
 49161  1  0  0  0  0
 50 51  1  0  0  0  0
 50162  1  0  0  0  0
 51 52  1  0  0  0  0
 51163  1  0  0  0  0
 51164  1  0  0  0  0
 52 53  1  0  0  0  0
 52 54  1  0  0  0  0
 52165  1  1  0  0  0
 53166  1  0  0  0  0
 54 55  1  0  0  0  0
 54167  1  0  0  0  0
 54168  1  0  0  0  0
 55169  1  0  0  0  0
 56 57  1  0  0  0  0
 56 58  1  0  0  0  0
 56170  1  1  0  0  0
 57171  1  0  0  0  0
 58 59  1  0  0  0  0
 58 60  1  0  0  0  0
 58172  1  1  0  0  0
 59173  1  0  0  0  0
 60 61  1  0  0  0  0
 60  7  1  0  0  0  0
 60174  1  6  0  0  0
 61175  1  0  0  0  0
 62 63  1  0  0  0  0
 62 64  1  0  0  0  0
 62176  1  1  0  0  0
 63177  1  0  0  0  0
 64 65  1  0  0  0  0
 64 66  1  0  0  0  0
 64178  1  6  0  0  0
 65179  1  0  0  0  0
 66 67  1  0  0  0  0
 66180  1  6  0  0  0
 67 68  1  0  0  0  0
 67181  1  0  0  0  0
 67182  1  0  0  0  0
 68 69  1  0  0  0  0
 68 70  1  0  0  0  0
 68183  1  6  0  0  0
 69184  1  0  0  0  0
 70 71  1  0  0  0  0
 70 72  1  0  0  0  0
 70185  1  6  0  0  0
 71186  1  0  0  0  0
 72 73  1  0  0  0  0
 72 92  1  0  0  0  0
 72187  1  1  0  0  0
 73 74  1  1  0  0  0
 73 75  1  0  0  0  0
 74188  1  0  0  0  0
 75 76  1  1  0  0  0
 75 77  1  0  0  0  0
 76189  1  0  0  0  0
 77 78  2  0  0  0  0
 77190  1  0  0  0  0
 78 79  1  0  0  0  0
 78191  1  0  0  0  0
 79 80  1  0  0  0  0
 80 81  1  0  0  0  0
 81 82  1  0  0  0  0
 82 83  1  0  0  0  0
 83 84  1  0  0  0  0
 84 85  1  0  0  0  0
 85 86  1  0  0  0  0
 86 87  1  0  0  0  0
 87 88  2  0  0  0  0
 87192  1  0  0  0  0
 88 89  1  0  0  0  0
 88193  1  0  0  0  0
 89 90  2  0  0  0  0
 89194  1  0  0  0  0
 90 91  1  0  0  0  0
 90195  1  0  0  0  0
 92 66  1  0  0  0  0
M  END
>  <IDENTIFIER>
CNP0054517.2

>  <Energy>
45286.7

$$$$
