
 OpenBabel09052509183D

 51 56  0  0  0  0  0  0  0  0999 V2000
    7.5538   -0.1509    1.5660 C   0  0  0  0  0  0  0  0  0  0  0  0
    7.4694   -0.9081    0.2392 C   0  0  0  0  0  0  0  0  0  0  0  0
    6.5777   -0.3121   -0.6372 O   0  0  0  0  0  0  0  0  0  0  0  0
    5.2224   -0.2650   -0.5270 C   0  0  0  0  0  0  0  0  0  0  0  0
    4.5170   -0.9367    0.4803 C   0  0  0  0  0  0  0  0  0  0  0  0
    3.1265   -0.8535    0.5534 C   0  0  0  0  0  0  0  0  0  0  0  0
    2.3725   -0.1017   -0.3838 C   0  0  0  0  0  0  0  0  0  0  0  0
    0.9200   -0.0159   -0.3031 N   0  0  0  0  0  0  0  0  0  0  0  0
    0.1099   -0.5820    0.6621 C   0  0  0  0  0  0  0  0  0  0  0  0
    0.4725   -1.3062    1.5723 O   0  0  0  0  0  0  0  0  0  0  0  0
   -1.2415    0.0253    0.5829 C   0  0  2  0  0  0  0  0  0  0  0  0
   -2.6490   -0.2862    1.1866 C   0  0  1  0  0  0  0  0  0  0  0  0
   -3.3503    1.0730    1.0296 C   0  0  0  0  0  0  0  0  0  0  0  0
   -3.8851    1.8176    2.0831 C   0  0  0  0  0  0  0  0  0  0  0  0
   -4.4592    3.0664    1.8158 C   0  0  0  0  0  0  0  0  0  0  0  0
   -4.4951    3.5683    0.5056 C   0  0  0  0  0  0  0  0  0  0  0  0
   -3.9589    2.8288   -0.5572 C   0  0  0  0  0  0  0  0  0  0  0  0
   -3.3806    1.5793   -0.3010 C   0  0  0  0  0  0  0  0  0  0  0  0
   -2.7850    0.6193   -1.3401 C   0  0  2  0  0  0  0  0  0  0  0  0
   -2.8555    1.2244   -3.1963 Br  0  0  0  0  0  0  0  0  0  0  0  0
   -3.5631   -0.6995   -1.0789 C   0  0  0  0  0  0  0  0  0  0  0  0
   -4.3009   -1.4357   -2.0172 C   0  0  0  0  0  0  0  0  0  0  0  0
   -4.9074   -2.6381   -1.6273 C   0  0  0  0  0  0  0  0  0  0  0  0
   -4.7803   -3.1102   -0.3119 C   0  0  0  0  0  0  0  0  0  0  0  0
   -4.0471   -2.3857    0.6342 C   0  0  0  0  0  0  0  0  0  0  0  0
   -3.4385   -1.1897    0.2527 C   0  0  0  0  0  0  0  0  0  0  0  0
   -1.3285    0.1993   -0.9278 C   0  0  1  0  0  0  0  0  0  0  0  0
    0.0734    0.6477   -1.1717 C   0  0  0  0  0  0  0  0  0  0  0  0
    0.4141    1.3319   -2.1210 O   0  0  0  0  0  0  0  0  0  0  0  0
    3.1096    0.5580   -1.4019 C   0  0  0  0  0  0  0  0  0  0  0  0
    4.5044    0.4752   -1.4652 C   0  0  0  0  0  0  0  0  0  0  0  0
    8.3031   -0.6414    2.2226 H   0  0  0  0  0  0  0  0  0  0  0  0
    6.5833   -0.1404    2.0997 H   0  0  0  0  0  0  0  0  0  0  0  0
    7.8682    0.8980    1.3845 H   0  0  0  0  0  0  0  0  0  0  0  0
    7.1980   -1.9734    0.4015 H   0  0  0  0  0  0  0  0  0  0  0  0
    8.4778   -0.8835   -0.2249 H   0  0  0  0  0  0  0  0  0  0  0  0
    5.0293   -1.5346    1.2203 H   0  0  0  0  0  0  0  0  0  0  0  0
    2.6860   -1.4000    1.3627 H   0  0  0  0  0  0  0  0  0  0  0  0
   -0.9910    1.0156    1.0520 H   0  0  0  0  0  0  0  0  0  0  0  0
   -2.6048   -0.6140    2.2474 H   0  0  0  0  0  0  0  0  0  0  0  0
   -3.8510    1.4400    3.0968 H   0  0  0  0  0  0  0  0  0  0  0  0
   -4.8751    3.6504    2.6264 H   0  0  0  0  0  0  0  0  0  0  0  0
   -4.9431    4.5348    0.3141 H   0  0  0  0  0  0  0  0  0  0  0  0
   -4.0043    3.2311   -1.5595 H   0  0  0  0  0  0  0  0  0  0  0  0
   -4.4066   -1.0998   -3.0387 H   0  0  0  0  0  0  0  0  0  0  0  0
   -5.4764   -3.2104   -2.3484 H   0  0  0  0  0  0  0  0  0  0  0  0
   -5.2544   -4.0400   -0.0257 H   0  0  0  0  0  0  0  0  0  0  0  0
   -3.9577   -2.7491    1.6500 H   0  0  0  0  0  0  0  0  0  0  0  0
   -1.2354   -0.8059   -1.4214 H   0  0  0  0  0  0  0  0  0  0  0  0
    2.6506    1.1519   -2.1682 H   0  0  0  0  0  0  0  0  0  0  0  0
    5.0326    0.9951   -2.2554 H   0  0  0  0  0  0  0  0  0  0  0  0
  1  2  1  0  0  0  0
  1 32  1  0  0  0  0
  1 33  1  0  0  0  0
  1 34  1  0  0  0  0
  2  3  1  0  0  0  0
  2 35  1  0  0  0  0
  2 36  1  0  0  0  0
  3  4  1  0  0  0  0
  4  5  2  0  0  0  0
  5  6  1  0  0  0  0
  5 37  1  0  0  0  0
  6  7  2  0  0  0  0
  6 38  1  0  0  0  0
  7  8  1  0  0  0  0
  7 30  1  0  0  0  0
  8  9  1  0  0  0  0
  9 10  2  0  0  0  0
 11  9  1  0  0  0  0
 11 12  1  0  0  0  0
 11 39  1  1  0  0  0
 12 13  1  0  0  0  0
 12 40  1  1  0  0  0
 13 14  2  0  0  0  0
 14 15  1  0  0  0  0
 14 41  1  0  0  0  0
 15 16  2  0  0  0  0
 15 42  1  0  0  0  0
 16 17  1  0  0  0  0
 16 43  1  0  0  0  0
 17 18  2  0  0  0  0
 17 44  1  0  0  0  0
 18 19  1  0  0  0  0
 18 13  1  0  0  0  0
 19 20  1  6  0  0  0
 19 21  1  0  0  0  0
 19 27  1  0  0  0  0
 21 22  2  0  0  0  0
 22 23  1  0  0  0  0
 22 45  1  0  0  0  0
 23 24  2  0  0  0  0
 23 46  1  0  0  0  0
 24 25  1  0  0  0  0
 24 47  1  0  0  0  0
 25 26  2  0  0  0  0
 25 48  1  0  0  0  0
 26 12  1  0  0  0  0
 26 21  1  0  0  0  0
 27 28  1  0  0  0  0
 27 11  1  0  0  0  0
 27 49  1  6  0  0  0
 28 29  2  0  0  0  0
 28  8  1  0  0  0  0
 30 31  2  0  0  0  0
 30 50  1  0  0  0  0
 31  4  1  0  0  0  0
 31 51  1  0  0  0  0
M  END
>  <IDENTIFIER>
CNP0370705.6

>  <Energy>
935.581

$$$$
