
 OpenBabel09062517413D

 40 42  0  0  0  0  0  0  0  0999 V2000
    4.1124    1.1493   -0.6941 C   0  0  0  0  0  0  0  0  0  0  0  0
    3.3821   -0.0942   -0.2998 C   0  0  0  0  0  0  0  0  0  0  0  0
    3.8848   -1.3877   -0.3573 C   0  0  0  0  0  0  0  0  0  0  0  0
    2.9699   -2.2417    0.0601 O   0  0  0  0  0  0  0  0  0  0  0  0
    1.9075   -1.5522    0.4029 C   0  0  0  0  0  0  0  0  0  0  0  0
    2.0972   -0.2212    0.1947 C   0  0  0  0  0  0  0  0  0  0  0  0
    0.9660    0.7256    0.4989 C   0  0  1  0  0  0  0  0  0  0  0  0
    1.2784    2.0631    0.1942 O   0  0  0  0  0  0  0  0  0  0  0  0
   -0.3953    0.1971   -0.1424 C   0  0  1  0  0  0  0  0  0  0  0  0
   -0.3978    0.5451   -1.6587 C   0  0  0  0  0  0  0  0  0  0  0  0
   -0.5017   -1.4187    0.0014 C   0  0  2  0  0  0  0  0  0  0  0  0
   -1.8937   -1.9406    0.4576 C   0  0  0  0  0  0  0  0  0  0  0  0
   -2.9903   -1.1989   -0.2923 C   0  0  0  0  0  0  0  0  0  0  0  0
   -3.0197    0.2827    0.1444 C   0  0  2  0  0  0  0  0  0  0  0  0
   -3.6753    1.0665   -0.8230 O   0  0  0  0  0  0  0  0  0  0  0  0
   -1.6271    0.8458    0.6006 C   0  0  2  0  0  0  0  0  0  0  0  0
   -1.6673    2.3848    0.6728 C   0  0  0  0  0  0  0  0  0  0  0  0
    0.5937   -2.0564    0.8930 C   0  0  0  0  0  0  0  0  0  0  0  0
    5.1429    0.9017   -1.0263 H   0  0  0  0  0  0  0  0  0  0  0  0
    4.1738    1.8378    0.1742 H   0  0  0  0  0  0  0  0  0  0  0  0
    3.5907    1.6498   -1.5342 H   0  0  0  0  0  0  0  0  0  0  0  0
    4.8714   -1.6725   -0.6990 H   0  0  0  0  0  0  0  0  0  0  0  0
    0.8504    0.6589    1.6028 H   0  0  0  0  0  0  0  0  0  0  0  0
    1.5047    2.1153   -0.7676 H   0  0  0  0  0  0  0  0  0  0  0  0
    0.5081    0.1279   -2.1485 H   0  0  0  0  0  0  0  0  0  0  0  0
   -0.4099    1.6396   -1.8328 H   0  0  0  0  0  0  0  0  0  0  0  0
   -1.2612    0.1133   -2.1925 H   0  0  0  0  0  0  0  0  0  0  0  0
   -0.3207   -1.8456   -1.0131 H   0  0  0  0  0  0  0  0  0  0  0  0
   -2.0494   -1.7892    1.5485 H   0  0  0  0  0  0  0  0  0  0  0  0
   -1.9518   -3.0326    0.2558 H   0  0  0  0  0  0  0  0  0  0  0  0
   -3.9933   -1.6461   -0.1220 H   0  0  0  0  0  0  0  0  0  0  0  0
   -2.7713   -1.3003   -1.3755 H   0  0  0  0  0  0  0  0  0  0  0  0
   -3.6458    0.3527    1.0627 H   0  0  0  0  0  0  0  0  0  0  0  0
   -3.0974    1.1225   -1.6221 H   0  0  0  0  0  0  0  0  0  0  0  0
   -1.5024    0.5028    1.6539 H   0  0  0  0  0  0  0  0  0  0  0  0
   -1.7557    2.8343   -0.3373 H   0  0  0  0  0  0  0  0  0  0  0  0
   -0.7725    2.7940    1.1781 H   0  0  0  0  0  0  0  0  0  0  0  0
   -2.5419    2.7075    1.2772 H   0  0  0  0  0  0  0  0  0  0  0  0
    0.5654   -3.1674    0.8739 H   0  0  0  0  0  0  0  0  0  0  0  0
    0.4464   -1.7134    1.9401 H   0  0  0  0  0  0  0  0  0  0  0  0
  1  2  1  0  0  0  0
  1 19  1  0  0  0  0
  1 20  1  0  0  0  0
  1 21  1  0  0  0  0
  2  3  2  0  0  0  0
  3  4  1  0  0  0  0
  3 22  1  0  0  0  0
  4  5  1  0  0  0  0
  5  6  2  0  0  0  0
  6  7  1  0  0  0  0
  6  2  1  0  0  0  0
  7  8  1  0  0  0  0
  7  9  1  0  0  0  0
  7 23  1  1  0  0  0
  8 24  1  0  0  0  0
  9 10  1  6  0  0  0
  9 11  1  0  0  0  0
 10 25  1  0  0  0  0
 10 26  1  0  0  0  0
 10 27  1  0  0  0  0
 11 12  1  0  0  0  0
 11 18  1  0  0  0  0
 11 28  1  6  0  0  0
 12 13  1  0  0  0  0
 12 29  1  0  0  0  0
 12 30  1  0  0  0  0
 13 14  1  0  0  0  0
 13 31  1  0  0  0  0
 13 32  1  0  0  0  0
 14 15  1  0  0  0  0
 14 16  1  0  0  0  0
 14 33  1  1  0  0  0
 15 34  1  0  0  0  0
 16 17  1  0  0  0  0
 16  9  1  0  0  0  0
 16 35  1  1  0  0  0
 17 36  1  0  0  0  0
 17 37  1  0  0  0  0
 17 38  1  0  0  0  0
 18  5  1  0  0  0  0
 18 39  1  0  0  0  0
 18 40  1  0  0  0  0
M  END
>  <IDENTIFIER>
CNP0384837.3

>  <Energy>
573.379

$$$$
