
 OpenBabel09052512463D

 60 63  0  0  0  0  0  0  0  0999 V2000
    4.9579    2.3353    2.0367 C   0  0  0  0  0  0  0  0  0  0  0  0
    5.0430    0.9081    1.5496 C   0  0  0  0  0  0  0  0  0  0  0  0
    6.2049    0.1898    1.8721 C   0  0  0  0  0  0  0  0  0  0  0  0
    6.3753   -1.1324    1.4642 C   0  0  0  0  0  0  0  0  0  0  0  0
    7.5088   -1.7971    1.7752 O   0  0  0  0  0  0  0  0  0  0  0  0
    5.3691   -1.7684    0.7275 C   0  0  0  0  0  0  0  0  0  0  0  0
    5.5250   -3.0486    0.3216 O   0  0  0  0  0  0  0  0  0  0  0  0
    4.1890   -1.0744    0.3949 C   0  0  0  0  0  0  0  0  0  0  0  0
    3.2341   -1.7029   -0.3251 O   0  0  0  0  0  0  0  0  0  0  0  0
    4.0051    0.2781    0.7929 C   0  0  0  0  0  0  0  0  0  0  0  0
    2.7541    1.0138    0.3820 C   0  0  0  0  0  0  0  0  0  0  0  0
    2.6539    2.2151    0.5839 O   0  0  0  0  0  0  0  0  0  0  0  0
    1.7425    0.3720   -0.2666 O   0  0  0  0  0  0  0  0  0  0  0  0
    0.8506    1.0302   -1.0960 C   0  0  2  0  0  0  0  0  0  0  0  0
   -0.1347    2.0026   -0.3560 C   0  0  0  0  0  0  0  0  0  0  0  0
   -1.3601    1.2678   -0.9800 C   0  0  1  0  0  0  0  0  0  0  0  0
   -1.9557    2.0562   -2.1708 C   0  0  0  0  0  0  0  0  0  0  0  0
   -0.3697    0.2784   -1.4257 C   0  0  0  0  0  0  0  0  0  0  0  0
   -0.6651   -0.9434   -1.9176 C   0  0  0  0  0  0  0  0  0  0  0  0
    0.4063   -1.9335   -2.3013 C   0  0  0  0  0  0  0  0  0  0  0  0
    0.3335   -3.0800   -1.5004 O   0  0  0  0  0  0  0  0  0  0  0  0
   -2.1583   -1.2644   -1.9780 C   0  0  1  0  0  0  0  0  0  0  0  0
   -2.4246   -2.5969   -2.3357 O   0  0  0  0  0  0  0  0  0  0  0  0
   -2.8321   -0.8602   -0.6235 C   0  0  2  0  0  0  0  0  0  0  0  0
   -4.3617   -0.7725   -0.6494 C   0  0  0  0  0  0  0  0  0  0  0  0
   -4.6935    0.1627    0.5333 C   0  0  0  0  0  0  0  0  0  0  0  0
   -4.5140   -0.5360    1.9032 C   0  0  0  0  0  0  0  0  0  0  0  0
   -6.1355    0.6986    0.4449 C   0  0  0  0  0  0  0  0  0  0  0  0
   -3.6543    1.2782    0.3195 C   0  0  0  0  0  0  0  0  0  0  0  0
   -2.3608    0.5236   -0.0426 C   0  0  2  0  0  0  0  0  0  0  0  0
    5.8547    2.6330    2.6211 H   0  0  0  0  0  0  0  0  0  0  0  0
    4.0762    2.4533    2.7015 H   0  0  0  0  0  0  0  0  0  0  0  0
    4.8864    3.0317    1.1759 H   0  0  0  0  0  0  0  0  0  0  0  0
    6.9957    0.6626    2.4430 H   0  0  0  0  0  0  0  0  0  0  0  0
    8.2297   -1.3865    2.2741 H   0  0  0  0  0  0  0  0  0  0  0  0
    6.3192   -3.5686    0.5085 H   0  0  0  0  0  0  0  0  0  0  0  0
    3.3121   -2.6177   -0.6300 H   0  0  0  0  0  0  0  0  0  0  0  0
    1.3148    1.4093   -2.0321 H   0  0  0  0  0  0  0  0  0  0  0  0
   -0.0039    3.0762   -0.6123 H   0  0  0  0  0  0  0  0  0  0  0  0
   -0.1046    1.8077    0.7406 H   0  0  0  0  0  0  0  0  0  0  0  0
   -1.1541    2.3971   -2.8619 H   0  0  0  0  0  0  0  0  0  0  0  0
   -2.4665    2.9659   -1.7930 H   0  0  0  0  0  0  0  0  0  0  0  0
   -2.6930    1.4787   -2.7544 H   0  0  0  0  0  0  0  0  0  0  0  0
    1.4240   -1.4925   -2.2297 H   0  0  0  0  0  0  0  0  0  0  0  0
    0.2603   -2.2258   -3.3617 H   0  0  0  0  0  0  0  0  0  0  0  0
    0.6313   -2.8107   -0.5915 H   0  0  0  0  0  0  0  0  0  0  0  0
   -2.5865   -0.6309   -2.7740 H   0  0  0  0  0  0  0  0  0  0  0  0
   -2.2220   -3.1671   -1.5492 H   0  0  0  0  0  0  0  0  0  0  0  0
   -2.5437   -1.6195    0.1389 H   0  0  0  0  0  0  0  0  0  0  0  0
   -4.8783   -1.7560   -0.6478 H   0  0  0  0  0  0  0  0  0  0  0  0
   -4.6495   -0.2395   -1.5853 H   0  0  0  0  0  0  0  0  0  0  0  0
   -5.2313   -1.3796    1.9964 H   0  0  0  0  0  0  0  0  0  0  0  0
   -4.7137    0.1848    2.7249 H   0  0  0  0  0  0  0  0  0  0  0  0
   -3.4947   -0.9388    2.0598 H   0  0  0  0  0  0  0  0  0  0  0  0
   -6.8658   -0.1343    0.5303 H   0  0  0  0  0  0  0  0  0  0  0  0
   -6.3105    1.2108   -0.5259 H   0  0  0  0  0  0  0  0  0  0  0  0
   -6.3288    1.4295    1.2593 H   0  0  0  0  0  0  0  0  0  0  0  0
   -3.5475    2.0229    1.1375 H   0  0  0  0  0  0  0  0  0  0  0  0
   -3.9991    1.8290   -0.5809 H   0  0  0  0  0  0  0  0  0  0  0  0
   -1.8283    0.2585    0.9001 H   0  0  0  0  0  0  0  0  0  0  0  0
  1  2  1  0  0  0  0
  1 31  1  0  0  0  0
  1 32  1  0  0  0  0
  1 33  1  0  0  0  0
  2  3  2  0  0  0  0
  3  4  1  0  0  0  0
  3 34  1  0  0  0  0
  4  5  1  0  0  0  0
  4  6  2  0  0  0  0
  5 35  1  0  0  0  0
  6  7  1  0  0  0  0
  6  8  1  0  0  0  0
  7 36  1  0  0  0  0
  8  9  1  0  0  0  0
  8 10  2  0  0  0  0
  9 37  1  0  0  0  0
 10 11  1  0  0  0  0
 10  2  1  0  0  0  0
 11 12  2  0  0  0  0
 11 13  1  0  0  0  0
 14 13  1  0  0  0  0
 14 15  1  0  0  0  0
 14 38  1  6  0  0  0
 15 16  1  0  0  0  0
 15 39  1  0  0  0  0
 15 40  1  0  0  0  0
 16 17  1  6  0  0  0
 16 18  1  0  0  0  0
 17 41  1  0  0  0  0
 17 42  1  0  0  0  0
 17 43  1  0  0  0  0
 18 19  2  0  0  0  0
 18 14  1  0  0  0  0
 19 20  1  0  0  0  0
 19 22  1  0  0  0  0
 20 21  1  0  0  0  0
 20 44  1  0  0  0  0
 20 45  1  0  0  0  0
 21 46  1  0  0  0  0
 22 23  1  0  0  0  0
 22 24  1  0  0  0  0
 22 47  1  6  0  0  0
 23 48  1  0  0  0  0
 24 25  1  0  0  0  0
 24 49  1  1  0  0  0
 25 26  1  0  0  0  0
 25 50  1  0  0  0  0
 25 51  1  0  0  0  0
 26 27  1  0  0  0  0
 26 28  1  0  0  0  0
 26 29  1  0  0  0  0
 27 52  1  0  0  0  0
 27 53  1  0  0  0  0
 27 54  1  0  0  0  0
 28 55  1  0  0  0  0
 28 56  1  0  0  0  0
 28 57  1  0  0  0  0
 29 58  1  0  0  0  0
 29 59  1  0  0  0  0
 30 29  1  0  0  0  0
 30 24  1  0  0  0  0
 30 16  1  0  0  0  0
 30 60  1  1  0  0  0
M  END
>  <IDENTIFIER>
CNP0389047.1

>  <Energy>
1084.94

$$$$
