
 OpenBabel09092511503D

 67 68  0  0  0  0  0  0  0  0999 V2000
  -10.5452   -0.6890    2.4319 C   0  0  0  0  0  0  0  0  0  0  0  0
   -9.8374    0.3874    2.8024 C   0  0  0  0  0  0  0  0  0  0  0  0
   -8.8970    1.1801    1.9134 C   0  0  0  0  0  0  0  0  0  0  0  0
   -8.6511    0.6341    0.4954 C   0  0  0  0  0  0  0  0  0  0  0  0
   -7.8754   -0.6690    0.5376 C   0  0  0  0  0  0  0  0  0  0  0  0
   -6.6764   -0.9130   -0.0282 C   0  0  0  0  0  0  0  0  0  0  0  0
   -5.8843    0.0586   -0.8360 C   0  0  0  0  0  0  0  0  0  0  0  0
   -4.6657   -0.1795   -1.3619 C   0  0  0  0  0  0  0  0  0  0  0  0
   -3.8768   -1.4664   -1.2598 C   0  0  0  0  0  0  0  0  0  0  0  0
   -2.6251   -1.4030   -0.3573 C   0  0  0  0  0  0  0  0  0  0  0  0
   -1.4268   -0.5650   -0.8466 C   0  0  0  0  0  0  0  0  0  0  0  0
   -1.5488    0.9459   -0.6512 C   0  0  0  0  0  0  0  0  0  0  0  0
   -0.4148    1.7988   -1.2595 C   0  0  0  0  0  0  0  0  0  0  0  0
    0.9963    1.7409   -0.6311 C   0  0  0  0  0  0  0  0  0  0  0  0
    2.0334    0.7650   -1.2353 C   0  0  2  0  0  0  0  0  0  0  0  0
    1.8474   -0.7176   -0.9374 C   0  0  0  0  0  0  0  0  0  0  0  0
    3.2402   -1.1965   -1.1868 C   0  0  0  0  0  0  0  0  0  0  0  0
    3.9915   -0.0954   -0.4583 C   0  0  1  0  0  0  0  0  0  0  0  0
    5.4750   -0.0057   -0.8423 C   0  0  2  0  0  0  0  0  0  0  0  0
    6.2558   -1.3134   -0.5541 C   0  0  0  0  0  0  0  0  0  0  0  0
    7.6950   -0.8960   -0.2872 C   0  0  0  0  0  0  0  0  0  0  0  0
    7.6319   -0.0083    0.9887 C   0  0  1  0  0  0  0  0  0  0  0  0
    8.8681    0.8847    1.1949 C   0  0  0  0  0  0  0  0  0  0  0  0
   10.1636    0.1377    1.4091 C   0  0  0  0  0  0  0  0  0  0  0  0
   10.1988   -1.0828    1.4219 O   0  0  0  0  0  0  0  0  0  0  0  0
   11.3045    0.8261    1.6211 O   0  0  0  0  0  0  0  0  0  0  0  0
    6.4417    0.7744    1.0265 O   0  0  0  0  0  0  0  0  0  0  0  0
    6.0921    1.1132   -0.2112 O   0  0  0  0  0  0  0  0  0  0  0  0
    3.3229    1.1145   -0.7525 O   0  0  0  0  0  0  0  0  0  0  0  0
  -11.1966   -1.1747    3.1511 H   0  0  0  0  0  0  0  0  0  0  0  0
  -10.5113   -1.0989    1.4308 H   0  0  0  0  0  0  0  0  0  0  0  0
   -9.9582    0.7404    3.8219 H   0  0  0  0  0  0  0  0  0  0  0  0
   -7.9129    1.2695    2.4235 H   0  0  0  0  0  0  0  0  0  0  0  0
   -9.3276    2.2007    1.8297 H   0  0  0  0  0  0  0  0  0  0  0  0
   -8.1045    1.4147   -0.0604 H   0  0  0  0  0  0  0  0  0  0  0  0
   -9.6188    0.4895   -0.0288 H   0  0  0  0  0  0  0  0  0  0  0  0
   -8.3171   -1.4950    1.0830 H   0  0  0  0  0  0  0  0  0  0  0  0
   -6.2920   -1.9087    0.1395 H   0  0  0  0  0  0  0  0  0  0  0  0
   -6.2837    1.0450   -1.0285 H   0  0  0  0  0  0  0  0  0  0  0  0
   -4.2299    0.6277   -1.9310 H   0  0  0  0  0  0  0  0  0  0  0  0
   -3.6003   -1.8002   -2.2827 H   0  0  0  0  0  0  0  0  0  0  0  0
   -4.4985   -2.2745   -0.8412 H   0  0  0  0  0  0  0  0  0  0  0  0
   -2.2532   -2.4517   -0.3206 H   0  0  0  0  0  0  0  0  0  0  0  0
   -2.9014   -1.1191    0.6818 H   0  0  0  0  0  0  0  0  0  0  0  0
   -1.2151   -0.8186   -1.9074 H   0  0  0  0  0  0  0  0  0  0  0  0
   -0.5889   -0.8736   -0.2026 H   0  0  0  0  0  0  0  0  0  0  0  0
   -1.6541    1.1726    0.4326 H   0  0  0  0  0  0  0  0  0  0  0  0
   -2.4539    1.3080   -1.1492 H   0  0  0  0  0  0  0  0  0  0  0  0
   -0.7665    2.8395   -1.0731 H   0  0  0  0  0  0  0  0  0  0  0  0
   -0.3546    1.6826   -2.3633 H   0  0  0  0  0  0  0  0  0  0  0  0
    0.9464    1.6847    0.4773 H   0  0  0  0  0  0  0  0  0  0  0  0
    1.4373    2.7347   -0.8738 H   0  0  0  0  0  0  0  0  0  0  0  0
    2.0629    0.9057   -2.3407 H   0  0  0  0  0  0  0  0  0  0  0  0
    1.1002   -1.2357   -1.5694 H   0  0  0  0  0  0  0  0  0  0  0  0
    1.6254   -0.8596    0.1466 H   0  0  0  0  0  0  0  0  0  0  0  0
    3.4487   -1.1418   -2.2805 H   0  0  0  0  0  0  0  0  0  0  0  0
    3.4527   -2.2242   -0.8213 H   0  0  0  0  0  0  0  0  0  0  0  0
    3.9100   -0.2606    0.6416 H   0  0  0  0  0  0  0  0  0  0  0  0
    5.5702    0.1903   -1.9333 H   0  0  0  0  0  0  0  0  0  0  0  0
    6.1467   -2.0276   -1.3991 H   0  0  0  0  0  0  0  0  0  0  0  0
    5.8819   -1.8109    0.3692 H   0  0  0  0  0  0  0  0  0  0  0  0
    8.0562   -0.3166   -1.1670 H   0  0  0  0  0  0  0  0  0  0  0  0
    8.3651   -1.7673   -0.1414 H   0  0  0  0  0  0  0  0  0  0  0  0
    7.5404   -0.6999    1.8562 H   0  0  0  0  0  0  0  0  0  0  0  0
    8.6955    1.5083    2.0986 H   0  0  0  0  0  0  0  0  0  0  0  0
    8.9743    1.5628    0.3209 H   0  0  0  0  0  0  0  0  0  0  0  0
   11.3142    1.7940    1.6358 H   0  0  0  0  0  0  0  0  0  0  0  0
  1  2  2  0  0  0  0
  1 30  1  0  0  0  0
  1 31  1  0  0  0  0
  2  3  1  0  0  0  0
  2 32  1  0  0  0  0
  3  4  1  0  0  0  0
  3 33  1  0  0  0  0
  3 34  1  0  0  0  0
  4  5  1  0  0  0  0
  4 35  1  0  0  0  0
  4 36  1  0  0  0  0
  5  6  2  0  0  0  0
  5 37  1  0  0  0  0
  6  7  1  0  0  0  0
  6 38  1  0  0  0  0
  7  8  2  0  0  0  0
  7 39  1  0  0  0  0
  8  9  1  0  0  0  0
  8 40  1  0  0  0  0
  9 10  1  0  0  0  0
  9 41  1  0  0  0  0
  9 42  1  0  0  0  0
 10 11  1  0  0  0  0
 10 43  1  0  0  0  0
 10 44  1  0  0  0  0
 11 12  1  0  0  0  0
 11 45  1  0  0  0  0
 11 46  1  0  0  0  0
 12 13  1  0  0  0  0
 12 47  1  0  0  0  0
 12 48  1  0  0  0  0
 13 14  1  0  0  0  0
 13 49  1  0  0  0  0
 13 50  1  0  0  0  0
 14 51  1  0  0  0  0
 14 52  1  0  0  0  0
 15 14  1  0  0  0  0
 15 16  1  0  0  0  0
 15 53  1  6  0  0  0
 16 17  1  0  0  0  0
 16 54  1  0  0  0  0
 16 55  1  0  0  0  0
 17 56  1  0  0  0  0
 17 57  1  0  0  0  0
 18 17  1  0  0  0  0
 18 19  1  0  0  0  0
 18 29  1  0  0  0  0
 18 58  1  1  0  0  0
 19 20  1  0  0  0  0
 19 59  1  6  0  0  0
 20 21  1  0  0  0  0
 20 60  1  0  0  0  0
 20 61  1  0  0  0  0
 21 22  1  0  0  0  0
 21 62  1  0  0  0  0
 21 63  1  0  0  0  0
 22 23  1  0  0  0  0
 22 27  1  0  0  0  0
 22 64  1  1  0  0  0
 23 24  1  0  0  0  0
 23 65  1  0  0  0  0
 23 66  1  0  0  0  0
 24 25  2  0  0  0  0
 24 26  1  0  0  0  0
 26 67  1  0  0  0  0
 27 28  1  0  0  0  0
 28 19  1  0  0  0  0
 29 15  1  0  0  0  0
M  END
>  <IDENTIFIER>
CNP0186740.4

>  <Energy>
559.864

$$$$
