
 OpenBabel09052520403D

 78 77  0  0  0  0  0  0  0  0999 V2000
  -11.1593    1.6586    2.8665 C   0  0  0  0  0  0  0  0  0  0  0  0
  -11.3600    0.8558    1.9901 C   0  0  0  0  0  0  0  0  0  0  0  0
  -11.6747   -0.1181    0.9336 C   0  0  2  0  0  0  0  0  0  0  0  0
  -11.9279   -1.3881    1.4793 O   0  0  0  0  0  0  0  0  0  0  0  0
  -10.6226   -0.1897   -0.1458 C   0  0  0  0  0  0  0  0  0  0  0  0
   -9.3682   -0.6361    0.0564 C   0  0  0  0  0  0  0  0  0  0  0  0
   -8.4155   -0.7687   -1.1094 C   0  0  0  0  0  0  0  0  0  0  0  0
   -7.0935    0.0067   -1.0066 C   0  0  0  0  0  0  0  0  0  0  0  0
   -6.0146   -0.6456   -0.1274 C   0  0  0  0  0  0  0  0  0  0  0  0
   -6.1576   -0.5126    1.3978 C   0  0  0  0  0  0  0  0  0  0  0  0
   -6.1320    0.9362    1.9408 C   0  0  0  0  0  0  0  0  0  0  0  0
   -4.9629    1.7954    1.4288 C   0  0  0  0  0  0  0  0  0  0  0  0
   -3.6985    1.0638    1.4662 C   0  0  0  0  0  0  0  0  0  0  0  0
   -2.7198    0.3721    1.3968 C   0  0  0  0  0  0  0  0  0  0  0  0
   -1.5148   -0.4201    1.2083 C   0  0  0  0  0  0  0  0  0  0  0  0
   -0.3746    0.5455    1.1758 C   0  0  0  0  0  0  0  0  0  0  0  0
    0.4703    0.7534    0.1582 C   0  0  0  0  0  0  0  0  0  0  0  0
    0.4781    0.0774   -1.1932 C   0  0  0  0  0  0  0  0  0  0  0  0
    1.6791   -0.8733   -1.3311 C   0  0  0  0  0  0  0  0  0  0  0  0
    3.0084   -0.2555   -0.8545 C   0  0  0  0  0  0  0  0  0  0  0  0
    4.1937   -1.2201   -0.9902 C   0  0  0  0  0  0  0  0  0  0  0  0
    4.6189   -1.5048   -2.4472 C   0  0  0  0  0  0  0  0  0  0  0  0
    5.0559   -0.2475   -3.2473 C   0  0  0  0  0  0  0  0  0  0  0  0
    6.2249    0.5236   -2.6038 C   0  0  0  0  0  0  0  0  0  0  0  0
    7.5554   -0.2592   -2.6644 C   0  0  0  0  0  0  0  0  0  0  0  0
    8.6295    0.3005   -1.7086 C   0  0  0  0  0  0  0  0  0  0  0  0
    8.2969    0.0636   -0.2175 C   0  0  0  0  0  0  0  0  0  0  0  0
    8.2581   -1.4089    0.1661 C   0  0  0  0  0  0  0  0  0  0  0  0
    8.7768   -1.9048    1.3014 C   0  0  0  0  0  0  0  0  0  0  0  0
    9.4282   -1.0754    2.2820 C   0  0  0  0  0  0  0  0  0  0  0  0
    9.9696   -0.3549    3.0798 C   0  0  0  0  0  0  0  0  0  0  0  0
   10.6184    0.5365    4.0036 C   0  0  0  0  0  0  0  0  0  0  0  0
   10.7895    0.1920    5.1613 O   0  0  0  0  0  0  0  0  0  0  0  0
   11.0501    1.7466    3.5924 O   0  0  0  0  0  0  0  0  0  0  0  0
  -11.0134    2.3649    3.6408 H   0  0  0  0  0  0  0  0  0  0  0  0
  -12.6135    0.2330    0.4557 H   0  0  0  0  0  0  0  0  0  0  0  0
  -11.1275   -1.6653    1.9980 H   0  0  0  0  0  0  0  0  0  0  0  0
  -10.9295    0.1023   -1.1466 H   0  0  0  0  0  0  0  0  0  0  0  0
   -9.0726   -0.9537    1.0457 H   0  0  0  0  0  0  0  0  0  0  0  0
   -8.9246   -0.4010   -2.0271 H   0  0  0  0  0  0  0  0  0  0  0  0
   -8.1896   -1.8435   -1.2774 H   0  0  0  0  0  0  0  0  0  0  0  0
   -7.2498    1.0801   -0.7684 H   0  0  0  0  0  0  0  0  0  0  0  0
   -6.6644   -0.0351   -2.0329 H   0  0  0  0  0  0  0  0  0  0  0  0
   -5.0439   -0.1928   -0.4152 H   0  0  0  0  0  0  0  0  0  0  0  0
   -5.9326   -1.7222   -0.3924 H   0  0  0  0  0  0  0  0  0  0  0  0
   -5.2913   -1.0531    1.8394 H   0  0  0  0  0  0  0  0  0  0  0  0
   -7.0541   -1.0336    1.7740 H   0  0  0  0  0  0  0  0  0  0  0  0
   -6.0632    0.8634    3.0486 H   0  0  0  0  0  0  0  0  0  0  0  0
   -7.0772    1.4646    1.6949 H   0  0  0  0  0  0  0  0  0  0  0  0
   -4.8888    2.7358    2.0144 H   0  0  0  0  0  0  0  0  0  0  0  0
   -5.1385    2.0682    0.3671 H   0  0  0  0  0  0  0  0  0  0  0  0
   -1.6266   -1.0240    0.2880 H   0  0  0  0  0  0  0  0  0  0  0  0
   -1.3804   -1.1188    2.0600 H   0  0  0  0  0  0  0  0  0  0  0  0
   -0.2175    1.1354    2.0745 H   0  0  0  0  0  0  0  0  0  0  0  0
    1.2502    1.4892    0.3269 H   0  0  0  0  0  0  0  0  0  0  0  0
    0.5299    0.8790   -1.9616 H   0  0  0  0  0  0  0  0  0  0  0  0
   -0.4375   -0.5075   -1.4094 H   0  0  0  0  0  0  0  0  0  0  0  0
    1.7374   -1.1927   -2.3929 H   0  0  0  0  0  0  0  0  0  0  0  0
    1.4862   -1.7741   -0.7080 H   0  0  0  0  0  0  0  0  0  0  0  0
    2.9188   -0.0394    0.2312 H   0  0  0  0  0  0  0  0  0  0  0  0
    3.2087    0.7068   -1.3678 H   0  0  0  0  0  0  0  0  0  0  0  0
    3.9373   -2.1747   -0.4814 H   0  0  0  0  0  0  0  0  0  0  0  0
    5.0533   -0.8016   -0.4289 H   0  0  0  0  0  0  0  0  0  0  0  0
    3.7833   -1.9964   -2.9845 H   0  0  0  0  0  0  0  0  0  0  0  0
    5.4448   -2.2422   -2.4162 H   0  0  0  0  0  0  0  0  0  0  0  0
    4.1866    0.4365   -3.3313 H   0  0  0  0  0  0  0  0  0  0  0  0
    5.3330   -0.5429   -4.2811 H   0  0  0  0  0  0  0  0  0  0  0  0
    5.9264    0.7902   -1.5774 H   0  0  0  0  0  0  0  0  0  0  0  0
    6.3776    1.4925   -3.1272 H   0  0  0  0  0  0  0  0  0  0  0  0
    7.9177   -0.2114   -3.7143 H   0  0  0  0  0  0  0  0  0  0  0  0
    7.4190   -1.3266   -2.4358 H   0  0  0  0  0  0  0  0  0  0  0  0
    8.7379    1.3911   -1.8977 H   0  0  0  0  0  0  0  0  0  0  0  0
    9.6056   -0.1836   -1.9270 H   0  0  0  0  0  0  0  0  0  0  0  0
    7.3144    0.5055    0.0270 H   0  0  0  0  0  0  0  0  0  0  0  0
    9.0404    0.6078    0.4004 H   0  0  0  0  0  0  0  0  0  0  0  0
    7.7185   -2.1114   -0.4580 H   0  0  0  0  0  0  0  0  0  0  0  0
    8.6596   -2.9624    1.5181 H   0  0  0  0  0  0  0  0  0  0  0  0
   10.9837    2.0155    2.6644 H   0  0  0  0  0  0  0  0  0  0  0  0
  1  2  3  0  0  0  0
  1 35  1  0  0  0  0
  2  3  1  0  0  0  0
  3  4  1  0  0  0  0
  3  5  1  0  0  0  0
  3 36  1  6  0  0  0
  4 37  1  0  0  0  0
  5  6  2  0  0  0  0
  5 38  1  0  0  0  0
  6  7  1  0  0  0  0
  6 39  1  0  0  0  0
  7  8  1  0  0  0  0
  7 40  1  0  0  0  0
  7 41  1  0  0  0  0
  8  9  1  0  0  0  0
  8 42  1  0  0  0  0
  8 43  1  0  0  0  0
  9 10  1  0  0  0  0
  9 44  1  0  0  0  0
  9 45  1  0  0  0  0
 10 11  1  0  0  0  0
 10 46  1  0  0  0  0
 10 47  1  0  0  0  0
 11 12  1  0  0  0  0
 11 48  1  0  0  0  0
 11 49  1  0  0  0  0
 12 13  1  0  0  0  0
 12 50  1  0  0  0  0
 12 51  1  0  0  0  0
 13 14  3  0  0  0  0
 14 15  1  0  0  0  0
 15 16  1  0  0  0  0
 15 52  1  0  0  0  0
 15 53  1  0  0  0  0
 16 17  2  0  0  0  0
 16 54  1  0  0  0  0
 17 18  1  0  0  0  0
 17 55  1  0  0  0  0
 18 19  1  0  0  0  0
 18 56  1  0  0  0  0
 18 57  1  0  0  0  0
 19 20  1  0  0  0  0
 19 58  1  0  0  0  0
 19 59  1  0  0  0  0
 20 21  1  0  0  0  0
 20 60  1  0  0  0  0
 20 61  1  0  0  0  0
 21 22  1  0  0  0  0
 21 62  1  0  0  0  0
 21 63  1  0  0  0  0
 22 23  1  0  0  0  0
 22 64  1  0  0  0  0
 22 65  1  0  0  0  0
 23 24  1  0  0  0  0
 23 66  1  0  0  0  0
 23 67  1  0  0  0  0
 24 25  1  0  0  0  0
 24 68  1  0  0  0  0
 24 69  1  0  0  0  0
 25 26  1  0  0  0  0
 25 70  1  0  0  0  0
 25 71  1  0  0  0  0
 26 27  1  0  0  0  0
 26 72  1  0  0  0  0
 26 73  1  0  0  0  0
 27 28  1  0  0  0  0
 27 74  1  0  0  0  0
 27 75  1  0  0  0  0
 28 29  2  0  0  0  0
 28 76  1  0  0  0  0
 29 30  1  0  0  0  0
 29 77  1  0  0  0  0
 30 31  3  0  0  0  0
 31 32  1  0  0  0  0
 32 33  2  0  0  0  0
 32 34  1  0  0  0  0
 34 78  1  0  0  0  0
M  END
>  <IDENTIFIER>
CNP0430148.1

>  <Energy>
328.275

$$$$
