
 OpenBabel09122509453D

 71 73  0  0  0  0  0  0  0  0999 V2000
   -4.6541    3.8536    1.1083 C   0  0  0  0  0  0  0  0  0  0  0  0
   -4.5975    3.0369   -0.2018 C   0  0  0  0  0  0  0  0  0  0  0  0
   -5.9789    2.3782   -0.4150 C   0  0  0  0  0  0  0  0  0  0  0  0
   -4.3307    3.9770   -1.3997 C   0  0  0  0  0  0  0  0  0  0  0  0
   -3.5267    1.8990   -0.1090 C   0  0  0  0  0  0  0  0  0  0  0  0
   -2.0676    2.3040    0.0986 C   0  0  0  0  0  0  0  0  0  0  0  0
   -1.7739    3.4877    0.1712 O   0  0  0  0  0  0  0  0  0  0  0  0
   -1.0636    1.3693    0.1604 N   0  0  0  0  0  0  0  0  0  0  0  0
    0.3407    1.7382    0.1605 C   0  0  0  0  0  0  0  0  0  0  0  0
    1.0046    0.5105   -0.4592 C   0  0  1  0  0  0  0  0  0  0  0  0
    2.4275    0.4085   -0.1690 N   0  0  0  0  0  0  0  0  0  0  0  0
    3.3528    0.1155   -1.1262 C   0  0  0  0  0  0  0  0  0  0  0  0
    2.9943   -0.0714   -2.2822 O   0  0  0  0  0  0  0  0  0  0  0  0
    4.6727    0.0038   -0.7932 N   0  0  0  0  0  0  0  0  0  0  0  0
    5.6958   -0.4028   -1.7527 C   0  0  0  0  0  0  0  0  0  0  0  0
    6.4365   -1.6850   -1.2535 C   0  0  0  0  0  0  0  0  0  0  0  0
    7.9405   -1.4618   -0.9636 C   0  0  0  0  0  0  0  0  0  0  0  0
    8.0928   -0.2158   -0.0864 C   0  0  0  0  0  0  0  0  0  0  0  0
    7.5795    1.0571   -0.8030 C   0  0  0  0  0  0  0  0  0  0  0  0
    6.6782    0.7468   -2.0159 C   0  0  0  0  0  0  0  0  0  0  0  0
    0.2080   -0.6070    0.1606 C   0  0  0  0  0  0  0  0  0  0  0  0
   -1.2322   -0.0784    0.0399 C   0  0  1  0  0  0  0  0  0  0  0  0
   -2.0538   -0.7247    1.1471 C   0  0  0  0  0  0  0  0  0  0  0  0
   -2.3358   -0.0670    2.1400 O   0  0  0  0  0  0  0  0  0  0  0  0
   -2.4339   -2.0392    1.0770 N   0  0  0  0  0  0  0  0  0  0  0  0
   -2.1899   -2.9095   -0.0587 C   0  0  0  0  0  0  0  0  0  0  0  0
   -3.0874   -4.1117    0.2149 C   0  0  0  0  0  0  0  0  0  0  0  0
   -3.0014   -4.2172    1.7218 C   0  0  0  0  0  0  0  0  0  0  0  0
   -3.1119   -2.7475    2.1512 C   0  0  2  0  0  0  0  0  0  0  0  0
   -4.5521   -2.2975    2.3110 C   0  0  0  0  0  0  0  0  0  0  0  0
   -5.3312   -2.8641    3.2602 N   0  0  0  0  0  0  0  0  0  0  0  0
   -5.0128   -1.4208    1.5951 O   0  0  0  0  0  0  0  0  0  0  0  0
   -5.4576    4.6198    1.0549 H   0  0  0  0  0  0  0  0  0  0  0  0
   -3.7053    4.3875    1.3096 H   0  0  0  0  0  0  0  0  0  0  0  0
   -4.8670    3.1874    1.9720 H   0  0  0  0  0  0  0  0  0  0  0  0
   -6.7786    3.1483   -0.4798 H   0  0  0  0  0  0  0  0  0  0  0  0
   -6.2260    1.6957    0.4268 H   0  0  0  0  0  0  0  0  0  0  0  0
   -5.9935    1.7875   -1.3567 H   0  0  0  0  0  0  0  0  0  0  0  0
   -5.1314    4.7451   -1.4747 H   0  0  0  0  0  0  0  0  0  0  0  0
   -4.3145    3.4024   -2.3508 H   0  0  0  0  0  0  0  0  0  0  0  0
   -3.3698    4.5183   -1.3061 H   0  0  0  0  0  0  0  0  0  0  0  0
   -3.5718    1.3078   -1.0499 H   0  0  0  0  0  0  0  0  0  0  0  0
   -3.8304    1.2365    0.7228 H   0  0  0  0  0  0  0  0  0  0  0  0
    0.6576    1.9063    1.2140 H   0  0  0  0  0  0  0  0  0  0  0  0
    0.5667    2.6298   -0.4647 H   0  0  0  0  0  0  0  0  0  0  0  0
    0.7877    0.4915   -1.5530 H   0  0  0  0  0  0  0  0  0  0  0  0
    2.7340    0.5061    0.8116 H   0  0  0  0  0  0  0  0  0  0  0  0
    4.9616    0.1954    0.1788 H   0  0  0  0  0  0  0  0  0  0  0  0
    5.2285   -0.6432   -2.7325 H   0  0  0  0  0  0  0  0  0  0  0  0
    6.3292   -2.5131   -1.9863 H   0  0  0  0  0  0  0  0  0  0  0  0
    5.9493   -2.0362   -0.3157 H   0  0  0  0  0  0  0  0  0  0  0  0
    8.5094   -1.3202   -1.9080 H   0  0  0  0  0  0  0  0  0  0  0  0
    8.3521   -2.3590   -0.4534 H   0  0  0  0  0  0  0  0  0  0  0  0
    9.1395   -0.0592    0.2533 H   0  0  0  0  0  0  0  0  0  0  0  0
    7.4756   -0.3961    0.8211 H   0  0  0  0  0  0  0  0  0  0  0  0
    8.4340    1.6463   -1.2019 H   0  0  0  0  0  0  0  0  0  0  0  0
    7.0620    1.6905   -0.0508 H   0  0  0  0  0  0  0  0  0  0  0  0
    7.3352    0.4093   -2.8481 H   0  0  0  0  0  0  0  0  0  0  0  0
    6.1628    1.6645   -2.3719 H   0  0  0  0  0  0  0  0  0  0  0  0
    0.4960   -0.6451    1.2391 H   0  0  0  0  0  0  0  0  0  0  0  0
    0.3937   -1.6012   -0.2910 H   0  0  0  0  0  0  0  0  0  0  0  0
   -1.6732   -0.2653   -0.9629 H   0  0  0  0  0  0  0  0  0  0  0  0
   -1.1210   -3.2059   -0.0646 H   0  0  0  0  0  0  0  0  0  0  0  0
   -2.4845   -2.4582   -1.0302 H   0  0  0  0  0  0  0  0  0  0  0  0
   -2.8110   -5.0264   -0.3511 H   0  0  0  0  0  0  0  0  0  0  0  0
   -4.1363   -3.8365   -0.0408 H   0  0  0  0  0  0  0  0  0  0  0  0
   -1.9700   -4.5710    1.9535 H   0  0  0  0  0  0  0  0  0  0  0  0
   -3.7202   -4.9160    2.1993 H   0  0  0  0  0  0  0  0  0  0  0  0
   -2.5836   -2.6196    3.1224 H   0  0  0  0  0  0  0  0  0  0  0  0
   -4.9583   -3.5983    3.8793 H   0  0  0  0  0  0  0  0  0  0  0  0
   -6.3109   -2.5642    3.3832 H   0  0  0  0  0  0  0  0  0  0  0  0
  1  2  1  0  0  0  0
  1 33  1  0  0  0  0
  1 34  1  0  0  0  0
  1 35  1  0  0  0  0
  2  3  1  0  0  0  0
  2  4  1  0  0  0  0
  2  5  1  0  0  0  0
  3 36  1  0  0  0  0
  3 37  1  0  0  0  0
  3 38  1  0  0  0  0
  4 39  1  0  0  0  0
  4 40  1  0  0  0  0
  4 41  1  0  0  0  0
  5  6  1  0  0  0  0
  5 42  1  0  0  0  0
  5 43  1  0  0  0  0
  6  7  2  0  0  0  0
  6  8  1  0  0  0  0
  8  9  1  0  0  0  0
  9 10  1  0  0  0  0
  9 44  1  0  0  0  0
  9 45  1  0  0  0  0
 10 11  1  0  0  0  0
 10 21  1  0  0  0  0
 10 46  1  6  0  0  0
 11 12  1  0  0  0  0
 11 47  1  0  0  0  0
 12 13  2  0  0  0  0
 12 14  1  0  0  0  0
 14 15  1  0  0  0  0
 14 48  1  0  0  0  0
 15 16  1  0  0  0  0
 15 49  1  0  0  0  0
 16 17  1  0  0  0  0
 16 50  1  0  0  0  0
 16 51  1  0  0  0  0
 17 18  1  0  0  0  0
 17 52  1  0  0  0  0
 17 53  1  0  0  0  0
 18 19  1  0  0  0  0
 18 54  1  0  0  0  0
 18 55  1  0  0  0  0
 19 20  1  0  0  0  0
 19 56  1  0  0  0  0
 19 57  1  0  0  0  0
 20 15  1  0  0  0  0
 20 58  1  0  0  0  0
 20 59  1  0  0  0  0
 21 22  1  0  0  0  0
 21 60  1  0  0  0  0
 21 61  1  0  0  0  0
 22 23  1  0  0  0  0
 22  8  1  0  0  0  0
 22 62  1  6  0  0  0
 23 24  2  0  0  0  0
 23 25  1  0  0  0  0
 25 26  1  0  0  0  0
 26 27  1  0  0  0  0
 26 63  1  0  0  0  0
 26 64  1  0  0  0  0
 27 28  1  0  0  0  0
 27 65  1  0  0  0  0
 27 66  1  0  0  0  0
 28 29  1  0  0  0  0
 28 67  1  0  0  0  0
 28 68  1  0  0  0  0
 29 30  1  0  0  0  0
 29 25  1  0  0  0  0
 29 69  1  1  0  0  0
 30 31  1  0  0  0  0
 30 32  2  0  0  0  0
 31 70  1  0  0  0  0
 31 71  1  0  0  0  0
M  END
>  <IDENTIFIER>
CNP0051777.1

>  <Energy>
667.917

$$$$
