
 OpenBabel09112511333D

120122  0  0  0  0  0  0  0  0999 V2000
   13.0999   -2.5942   -3.0109 C   0  0  0  0  0  0  0  0  0  0  0  0
   13.3449   -1.0885   -2.9555 C   0  0  0  0  0  0  0  0  0  0  0  0
   12.2469   -0.3797   -2.1522 C   0  0  0  0  0  0  0  0  0  0  0  0
   12.5025    1.1307   -2.0932 C   0  0  0  0  0  0  0  0  0  0  0  0
   11.3738    1.9945   -1.4879 C   0  0  0  0  0  0  0  0  0  0  0  0
   11.0601    1.8278    0.0132 C   0  0  0  0  0  0  0  0  0  0  0  0
   10.1798    0.6119    0.3595 C   0  0  0  0  0  0  0  0  0  0  0  0
    9.8505    0.5176    1.8610 C   0  0  0  0  0  0  0  0  0  0  0  0
    9.0469    1.6996    2.4442 C   0  0  0  0  0  0  0  0  0  0  0  0
    7.6780    1.9626    1.7602 C   0  0  2  0  0  0  0  0  0  0  0  0
    7.0376    3.0581    2.3665 O   0  0  0  0  0  0  0  0  0  0  0  0
    6.7202    0.7466    1.6907 C   0  0  0  0  0  0  0  0  0  0  0  0
    6.3047    0.2164    3.0372 C   0  0  0  0  0  0  0  0  0  0  0  0
    7.1499   -0.2141    3.8069 O   0  0  0  0  0  0  0  0  0  0  0  0
    4.5532    0.1884    3.4895 S   0  0  0  0  0  0  0  0  0  0  0  0
    4.7223   -1.0401    4.8327 C   0  0  0  0  0  0  0  0  0  0  0  0
    3.3816   -1.5315    5.3850 C   0  0  0  0  0  0  0  0  0  0  0  0
    2.6451   -2.3430    4.4296 N   0  0  0  0  0  0  0  0  0  0  0  0
    1.7827   -1.8284    3.5106 C   0  0  0  0  0  0  0  0  0  0  0  0
    1.6255   -0.6189    3.4235 O   0  0  0  0  0  0  0  0  0  0  0  0
    0.9638   -2.7746    2.6545 C   0  0  0  0  0  0  0  0  0  0  0  0
   -0.1182   -2.0801    1.8111 C   0  0  0  0  0  0  0  0  0  0  0  0
    0.4522   -1.2740    0.7440 N   0  0  0  0  0  0  0  0  0  0  0  0
    0.3446    0.0876    0.7042 C   0  0  0  0  0  0  0  0  0  0  0  0
   -0.1582    0.6770    1.6463 O   0  0  0  0  0  0  0  0  0  0  0  0
    0.8881    0.9020   -0.4749 C   0  0  1  0  0  0  0  0  0  0  0  0
    1.3220    0.0601   -1.5178 O   0  0  0  0  0  0  0  0  0  0  0  0
   -0.0714    2.0450   -1.0027 C   0  0  0  0  0  0  0  0  0  0  0  0
    0.5457    2.6830   -2.2705 C   0  0  0  0  0  0  0  0  0  0  0  0
   -0.1819    3.1753    0.0560 C   0  0  0  0  0  0  0  0  0  0  0  0
   -1.5125    1.5505   -1.3220 C   0  0  0  0  0  0  0  0  0  0  0  0
   -1.5200    0.5996   -2.3569 O   0  0  0  0  0  0  0  0  0  0  0  0
   -3.1825    0.2828   -2.8190 P   0  0  1  0  0  0  0  0  0  0  0  0
   -3.2855    0.6448   -4.3260 O   0  0  0  0  0  0  0  0  0  0  0  0
   -3.5513   -1.4057   -2.6507 O   0  0  0  0  0  0  0  0  0  0  0  0
   -4.3254    1.2636   -1.9230 O   0  0  0  0  0  0  0  0  0  0  0  0
   -5.8526    1.3063   -2.7839 P   0  0  2  0  0  0  0  0  0  0  0  0
   -5.9738    0.1276   -3.7932 O   0  0  0  0  0  0  0  0  0  0  0  0
   -6.0101    2.7762   -3.6953 O   0  0  0  0  0  0  0  0  0  0  0  0
   -7.1885    1.1860   -1.6573 O   0  0  0  0  0  0  0  0  0  0  0  0
   -7.4543   -0.1735   -1.4003 C   0  0  0  0  0  0  0  0  0  0  0  0
   -8.2426   -0.2820   -0.0890 C   0  0  1  0  0  0  0  0  0  0  0  0
   -9.4587    0.4525   -0.2065 O   0  0  0  0  0  0  0  0  0  0  0  0
  -10.5083   -0.4716   -0.0024 C   0  0  1  0  0  0  0  0  0  0  0  0
  -11.6942   -0.1241   -0.7887 N   0  0  0  0  0  0  0  0  0  0  0  0
  -11.8414   -0.0949   -2.1408 C   0  0  0  0  0  0  0  0  0  0  0  0
  -13.0965    0.2704   -2.5202 N   0  0  0  0  0  0  0  0  0  0  0  0
  -13.7329    0.4825   -1.3527 C   0  0  0  0  0  0  0  0  0  0  0  0
  -15.0408    0.8878   -1.1059 C   0  0  0  0  0  0  0  0  0  0  0  0
  -15.9575    1.1361   -2.1541 N   0  0  0  0  0  0  0  0  0  0  0  0
  -15.4184    1.0438    0.1980 N   0  0  0  0  0  0  0  0  0  0  0  0
  -14.5460    0.8062    1.2302 C   0  0  0  0  0  0  0  0  0  0  0  0
  -13.2661    0.3979    0.9760 N   0  0  0  0  0  0  0  0  0  0  0  0
  -12.8928    0.2465   -0.3184 C   0  0  0  0  0  0  0  0  0  0  0  0
   -9.9440   -1.8379   -0.3841 C   0  0  2  0  0  0  0  0  0  0  0  0
  -10.7141   -2.9389    0.0315 O   0  0  0  0  0  0  0  0  0  0  0  0
   -8.5936   -1.7400    0.2702 C   0  0  2  0  0  0  0  0  0  0  0  0
   -8.7533   -1.8385    1.6770 O   0  0  0  0  0  0  0  0  0  0  0  0
   -7.5271   -2.8882    2.3612 P   0  0  0  0  0  0  0  0  0  0  0  0
   -6.1516   -2.5780    1.7076 O   0  0  0  0  0  0  0  0  0  0  0  0
   -7.3525   -2.5835    4.0607 O   0  0  0  0  0  0  0  0  0  0  0  0
   -7.8864   -4.5660    2.0896 O   0  0  0  0  0  0  0  0  0  0  0  0
   13.9071   -3.0815   -3.5972 H   0  0  0  0  0  0  0  0  0  0  0  0
   12.1255   -2.8087   -3.4994 H   0  0  0  0  0  0  0  0  0  0  0  0
   13.0963   -3.0229   -1.9860 H   0  0  0  0  0  0  0  0  0  0  0  0
   13.3655   -0.6917   -3.9939 H   0  0  0  0  0  0  0  0  0  0  0  0
   14.3340   -0.9027   -2.4824 H   0  0  0  0  0  0  0  0  0  0  0  0
   12.2668   -0.8046   -1.1338 H   0  0  0  0  0  0  0  0  0  0  0  0
   11.2631   -0.5700   -2.6347 H   0  0  0  0  0  0  0  0  0  0  0  0
   12.6297    1.4896   -3.1388 H   0  0  0  0  0  0  0  0  0  0  0  0
   13.4535    1.3234   -1.5498 H   0  0  0  0  0  0  0  0  0  0  0  0
   10.4392    1.8990   -2.0825 H   0  0  0  0  0  0  0  0  0  0  0  0
   11.7302    3.0417   -1.6094 H   0  0  0  0  0  0  0  0  0  0  0  0
   10.4754    2.7278    0.2960 H   0  0  0  0  0  0  0  0  0  0  0  0
   12.0028    1.8315    0.6018 H   0  0  0  0  0  0  0  0  0  0  0  0
   10.6856   -0.3281    0.1050 H   0  0  0  0  0  0  0  0  0  0  0  0
    9.2416    0.6484   -0.2326 H   0  0  0  0  0  0  0  0  0  0  0  0
   10.8015    0.4250    2.4297 H   0  0  0  0  0  0  0  0  0  0  0  0
    9.2817   -0.4207    2.0316 H   0  0  0  0  0  0  0  0  0  0  0  0
    9.6546    2.6267    2.3870 H   0  0  0  0  0  0  0  0  0  0  0  0
    8.8941    1.5021    3.5255 H   0  0  0  0  0  0  0  0  0  0  0  0
    7.8877    2.2593    0.7111 H   0  0  0  0  0  0  0  0  0  0  0  0
    6.9043    2.8389    3.3255 H   0  0  0  0  0  0  0  0  0  0  0  0
    7.1938   -0.0752    1.1154 H   0  0  0  0  0  0  0  0  0  0  0  0
    5.8128    1.0559    1.1283 H   0  0  0  0  0  0  0  0  0  0  0  0
    5.2681   -0.5491    5.6671 H   0  0  0  0  0  0  0  0  0  0  0  0
    5.2892   -1.9258    4.4730 H   0  0  0  0  0  0  0  0  0  0  0  0
    2.7532   -0.7040    5.7824 H   0  0  0  0  0  0  0  0  0  0  0  0
    3.6347   -2.1818    6.2513 H   0  0  0  0  0  0  0  0  0  0  0  0
    2.6876   -3.3675    4.5390 H   0  0  0  0  0  0  0  0  0  0  0  0
    0.4327   -3.4601    3.3500 H   0  0  0  0  0  0  0  0  0  0  0  0
    1.6315   -3.3849    2.0092 H   0  0  0  0  0  0  0  0  0  0  0  0
   -0.7588   -1.4821    2.4948 H   0  0  0  0  0  0  0  0  0  0  0  0
   -0.7717   -2.8492    1.3457 H   0  0  0  0  0  0  0  0  0  0  0  0
    0.9493   -1.7795   -0.0042 H   0  0  0  0  0  0  0  0  0  0  0  0
    1.8009    1.4160   -0.1037 H   0  0  0  0  0  0  0  0  0  0  0  0
    0.5449   -0.4643   -1.8368 H   0  0  0  0  0  0  0  0  0  0  0  0
    1.5609    3.0816   -2.0560 H   0  0  0  0  0  0  0  0  0  0  0  0
   -0.0859    3.5220   -2.6364 H   0  0  0  0  0  0  0  0  0  0  0  0
    0.6299    1.9434   -3.0945 H   0  0  0  0  0  0  0  0  0  0  0  0
    0.8245    3.5673    0.3196 H   0  0  0  0  0  0  0  0  0  0  0  0
   -0.6833    2.8491    0.9856 H   0  0  0  0  0  0  0  0  0  0  0  0
   -0.7825    4.0237   -0.3367 H   0  0  0  0  0  0  0  0  0  0  0  0
   -2.1024    2.4456   -1.6294 H   0  0  0  0  0  0  0  0  0  0  0  0
   -1.9646    1.1117   -0.4047 H   0  0  0  0  0  0  0  0  0  0  0  0
   -2.6788   -1.8648   -2.7403 H   0  0  0  0  0  0  0  0  0  0  0  0
   -5.2275    2.7846   -4.3016 H   0  0  0  0  0  0  0  0  0  0  0  0
   -6.5116   -0.7525   -1.2558 H   0  0  0  0  0  0  0  0  0  0  0  0
   -8.0398   -0.6002   -2.2424 H   0  0  0  0  0  0  0  0  0  0  0  0
   -7.5983    0.1473    0.7106 H   0  0  0  0  0  0  0  0  0  0  0  0
  -10.7607   -0.4390    1.0831 H   0  0  0  0  0  0  0  0  0  0  0  0
  -11.0560   -0.3423   -2.8425 H   0  0  0  0  0  0  0  0  0  0  0  0
  -15.6826    1.0101   -3.1384 H   0  0  0  0  0  0  0  0  0  0  0  0
  -16.9190    1.4372   -1.9379 H   0  0  0  0  0  0  0  0  0  0  0  0
  -14.8706    0.9459    2.2519 H   0  0  0  0  0  0  0  0  0  0  0  0
   -9.8090   -1.8868   -1.4867 H   0  0  0  0  0  0  0  0  0  0  0  0
  -10.9993   -2.7819    0.9686 H   0  0  0  0  0  0  0  0  0  0  0  0
   -7.8867   -2.4959   -0.1445 H   0  0  0  0  0  0  0  0  0  0  0  0
   -7.0254   -1.6502    4.1157 H   0  0  0  0  0  0  0  0  0  0  0  0
   -8.1459   -4.6220    1.1357 H   0  0  0  0  0  0  0  0  0  0  0  0
  1  2  1  0  0  0  0
  1 63  1  0  0  0  0
  1 64  1  0  0  0  0
  1 65  1  0  0  0  0
  2  3  1  0  0  0  0
  2 66  1  0  0  0  0
  2 67  1  0  0  0  0
  3  4  1  0  0  0  0
  3 68  1  0  0  0  0
  3 69  1  0  0  0  0
  4  5  1  0  0  0  0
  4 70  1  0  0  0  0
  4 71  1  0  0  0  0
  5  6  1  0  0  0  0
  5 72  1  0  0  0  0
  5 73  1  0  0  0  0
  6  7  1  0  0  0  0
  6 74  1  0  0  0  0
  6 75  1  0  0  0  0
  7  8  1  0  0  0  0
  7 76  1  0  0  0  0
  7 77  1  0  0  0  0
  8  9  1  0  0  0  0
  8 78  1  0  0  0  0
  8 79  1  0  0  0  0
  9 10  1  0  0  0  0
  9 80  1  0  0  0  0
  9 81  1  0  0  0  0
 10 11  1  0  0  0  0
 10 12  1  0  0  0  0
 10 82  1  6  0  0  0
 11 83  1  0  0  0  0
 12 13  1  0  0  0  0
 12 84  1  0  0  0  0
 12 85  1  0  0  0  0
 13 14  2  0  0  0  0
 13 15  1  0  0  0  0
 15 16  1  0  0  0  0
 16 17  1  0  0  0  0
 16 86  1  0  0  0  0
 16 87  1  0  0  0  0
 17 18  1  0  0  0  0
 17 88  1  0  0  0  0
 17 89  1  0  0  0  0
 18 19  1  0  0  0  0
 18 90  1  0  0  0  0
 19 20  2  0  0  0  0
 19 21  1  0  0  0  0
 21 22  1  0  0  0  0
 21 91  1  0  0  0  0
 21 92  1  0  0  0  0
 22 23  1  0  0  0  0
 22 93  1  0  0  0  0
 22 94  1  0  0  0  0
 23 24  1  0  0  0  0
 23 95  1  0  0  0  0
 24 25  2  0  0  0  0
 24 26  1  0  0  0  0
 26 27  1  0  0  0  0
 26 28  1  0  0  0  0
 26 96  1  1  0  0  0
 27 97  1  0  0  0  0
 28 29  1  0  0  0  0
 28 30  1  0  0  0  0
 28 31  1  0  0  0  0
 29 98  1  0  0  0  0
 29 99  1  0  0  0  0
 29100  1  0  0  0  0
 30101  1  0  0  0  0
 30102  1  0  0  0  0
 30103  1  0  0  0  0
 31 32  1  0  0  0  0
 31104  1  0  0  0  0
 31105  1  0  0  0  0
 32 33  1  0  0  0  0
 33 34  2  6  0  0  0
 33 35  1  0  0  0  0
 33 36  1  0  0  0  0
 35106  1  0  0  0  0
 36 37  1  0  0  0  0
 37 38  2  6  0  0  0
 37 39  1  0  0  0  0
 37 40  1  0  0  0  0
 39107  1  0  0  0  0
 40 41  1  0  0  0  0
 41108  1  0  0  0  0
 41109  1  0  0  0  0
 42 41  1  0  0  0  0
 42 43  1  0  0  0  0
 42110  1  1  0  0  0
 43 44  1  0  0  0  0
 44 45  1  0  0  0  0
 44 55  1  0  0  0  0
 44111  1  1  0  0  0
 45 46  1  0  0  0  0
 46 47  2  0  0  0  0
 46112  1  0  0  0  0
 47 48  1  0  0  0  0
 48 49  2  0  0  0  0
 49 50  1  0  0  0  0
 49 51  1  0  0  0  0
 50113  1  0  0  0  0
 50114  1  0  0  0  0
 51 52  2  0  0  0  0
 52 53  1  0  0  0  0
 52115  1  0  0  0  0
 53 54  2  0  0  0  0
 54 45  1  0  0  0  0
 54 48  1  0  0  0  0
 55 56  1  0  0  0  0
 55 57  1  0  0  0  0
 55116  1  6  0  0  0
 56117  1  0  0  0  0
 57 58  1  0  0  0  0
 57 42  1  0  0  0  0
 57118  1  6  0  0  0
 58 59  1  0  0  0  0
 59 60  2  0  0  0  0
 59 61  1  0  0  0  0
 59 62  1  0  0  0  0
 61119  1  0  0  0  0
 62120  1  0  0  0  0
M  END
>  <IDENTIFIER>
CNP0164765.2

>  <Energy>
1926

$$$$
