
 OpenBabel09072506233D

 32 34  0  0  0  0  0  0  0  0999 V2000
    4.9269   -0.1263    0.2119 C   0  0  0  0  0  0  0  0  0  0  0  0
    4.0319    0.1716   -0.7928 O   0  0  0  0  0  0  0  0  0  0  0  0
    2.7541    0.5352   -0.5318 C   0  0  0  0  0  0  0  0  0  0  0  0
    1.7078   -0.4060   -0.6262 C   0  0  0  0  0  0  0  0  0  0  0  0
    2.0437   -1.8279   -1.0239 C   0  0  0  0  0  0  0  0  0  0  0  0
    0.3695    0.0034   -0.3398 C   0  0  0  0  0  0  0  0  0  0  0  0
    0.1396    1.3530    0.0204 C   0  0  0  0  0  0  0  0  0  0  0  0
    1.1810    2.2323    0.0925 N   0  0  0  0  0  0  0  0  0  0  0  0
    2.4694    1.8548   -0.1711 C   0  0  0  0  0  0  0  0  0  0  0  0
    3.3671    2.6765   -0.0953 O   0  0  0  0  0  0  0  0  0  0  0  0
   -1.2348    1.8277    0.3231 C   0  0  0  0  0  0  0  0  0  0  0  0
   -1.4158    2.9989    0.6267 O   0  0  0  0  0  0  0  0  0  0  0  0
   -2.3857    0.8984    0.2644 C   0  0  0  0  0  0  0  0  0  0  0  0
   -3.6814    1.3598    0.5598 C   0  0  0  0  0  0  0  0  0  0  0  0
   -4.7709    0.4931    0.5117 C   0  0  0  0  0  0  0  0  0  0  0  0
   -4.5842   -0.8430    0.1699 C   0  0  0  0  0  0  0  0  0  0  0  0
   -3.3031   -1.3277   -0.1296 C   0  0  0  0  0  0  0  0  0  0  0  0
   -3.1507   -2.6292   -0.4572 O   0  0  0  0  0  0  0  0  0  0  0  0
   -2.1854   -0.4540   -0.0858 C   0  0  0  0  0  0  0  0  0  0  0  0
   -0.8057   -0.9318   -0.3994 C   0  0  0  0  0  0  0  0  0  0  0  0
   -0.6437   -2.1028   -0.7045 O   0  0  0  0  0  0  0  0  0  0  0  0
    5.9075   -0.3821   -0.2385 H   0  0  0  0  0  0  0  0  0  0  0  0
    4.5638   -1.0018    0.7928 H   0  0  0  0  0  0  0  0  0  0  0  0
    5.0560    0.7417    0.8923 H   0  0  0  0  0  0  0  0  0  0  0  0
    3.1233   -1.9865   -1.2188 H   0  0  0  0  0  0  0  0  0  0  0  0
    1.5095   -2.0935   -1.9600 H   0  0  0  0  0  0  0  0  0  0  0  0
    1.7595   -2.5244   -0.2076 H   0  0  0  0  0  0  0  0  0  0  0  0
    1.0066    3.2287    0.3576 H   0  0  0  0  0  0  0  0  0  0  0  0
   -3.8543    2.3938    0.8297 H   0  0  0  0  0  0  0  0  0  0  0  0
   -5.7633    0.8583    0.7409 H   0  0  0  0  0  0  0  0  0  0  0  0
   -5.4400   -1.5057    0.1380 H   0  0  0  0  0  0  0  0  0  0  0  0
   -3.8948   -3.2469   -0.4917 H   0  0  0  0  0  0  0  0  0  0  0  0
  1  2  1  0  0  0  0
  1 22  1  0  0  0  0
  1 23  1  0  0  0  0
  1 24  1  0  0  0  0
  2  3  1  0  0  0  0
  3  4  2  0  0  0  0
  4  5  1  0  0  0  0
  4  6  1  0  0  0  0
  5 25  1  0  0  0  0
  5 26  1  0  0  0  0
  5 27  1  0  0  0  0
  6  7  2  0  0  0  0
  7  8  1  0  0  0  0
  7 11  1  0  0  0  0
  8  9  1  0  0  0  0
  8 28  1  0  0  0  0
  9 10  2  0  0  0  0
  9  3  1  0  0  0  0
 11 12  2  0  0  0  0
 11 13  1  0  0  0  0
 13 14  2  0  0  0  0
 14 15  1  0  0  0  0
 14 29  1  0  0  0  0
 15 16  2  0  0  0  0
 15 30  1  0  0  0  0
 16 17  1  0  0  0  0
 16 31  1  0  0  0  0
 17 18  1  0  0  0  0
 17 19  2  0  0  0  0
 18 32  1  0  0  0  0
 19 20  1  0  0  0  0
 19 13  1  0  0  0  0
 20 21  2  0  0  0  0
 20  6  1  0  0  0  0
M  END
>  <IDENTIFIER>
CNP0286078.0

>  <Energy>
264.751

$$$$
