
 OpenBabel09052517213D

 58 61  0  0  0  0  0  0  0  0999 V2000
    6.8146    4.7133    0.1089 C   0  0  0  0  0  0  0  0  0  0  0  0
    5.9100    4.3806   -0.8782 O   0  0  0  0  0  0  0  0  0  0  0  0
    5.0279    3.3479   -0.8302 C   0  0  0  0  0  0  0  0  0  0  0  0
    4.1634    3.1582   -1.9152 C   0  0  0  0  0  0  0  0  0  0  0  0
    3.2330    2.1143   -1.9159 C   0  0  0  0  0  0  0  0  0  0  0  0
    3.1524    1.2378   -0.8230 C   0  0  0  0  0  0  0  0  0  0  0  0
    2.2172    0.1865   -0.8089 C   0  0  0  0  0  0  0  0  0  0  0  0
    2.1349   -0.6903    0.2918 C   0  0  0  0  0  0  0  0  0  0  0  0
    1.1739   -1.8312    0.3935 C   0  0  0  0  0  0  0  0  0  0  0  0
    0.0376   -2.1813   -0.3786 C   0  0  0  0  0  0  0  0  0  0  0  0
   -0.6198   -1.4682   -1.5385 C   0  0  0  0  0  0  0  0  0  0  0  0
   -1.2938   -0.1976   -1.0716 C   0  0  0  0  0  0  0  0  0  0  0  0
   -0.6182    0.7610   -0.7286 O   0  0  0  0  0  0  0  0  0  0  0  0
   -2.6523   -0.1351   -0.9944 N   0  0  0  0  0  0  0  0  0  0  0  0
   -3.3384    1.0620   -0.5423 C   0  0  0  0  0  0  0  0  0  0  0  0
   -4.8515    0.7971   -0.3897 C   0  0  0  0  0  0  0  0  0  0  0  0
   -5.6485    1.9814    0.0055 N   0  0  0  0  0  0  0  0  0  0  0  0
   -5.8051    2.9483   -1.0910 C   0  0  0  0  0  0  0  0  0  0  0  0
   -5.1646    2.6380    1.2303 C   0  0  0  0  0  0  0  0  0  0  0  0
   -0.4294   -3.3626    0.1993 C   0  0  0  0  0  0  0  0  0  0  0  0
    0.4006   -3.6390    1.2423 C   0  0  0  0  0  0  0  0  0  0  0  0
    0.2168   -4.7472    2.0562 C   0  0  0  0  0  0  0  0  0  0  0  0
   -0.8769   -5.5812    1.7569 C   0  0  0  0  0  0  0  0  0  0  0  0
   -1.1636   -6.7947    2.5810 C   0  0  0  0  0  0  0  0  0  0  0  0
   -1.6828   -5.2899    0.7270 O   0  0  0  0  0  0  0  0  0  0  0  0
   -1.5097   -4.2238   -0.0599 C   0  0  0  0  0  0  0  0  0  0  0  0
   -2.2890   -4.0216   -0.9704 O   0  0  0  0  0  0  0  0  0  0  0  0
    1.3346   -2.7337    1.3473 O   0  0  0  0  0  0  0  0  0  0  0  0
    3.0264   -0.4962    1.3663 C   0  0  0  0  0  0  0  0  0  0  0  0
    3.9537    0.5435    1.3608 C   0  0  0  0  0  0  0  0  0  0  0  0
    4.0241    1.4178    0.2743 C   0  0  0  0  0  0  0  0  0  0  0  0
    4.9537    2.4680    0.2674 C   0  0  0  0  0  0  0  0  0  0  0  0
    7.3955    5.6012   -0.2140 H   0  0  0  0  0  0  0  0  0  0  0  0
    7.5202    3.8730    0.2833 H   0  0  0  0  0  0  0  0  0  0  0  0
    6.2801    4.9637    1.0501 H   0  0  0  0  0  0  0  0  0  0  0  0
    4.2121    3.8277   -2.7656 H   0  0  0  0  0  0  0  0  0  0  0  0
    2.5758    1.9940   -2.7692 H   0  0  0  0  0  0  0  0  0  0  0  0
    1.5785    0.0656   -1.6632 H   0  0  0  0  0  0  0  0  0  0  0  0
   -1.4039   -2.1178   -1.9611 H   0  0  0  0  0  0  0  0  0  0  0  0
    0.0754   -1.2998   -2.3840 H   0  0  0  0  0  0  0  0  0  0  0  0
   -3.2072   -0.9705   -1.2378 H   0  0  0  0  0  0  0  0  0  0  0  0
   -3.1493    1.8749   -1.2737 H   0  0  0  0  0  0  0  0  0  0  0  0
   -2.9267    1.3569    0.4462 H   0  0  0  0  0  0  0  0  0  0  0  0
   -4.9881    0.0039    0.3787 H   0  0  0  0  0  0  0  0  0  0  0  0
   -5.2548    0.3893   -1.3427 H   0  0  0  0  0  0  0  0  0  0  0  0
   -6.2359    2.4468   -1.9847 H   0  0  0  0  0  0  0  0  0  0  0  0
   -4.8369    3.4172   -1.3645 H   0  0  0  0  0  0  0  0  0  0  0  0
   -6.5154    3.7484   -0.7913 H   0  0  0  0  0  0  0  0  0  0  0  0
   -5.0379    1.8937    2.0451 H   0  0  0  0  0  0  0  0  0  0  0  0
   -5.9076    3.3893    1.5731 H   0  0  0  0  0  0  0  0  0  0  0  0
   -4.2007    3.1642    1.0551 H   0  0  0  0  0  0  0  0  0  0  0  0
    0.8855   -4.9484    2.8835 H   0  0  0  0  0  0  0  0  0  0  0  0
   -0.4238   -6.9149    3.4009 H   0  0  0  0  0  0  0  0  0  0  0  0
   -1.1295   -7.6959    1.9345 H   0  0  0  0  0  0  0  0  0  0  0  0
   -2.1762   -6.7047    3.0269 H   0  0  0  0  0  0  0  0  0  0  0  0
    3.0044   -1.1490    2.2303 H   0  0  0  0  0  0  0  0  0  0  0  0
    4.6164    0.6631    2.2100 H   0  0  0  0  0  0  0  0  0  0  0  0
    5.6137    2.5941    1.1164 H   0  0  0  0  0  0  0  0  0  0  0  0
  1  2  1  0  0  0  0
  1 33  1  0  0  0  0
  1 34  1  0  0  0  0
  1 35  1  0  0  0  0
  2  3  1  0  0  0  0
  3  4  2  0  0  0  0
  4  5  1  0  0  0  0
  4 36  1  0  0  0  0
  5  6  2  0  0  0  0
  5 37  1  0  0  0  0
  6  7  1  0  0  0  0
  7  8  2  0  0  0  0
  7 38  1  0  0  0  0
  8  9  1  0  0  0  0
  8 29  1  0  0  0  0
  9 10  2  0  0  0  0
 10 11  1  0  0  0  0
 10 20  1  0  0  0  0
 11 12  1  0  0  0  0
 11 39  1  0  0  0  0
 11 40  1  0  0  0  0
 12 13  2  0  0  0  0
 12 14  1  0  0  0  0
 14 15  1  0  0  0  0
 14 41  1  0  0  0  0
 15 16  1  0  0  0  0
 15 42  1  0  0  0  0
 15 43  1  0  0  0  0
 16 17  1  0  0  0  0
 16 44  1  0  0  0  0
 16 45  1  0  0  0  0
 17 18  1  0  0  0  0
 17 19  1  0  0  0  0
 18 46  1  0  0  0  0
 18 47  1  0  0  0  0
 18 48  1  0  0  0  0
 19 49  1  0  0  0  0
 19 50  1  0  0  0  0
 19 51  1  0  0  0  0
 20 21  2  0  0  0  0
 21 22  1  0  0  0  0
 21 28  1  0  0  0  0
 22 23  2  0  0  0  0
 22 52  1  0  0  0  0
 23 24  1  0  0  0  0
 23 25  1  0  0  0  0
 24 53  1  0  0  0  0
 24 54  1  0  0  0  0
 24 55  1  0  0  0  0
 25 26  1  0  0  0  0
 26 27  2  0  0  0  0
 26 20  1  0  0  0  0
 28  9  1  0  0  0  0
 29 30  2  0  0  0  0
 29 56  1  0  0  0  0
 30 31  1  0  0  0  0
 30 57  1  0  0  0  0
 31 32  2  0  0  0  0
 31  6  1  0  0  0  0
 32  3  1  0  0  0  0
 32 58  1  0  0  0  0
M  END
>  <IDENTIFIER>
CNP0341967.0

>  <Energy>
489.143

$$$$
