
 OpenBabel09112501143D

 52 57  0  0  0  0  0  0  0  0999 V2000
    6.0976   -2.1187    0.9168 C   0  0  0  0  0  0  0  0  0  0  0  0
    5.3712   -0.8350    0.6450 C   0  0  0  0  0  0  0  0  0  0  0  0
    6.0610    0.3878    0.6000 C   0  0  0  0  0  0  0  0  0  0  0  0
    5.3712    1.5752    0.3357 C   0  0  0  0  0  0  0  0  0  0  0  0
    3.9920    1.5502    0.1123 C   0  0  0  0  0  0  0  0  0  0  0  0
    3.2957    0.3356    0.1626 C   0  0  0  0  0  0  0  0  0  0  0  0
    1.8942    0.3087   -0.0456 N   0  0  0  0  0  0  0  0  0  0  0  0
    0.9601    0.3249    0.9446 C   0  0  0  0  0  0  0  0  0  0  0  0
    1.2178    0.3796    2.1370 O   0  0  0  0  0  0  0  0  0  0  0  0
   -0.3623    0.0123    0.3434 C   0  0  2  0  0  0  0  0  0  0  0  0
   -0.1696    0.6327   -1.0466 C   0  0  1  0  0  0  0  0  0  0  0  0
    1.2721    0.3030   -1.2598 C   0  0  0  0  0  0  0  0  0  0  0  0
    1.8614    0.3332   -2.3298 O   0  0  0  0  0  0  0  0  0  0  0  0
   -1.5044    0.5009   -1.8516 C   0  0  1  0  0  0  0  0  0  0  0  0
   -2.2491   -0.7901   -1.5305 C   0  0  0  0  0  0  0  0  0  0  0  0
   -2.7220   -1.6861   -2.4913 C   0  0  0  0  0  0  0  0  0  0  0  0
   -3.4501   -2.8089   -2.0816 C   0  0  0  0  0  0  0  0  0  0  0  0
   -3.7106   -3.0301   -0.7219 C   0  0  0  0  0  0  0  0  0  0  0  0
   -3.2422   -2.1361    0.2488 C   0  0  0  0  0  0  0  0  0  0  0  0
   -2.5052   -1.0071   -0.1443 C   0  0  0  0  0  0  0  0  0  0  0  0
   -1.8718    0.0629    0.7922 C   0  0  1  0  0  0  0  0  0  0  0  0
   -1.9907   -0.2855    2.2833 C   0  0  0  0  0  0  0  0  0  0  0  0
   -1.3942   -1.5472    2.8521 C   0  0  0  0  0  0  0  0  0  0  0  0
   -2.5451    0.4650    3.0659 O   0  0  0  0  0  0  0  0  0  0  0  0
   -2.5265    1.3771    0.2615 C   0  0  0  0  0  0  0  0  0  0  0  0
   -3.2646    2.3410    0.9781 C   0  0  0  0  0  0  0  0  0  0  0  0
   -3.8163    3.4408    0.3076 C   0  0  0  0  0  0  0  0  0  0  0  0
   -3.6484    3.5973   -1.0725 C   0  0  0  0  0  0  0  0  0  0  0  0
   -2.9216    2.6575   -1.8052 C   0  0  0  0  0  0  0  0  0  0  0  0
   -2.3670    1.5560   -1.1493 C   0  0  0  0  0  0  0  0  0  0  0  0
    3.9850   -0.8533    0.4316 C   0  0  0  0  0  0  0  0  0  0  0  0
    7.1846   -1.9478    1.0680 H   0  0  0  0  0  0  0  0  0  0  0  0
    5.9677   -2.8074    0.0553 H   0  0  0  0  0  0  0  0  0  0  0  0
    5.6848   -2.5969    1.8296 H   0  0  0  0  0  0  0  0  0  0  0  0
    7.1301    0.4237    0.7681 H   0  0  0  0  0  0  0  0  0  0  0  0
    5.9064    2.5155    0.3048 H   0  0  0  0  0  0  0  0  0  0  0  0
    3.4632    2.4737   -0.0887 H   0  0  0  0  0  0  0  0  0  0  0  0
   -0.1834   -1.0903    0.2339 H   0  0  0  0  0  0  0  0  0  0  0  0
   -0.0365    1.7437   -0.9534 H   0  0  0  0  0  0  0  0  0  0  0  0
   -1.3782    0.7211   -2.9336 H   0  0  0  0  0  0  0  0  0  0  0  0
   -2.5388   -1.5122   -3.5437 H   0  0  0  0  0  0  0  0  0  0  0  0
   -3.8223   -3.5074   -2.8197 H   0  0  0  0  0  0  0  0  0  0  0  0
   -4.2791   -3.9000   -0.4190 H   0  0  0  0  0  0  0  0  0  0  0  0
   -3.4592   -2.3338    1.2876 H   0  0  0  0  0  0  0  0  0  0  0  0
   -0.9154   -2.1729    2.0731 H   0  0  0  0  0  0  0  0  0  0  0  0
   -2.1880   -2.1487    3.3414 H   0  0  0  0  0  0  0  0  0  0  0  0
   -0.6280   -1.2840    3.6111 H   0  0  0  0  0  0  0  0  0  0  0  0
   -3.4413    2.2793    2.0358 H   0  0  0  0  0  0  0  0  0  0  0  0
   -4.3824    4.1778    0.8625 H   0  0  0  0  0  0  0  0  0  0  0  0
   -4.0802    4.4536   -1.5744 H   0  0  0  0  0  0  0  0  0  0  0  0
   -2.7848    2.7908   -2.8710 H   0  0  0  0  0  0  0  0  0  0  0  0
    3.4413   -1.7901    0.4669 H   0  0  0  0  0  0  0  0  0  0  0  0
  1  2  1  0  0  0  0
  1 32  1  0  0  0  0
  1 33  1  0  0  0  0
  1 34  1  0  0  0  0
  2  3  2  0  0  0  0
  3  4  1  0  0  0  0
  3 35  1  0  0  0  0
  4  5  2  0  0  0  0
  4 36  1  0  0  0  0
  5  6  1  0  0  0  0
  5 37  1  0  0  0  0
  6  7  1  0  0  0  0
  6 31  2  0  0  0  0
  7  8  1  0  0  0  0
  8  9  2  0  0  0  0
 10  8  1  0  0  0  0
 10 11  1  0  0  0  0
 10 38  1  6  0  0  0
 11 12  1  0  0  0  0
 11 14  1  0  0  0  0
 11 39  1  1  0  0  0
 12 13  2  0  0  0  0
 12  7  1  0  0  0  0
 14 15  1  0  0  0  0
 14 40  1  6  0  0  0
 15 16  2  0  0  0  0
 16 17  1  0  0  0  0
 16 41  1  0  0  0  0
 17 18  2  0  0  0  0
 17 42  1  0  0  0  0
 18 19  1  0  0  0  0
 18 43  1  0  0  0  0
 19 20  2  0  0  0  0
 19 44  1  0  0  0  0
 20 21  1  0  0  0  0
 20 15  1  0  0  0  0
 21 22  1  1  0  0  0
 21 25  1  0  0  0  0
 21 10  1  0  0  0  0
 22 23  1  0  0  0  0
 22 24  2  0  0  0  0
 23 45  1  0  0  0  0
 23 46  1  0  0  0  0
 23 47  1  0  0  0  0
 25 26  2  0  0  0  0
 26 27  1  0  0  0  0
 26 48  1  0  0  0  0
 27 28  2  0  0  0  0
 27 49  1  0  0  0  0
 28 29  1  0  0  0  0
 28 50  1  0  0  0  0
 29 30  2  0  0  0  0
 29 51  1  0  0  0  0
 30 14  1  0  0  0  0
 30 25  1  0  0  0  0
 31  2  1  0  0  0  0
 31 52  1  0  0  0  0
M  END
>  <IDENTIFIER>
CNP0095887.8

>  <Energy>
1045.73

$$$$
