
 OpenBabel09132505573D

192209  0  0  0  0  0  0  0  0999 V2000
    2.2116    1.2449   -4.1269 C   0  0  0  0  0  0  0  0  0  0  0  0
    3.2520    1.6559   -3.1287 C   0  0  0  0  0  0  0  0  0  0  0  0
    3.1161    1.6356   -1.7684 C   0  0  0  0  0  0  0  0  0  0  0  0
    1.8721    1.1004   -1.1114 C   0  0  0  0  0  0  0  0  0  0  0  0
    1.7305    1.1865    0.0999 O   0  0  0  0  0  0  0  0  0  0  0  0
    0.9742    0.3921   -1.8323 O   0  0  0  0  0  0  0  0  0  0  0  0
    0.0240   -0.4700   -1.3121 C   0  0  2  0  0  0  0  0  0  0  0  0
    0.5787   -1.8786   -1.4239 C   0  0  0  0  0  0  0  0  0  0  0  0
   -0.4367   -2.8263   -0.8553 C   0  0  0  0  0  0  0  0  0  0  0  0
   -1.7629   -2.6315   -1.2481 C   0  0  0  0  0  0  0  0  0  0  0  0
   -2.0742   -1.5325   -1.9809 O   0  0  0  0  0  0  0  0  0  0  0  0
   -1.3324   -0.3620   -2.1028 C   0  0  2  0  0  0  0  0  0  0  0  0
   -1.0582   -0.2242   -3.6224 C   0  0  0  0  0  0  0  0  0  0  0  0
   -2.2204    0.8796   -1.6363 C   0  0  2  0  0  0  0  0  0  0  0  0
   -1.3593    2.1718   -1.3963 C   0  0  0  0  0  0  0  0  0  0  0  0
   -2.2125    3.3434   -0.9763 C   0  0  0  0  0  0  0  0  0  0  0  0
   -2.7938    3.4241    0.3236 C   0  0  0  0  0  0  0  0  0  0  0  0
   -2.4478    2.3353    1.3660 C   0  0  0  0  0  0  0  0  0  0  0  0
   -2.6480    0.8462    0.9352 C   0  0  0  0  0  0  0  0  0  0  0  0
   -3.2807    0.6797   -0.4679 C   0  0  2  0  0  0  0  0  0  0  0  0
   -4.3641   -0.4737   -0.5728 C   0  0  2  0  0  0  0  0  0  0  0  0
   -4.7594   -0.8277   -1.9996 C   0  0  0  0  0  0  0  0  0  0  0  0
   -5.2408    0.1382   -2.9506 C   0  0  0  0  0  0  0  0  0  0  0  0
   -5.5378    1.4887   -2.6327 N   0  0  0  0  0  0  0  0  0  0  0  0
   -5.4274   -0.2251   -4.2424 N   0  0  0  0  0  0  0  0  0  0  0  0
   -5.1965   -1.4726   -4.6906 C   0  0  0  0  0  0  0  0  0  0  0  0
   -4.7936   -2.4604   -3.8109 C   0  0  0  0  0  0  0  0  0  0  0  0
   -4.5841   -2.1836   -2.4373 C   0  0  0  0  0  0  0  0  0  0  0  0
   -4.2104   -3.3985   -1.5094 C   0  0  1  0  0  0  0  0  0  0  0  0
   -2.7865   -3.5269   -0.8583 C   0  0  0  0  0  0  0  0  0  0  0  0
   -2.4188   -4.5997    0.0225 C   0  0  0  0  0  0  0  0  0  0  0  0
   -3.3434   -5.4532    0.4466 O   0  0  0  0  0  0  0  0  0  0  0  0
   -3.1021   -6.4959    1.2315 C   0  0  0  0  0  0  0  0  0  0  0  0
   -4.2262   -7.3928    1.6489 C   0  0  0  0  0  0  0  0  0  0  0  0
   -5.0923   -6.7037    2.5048 O   0  0  0  0  0  0  0  0  0  0  0  0
   -1.8101   -6.7494    1.6695 C   0  0  0  0  0  0  0  0  0  0  0  0
   -0.7889   -5.8956    1.2918 C   0  0  0  0  0  0  0  0  0  0  0  0
    0.3288   -6.1445    1.7011 O   0  0  0  0  0  0  0  0  0  0  0  0
   -1.0619   -4.7756    0.4499 C   0  0  0  0  0  0  0  0  0  0  0  0
   -0.0658   -3.8744   -0.0091 C   0  0  0  0  0  0  0  0  0  0  0  0
    1.2500   -3.9692    0.3080 O   0  0  0  0  0  0  0  0  0  0  0  0
   -5.4710   -4.1813   -0.9214 C   0  0  2  0  0  0  0  0  0  0  0  0
   -6.5851   -4.3350   -2.0195 C   0  0  0  0  0  0  0  0  0  0  0  0
   -7.2746   -3.1452   -2.2656 O   0  0  0  0  0  0  0  0  0  0  0  0
   -6.1150   -3.9933    0.5012 C   0  0  0  0  0  0  0  0  0  0  0  0
   -6.9483   -5.1090    0.8210 C   0  0  0  0  0  0  0  0  0  0  0  0
   -7.6520   -5.2316    2.0147 C   0  0  0  0  0  0  0  0  0  0  0  0
   -8.4259   -6.3097    2.2572 O   0  0  0  0  0  0  0  0  0  0  0  0
   -7.5503   -4.2458    2.9666 C   0  0  0  0  0  0  0  0  0  0  0  0
   -6.7514   -3.1429    2.7345 C   0  0  0  0  0  0  0  0  0  0  0  0
   -6.0150   -2.9593    1.5299 C   0  0  0  0  0  0  0  0  0  0  0  0
   -5.2301   -1.6343    1.5448 C   0  0  0  0  0  0  0  0  0  0  0  0
   -5.5795   -0.5048    0.4837 C   0  0  2  0  0  0  0  0  0  0  0  0
   -7.0238   -0.7442   -0.1042 C   0  0  0  0  0  0  0  0  0  0  0  0
   -7.8156    0.5404    0.0373 C   0  0  0  0  0  0  0  0  0  0  0  0
   -7.2953    1.1331    1.3543 C   0  0  0  0  0  0  0  0  0  0  0  0
   -7.8989    0.4971    2.6208 C   0  0  0  0  0  0  0  0  0  0  0  0
   -9.1267    1.3687    2.9716 C   0  0  0  0  0  0  0  0  0  0  0  0
   -9.1578    2.4793    1.9222 C   0  0  0  0  0  0  0  0  0  0  0  0
   -7.6993    2.6073    1.5245 C   0  0  0  0  0  0  0  0  0  0  0  0
   -5.7972    0.9027    1.1829 C   0  0  0  0  0  0  0  0  0  0  0  0
   -3.6979    4.5028    0.5912 C   0  0  0  0  0  0  0  0  0  0  0  0
   -3.9532    5.4403   -0.4300 C   0  0  0  0  0  0  0  0  0  0  0  0
   -3.3421    5.3331   -1.6331 N   0  0  0  0  0  0  0  0  0  0  0  0
   -2.4900    4.3285   -1.9239 C   0  0  0  0  0  0  0  0  0  0  0  0
   -4.8624    6.5124   -0.2302 N   0  0  0  0  0  0  0  0  0  0  0  0
   -5.5678    6.7530    1.0132 C   0  0  2  0  0  0  0  0  0  0  0  0
   -5.2128    8.1493    1.5221 C   0  0  0  0  0  0  0  0  0  0  0  0
   -5.2530    5.7252    2.0757 C   0  0  0  0  0  0  0  0  0  0  0  0
   -4.4051    4.7030    1.8872 C   0  0  0  0  0  0  0  0  0  0  0  0
    4.2489    2.0858   -0.8177 C   0  0  2  0  0  0  0  0  0  0  0  0
    4.5381    0.9568   -0.0069 O   0  0  0  0  0  0  0  0  0  0  0  0
    3.8467    3.3002    0.0600 C   0  0  0  0  0  0  0  0  0  0  0  0
    5.2068    3.8246    0.5499 C   0  0  2  0  0  0  0  0  0  0  0  0
    5.9349    3.9241   -0.7717 C   0  0  0  0  0  0  0  0  0  0  0  0
    5.6161    2.5971   -1.4497 C   0  0  1  0  0  0  0  0  0  0  0  0
    6.7661    1.5936   -1.2677 C   0  0  0  0  0  0  0  0  0  0  0  0
    7.5596    1.6449    0.0786 C   0  0  2  0  0  0  0  0  0  0  0  0
    8.4529    0.3638    0.0611 C   0  0  0  0  0  0  0  0  0  0  0  0
    9.2324    0.1094    1.3676 C   0  0  2  0  0  0  0  0  0  0  0  0
   10.2565    1.2864    1.6712 C   0  0  0  0  0  0  0  0  0  0  0  0
   11.7511    0.9677    1.3707 C   0  0  0  0  0  0  0  0  0  0  0  0
   11.8503    0.1160    0.1085 C   0  0  1  0  0  0  0  0  0  0  0  0
   13.2779   -0.0405   -0.4915 C   0  0  0  0  0  0  0  0  0  0  0  0
   13.3587   -1.2245   -1.5082 C   0  0  0  0  0  0  0  0  0  0  0  0
   11.9889   -1.4754   -2.1552 C   0  0  0  0  0  0  0  0  0  0  0  0
   10.9285   -1.8817   -1.0806 C   0  0  0  0  0  0  0  0  0  0  0  0
   11.2362   -1.2851    0.3395 C   0  0  1  0  0  0  0  0  0  0  0  0
   12.2080   -2.0967    0.9703 O   0  0  0  0  0  0  0  0  0  0  0  0
   10.0195   -1.2343    1.3118 C   0  0  0  0  0  0  0  0  0  0  0  0
    8.1773   -0.0248    2.5119 C   0  0  2  0  0  0  0  0  0  0  0  0
    7.5435   -1.2854    2.5281 O   0  0  0  0  0  0  0  0  0  0  0  0
    7.1146    1.0433    2.5391 C   0  0  0  0  0  0  0  0  0  0  0  0
    6.7889    1.8551    1.4114 C   0  0  0  0  0  0  0  0  0  0  0  0
    5.7624    2.8559    1.5978 C   0  0  0  0  0  0  0  0  0  0  0  0
    5.1043    2.9512    2.8416 C   0  0  0  0  0  0  0  0  0  0  0  0
    5.4294    2.1265    3.9008 C   0  0  0  0  0  0  0  0  0  0  0  0
    6.4233    1.1806    3.7517 C   0  0  0  0  0  0  0  0  0  0  0  0
    2.5963    1.3934   -5.1582 H   0  0  0  0  0  0  0  0  0  0  0  0
    1.3212    1.8926   -4.0029 H   0  0  0  0  0  0  0  0  0  0  0  0
    1.9584    0.1704   -4.0200 H   0  0  0  0  0  0  0  0  0  0  0  0
    4.1451    1.9959   -3.6139 H   0  0  0  0  0  0  0  0  0  0  0  0
   -0.1216   -0.3165   -0.2284 H   0  0  0  0  0  0  0  0  0  0  0  0
    1.5666   -1.9572   -0.9217 H   0  0  0  0  0  0  0  0  0  0  0  0
    0.7419   -2.1298   -2.4923 H   0  0  0  0  0  0  0  0  0  0  0  0
   -2.0174   -0.2177   -4.1841 H   0  0  0  0  0  0  0  0  0  0  0  0
   -0.4626   -1.0712   -4.0167 H   0  0  0  0  0  0  0  0  0  0  0  0
   -0.5397    0.7175   -3.8617 H   0  0  0  0  0  0  0  0  0  0  0  0
   -2.8733    1.1041   -2.5036 H   0  0  0  0  0  0  0  0  0  0  0  0
   -0.8139    2.4036   -2.3343 H   0  0  0  0  0  0  0  0  0  0  0  0
   -0.6004    2.0353   -0.6048 H   0  0  0  0  0  0  0  0  0  0  0  0
   -3.0199    2.4657    2.2982 H   0  0  0  0  0  0  0  0  0  0  0  0
   -1.3923    2.4608    1.6843 H   0  0  0  0  0  0  0  0  0  0  0  0
   -3.2420    0.3534    1.7230 H   0  0  0  0  0  0  0  0  0  0  0  0
   -1.7080    0.2786    1.0140 H   0  0  0  0  0  0  0  0  0  0  0  0
   -3.9045    1.5368   -0.6002 H   0  0  0  0  0  0  0  0  0  0  0  0
   -3.7286   -1.2980   -0.2854 H   0  0  0  0  0  0  0  0  0  0  0  0
   -5.5743    1.8550   -1.6840 H   0  0  0  0  0  0  0  0  0  0  0  0
   -5.8425    2.1293   -3.3798 H   0  0  0  0  0  0  0  0  0  0  0  0
   -5.3517   -1.7020   -5.7361 H   0  0  0  0  0  0  0  0  0  0  0  0
   -4.6525   -3.4520   -4.2192 H   0  0  0  0  0  0  0  0  0  0  0  0
   -3.9733   -4.1545   -2.2921 H   0  0  0  0  0  0  0  0  0  0  0  0
   -3.8584   -8.3121    2.1616 H   0  0  0  0  0  0  0  0  0  0  0  0
   -4.7824   -7.7302    0.7495 H   0  0  0  0  0  0  0  0  0  0  0  0
   -4.6499   -6.6822    3.3947 H   0  0  0  0  0  0  0  0  0  0  0  0
   -1.6031   -7.5996    2.3098 H   0  0  0  0  0  0  0  0  0  0  0  0
    1.6864   -4.6167    0.8672 H   0  0  0  0  0  0  0  0  0  0  0  0
   -5.1005   -5.2240   -0.8790 H   0  0  0  0  0  0  0  0  0  0  0  0
   -7.3193   -5.1371   -1.7989 H   0  0  0  0  0  0  0  0  0  0  0  0
   -6.1400   -4.6871   -2.9718 H   0  0  0  0  0  0  0  0  0  0  0  0
   -8.0634   -3.1400   -1.6632 H   0  0  0  0  0  0  0  0  0  0  0  0
   -7.0546   -5.9380    0.1358 H   0  0  0  0  0  0  0  0  0  0  0  0
   -8.5261   -7.0279    1.6162 H   0  0  0  0  0  0  0  0  0  0  0  0
   -8.0900   -4.3341    3.9015 H   0  0  0  0  0  0  0  0  0  0  0  0
   -6.7222   -2.4164    3.5377 H   0  0  0  0  0  0  0  0  0  0  0  0
   -4.1470   -1.8604    1.6321 H   0  0  0  0  0  0  0  0  0  0  0  0
   -5.3837   -1.1452    2.5291 H   0  0  0  0  0  0  0  0  0  0  0  0
   -7.5994   -1.4396    0.5335 H   0  0  0  0  0  0  0  0  0  0  0  0
   -7.0760   -1.1358   -1.1236 H   0  0  0  0  0  0  0  0  0  0  0  0
   -8.9116    0.3744   -0.0349 H   0  0  0  0  0  0  0  0  0  0  0  0
   -7.5242    1.2087   -0.7968 H   0  0  0  0  0  0  0  0  0  0  0  0
   -7.1692    0.6756    3.4455 H   0  0  0  0  0  0  0  0  0  0  0  0
   -8.0841   -0.5934    2.5968 H   0  0  0  0  0  0  0  0  0  0  0  0
   -8.9307    1.8379    3.9632 H   0  0  0  0  0  0  0  0  0  0  0  0
  -10.0915    0.8229    3.0209 H   0  0  0  0  0  0  0  0  0  0  0  0
   -9.6423    3.4183    2.2624 H   0  0  0  0  0  0  0  0  0  0  0  0
   -9.7274    2.1208    1.0386 H   0  0  0  0  0  0  0  0  0  0  0  0
   -7.1314    3.0599    2.3687 H   0  0  0  0  0  0  0  0  0  0  0  0
   -7.5385    3.2285    0.6153 H   0  0  0  0  0  0  0  0  0  0  0  0
   -5.1976    1.1277    2.0864 H   0  0  0  0  0  0  0  0  0  0  0  0
   -5.5696    1.7067    0.4758 H   0  0  0  0  0  0  0  0  0  0  0  0
   -2.0616    4.2762   -2.9158 H   0  0  0  0  0  0  0  0  0  0  0  0
   -5.0367    7.1558   -1.0182 H   0  0  0  0  0  0  0  0  0  0  0  0
   -6.6601    6.7108    0.8131 H   0  0  0  0  0  0  0  0  0  0  0  0
   -4.1219    8.2194    1.7206 H   0  0  0  0  0  0  0  0  0  0  0  0
   -5.7700    8.3776    2.4551 H   0  0  0  0  0  0  0  0  0  0  0  0
   -5.4853    8.9094    0.7582 H   0  0  0  0  0  0  0  0  0  0  0  0
   -5.7468    5.8227    3.0391 H   0  0  0  0  0  0  0  0  0  0  0  0
   -4.2737    4.0421    2.7292 H   0  0  0  0  0  0  0  0  0  0  0  0
    3.9799    0.9539    0.8117 H   0  0  0  0  0  0  0  0  0  0  0  0
    3.1158    3.0829    0.8677 H   0  0  0  0  0  0  0  0  0  0  0  0
    3.3767    4.0739   -0.5907 H   0  0  0  0  0  0  0  0  0  0  0  0
    5.1474    4.8386    1.0057 H   0  0  0  0  0  0  0  0  0  0  0  0
    6.9982    4.2345   -0.7476 H   0  0  0  0  0  0  0  0  0  0  0  0
    5.4162    4.7310   -1.3444 H   0  0  0  0  0  0  0  0  0  0  0  0
    5.5778    2.8367   -2.5212 H   0  0  0  0  0  0  0  0  0  0  0  0
    7.5289    1.8060   -2.0520 H   0  0  0  0  0  0  0  0  0  0  0  0
    6.3729    0.5829   -1.5157 H   0  0  0  0  0  0  0  0  0  0  0  0
    8.1881    2.5537    0.0174 H   0  0  0  0  0  0  0  0  0  0  0  0
    9.1180    0.4237   -0.8187 H   0  0  0  0  0  0  0  0  0  0  0  0
    7.7975   -0.5194   -0.1013 H   0  0  0  0  0  0  0  0  0  0  0  0
   10.2187    1.6168    2.7305 H   0  0  0  0  0  0  0  0  0  0  0  0
    9.9816    2.1807    1.0846 H   0  0  0  0  0  0  0  0  0  0  0  0
   12.2017    0.3881    2.2060 H   0  0  0  0  0  0  0  0  0  0  0  0
   12.3078    1.9253    1.2796 H   0  0  0  0  0  0  0  0  0  0  0  0
   11.2557    0.6550   -0.6590 H   0  0  0  0  0  0  0  0  0  0  0  0
   14.0482   -0.2220    0.2894 H   0  0  0  0  0  0  0  0  0  0  0  0
   13.5192    0.9239   -0.9887 H   0  0  0  0  0  0  0  0  0  0  0  0
   13.6353   -2.1665   -0.9872 H   0  0  0  0  0  0  0  0  0  0  0  0
   14.1605   -1.0252   -2.2499 H   0  0  0  0  0  0  0  0  0  0  0  0
   12.0235   -2.2460   -2.9548 H   0  0  0  0  0  0  0  0  0  0  0  0
   11.6920   -0.5165   -2.6334 H   0  0  0  0  0  0  0  0  0  0  0  0
   10.8830   -2.9874   -0.9752 H   0  0  0  0  0  0  0  0  0  0  0  0
    9.9411   -1.5715   -1.4776 H   0  0  0  0  0  0  0  0  0  0  0  0
   11.8199   -3.0017    1.1061 H   0  0  0  0  0  0  0  0  0  0  0  0
   10.4342   -1.3334    2.3422 H   0  0  0  0  0  0  0  0  0  0  0  0
    9.3824   -2.1316    1.1531 H   0  0  0  0  0  0  0  0  0  0  0  0
    8.7570    0.0355    3.4604 H   0  0  0  0  0  0  0  0  0  0  0  0
    6.8957   -1.3223    1.7774 H   0  0  0  0  0  0  0  0  0  0  0  0
    4.3161    3.6804    2.9932 H   0  0  0  0  0  0  0  0  0  0  0  0
    4.9071    2.2207    4.8442 H   0  0  0  0  0  0  0  0  0  0  0  0
    6.6660    0.5487    4.5978 H   0  0  0  0  0  0  0  0  0  0  0  0
  1  2  1  0  0  0  0
  1 99  1  0  0  0  0
  1100  1  0  0  0  0
  1101  1  0  0  0  0
  2  3  2  0  0  0  0
  2102  1  0  0  0  0
  3  4  1  0  0  0  0
  4  5  2  0  0  0  0
  4  6  1  0  0  0  0
  7  6  1  0  0  0  0
  7  8  1  0  0  0  0
  7103  1  1  0  0  0
  8  9  1  0  0  0  0
  8104  1  0  0  0  0
  8105  1  0  0  0  0
  9 10  2  0  0  0  0
 10 11  1  0  0  0  0
 11 12  1  0  0  0  0
 12 13  1  6  0  0  0
 12 14  1  0  0  0  0
 12  7  1  0  0  0  0
 13106  1  0  0  0  0
 13107  1  0  0  0  0
 13108  1  0  0  0  0
 14 15  1  0  0  0  0
 14109  1  6  0  0  0
 15 16  1  0  0  0  0
 15110  1  0  0  0  0
 15111  1  0  0  0  0
 16 17  2  0  0  0  0
 17 18  1  0  0  0  0
 17 62  1  0  0  0  0
 18 19  1  0  0  0  0
 18112  1  0  0  0  0
 18113  1  0  0  0  0
 19114  1  0  0  0  0
 19115  1  0  0  0  0
 20 19  1  0  0  0  0
 20 21  1  0  0  0  0
 20 14  1  0  0  0  0
 20116  1  6  0  0  0
 21 22  1  0  0  0  0
 21117  1  1  0  0  0
 22 23  2  0  0  0  0
 23 24  1  0  0  0  0
 23 25  1  0  0  0  0
 24118  1  0  0  0  0
 24119  1  0  0  0  0
 25 26  2  0  0  0  0
 26 27  1  0  0  0  0
 26120  1  0  0  0  0
 27 28  2  0  0  0  0
 27121  1  0  0  0  0
 28 29  1  0  0  0  0
 28 22  1  0  0  0  0
 29 30  1  0  0  0  0
 29 42  1  0  0  0  0
 29122  1  6  0  0  0
 30 31  2  0  0  0  0
 30 10  1  0  0  0  0
 31 32  1  0  0  0  0
 32 33  1  0  0  0  0
 33 34  1  0  0  0  0
 33 36  2  0  0  0  0
 34 35  1  0  0  0  0
 34123  1  0  0  0  0
 34124  1  0  0  0  0
 35125  1  0  0  0  0
 36 37  1  0  0  0  0
 36126  1  0  0  0  0
 37 38  2  0  0  0  0
 37 39  1  0  0  0  0
 39 40  2  0  0  0  0
 39 31  1  0  0  0  0
 40 41  1  0  0  0  0
 40  9  1  0  0  0  0
 41127  1  0  0  0  0
 42 43  1  0  0  0  0
 42 45  1  0  0  0  0
 42128  1  1  0  0  0
 43 44  1  0  0  0  0
 43129  1  0  0  0  0
 43130  1  0  0  0  0
 44131  1  0  0  0  0
 45 46  2  0  0  0  0
 46 47  1  0  0  0  0
 46132  1  0  0  0  0
 47 48  1  0  0  0  0
 47 49  2  0  0  0  0
 48133  1  0  0  0  0
 49 50  1  0  0  0  0
 49134  1  0  0  0  0
 50 51  2  0  0  0  0
 50135  1  0  0  0  0
 51 52  1  0  0  0  0
 51 45  1  0  0  0  0
 52136  1  0  0  0  0
 52137  1  0  0  0  0
 53 52  1  1  0  0  0
 53 54  1  0  0  0  0
 53 21  1  0  0  0  0
 54 55  1  0  0  0  0
 54138  1  0  0  0  0
 54139  1  0  0  0  0
 55 56  1  0  0  0  0
 55140  1  0  0  0  0
 55141  1  0  0  0  0
 56 57  1  0  0  0  0
 56 61  1  0  0  0  0
 57 58  1  0  0  0  0
 57142  1  0  0  0  0
 57143  1  0  0  0  0
 58 59  1  0  0  0  0
 58144  1  0  0  0  0
 58145  1  0  0  0  0
 59 60  1  0  0  0  0
 59146  1  0  0  0  0
 59147  1  0  0  0  0
 60 56  1  0  0  0  0
 60148  1  0  0  0  0
 60149  1  0  0  0  0
 61 53  1  0  0  0  0
 61150  1  0  0  0  0
 61151  1  0  0  0  0
 62 63  2  0  0  0  0
 63 64  1  0  0  0  0
 63 66  1  0  0  0  0
 64 65  2  0  0  0  0
 65 16  1  0  0  0  0
 65152  1  0  0  0  0
 66 67  1  0  0  0  0
 66153  1  0  0  0  0
 67 68  1  0  0  0  0
 67 69  1  0  0  0  0
 67154  1  6  0  0  0
 68155  1  0  0  0  0
 68156  1  0  0  0  0
 68157  1  0  0  0  0
 69 70  2  0  0  0  0
 69158  1  0  0  0  0
 70 62  1  0  0  0  0
 70159  1  0  0  0  0
 71  3  1  6  0  0  0
 71 72  1  0  0  0  0
 71 73  1  0  0  0  0
 72160  1  0  0  0  0
 73161  1  0  0  0  0
 73162  1  0  0  0  0
 74 73  1  0  0  0  0
 74 75  1  0  0  0  0
 74163  1  1  0  0  0
 75 76  1  0  0  0  0
 75164  1  0  0  0  0
 75165  1  0  0  0  0
 76 77  1  0  0  0  0
 76 71  1  0  0  0  0
 76166  1  6  0  0  0
 77167  1  0  0  0  0
 77168  1  0  0  0  0
 78 77  1  0  0  0  0
 78 79  1  0  0  0  0
 78169  1  6  0  0  0
 79170  1  0  0  0  0
 79171  1  0  0  0  0
 80 79  1  6  0  0  0
 80 81  1  0  0  0  0
 80 91  1  0  0  0  0
 81 82  1  0  0  0  0
 81172  1  0  0  0  0
 81173  1  0  0  0  0
 82174  1  0  0  0  0
 82175  1  0  0  0  0
 83 82  1  0  0  0  0
 83 84  1  0  0  0  0
 83176  1  6  0  0  0
 84 85  1  0  0  0  0
 84177  1  0  0  0  0
 84178  1  0  0  0  0
 85 86  1  0  0  0  0
 85179  1  0  0  0  0
 85180  1  0  0  0  0
 86 87  1  0  0  0  0
 86181  1  0  0  0  0
 86182  1  0  0  0  0
 87 88  1  0  0  0  0
 87183  1  0  0  0  0
 87184  1  0  0  0  0
 88 89  1  1  0  0  0
 88 90  1  0  0  0  0
 88 83  1  0  0  0  0
 89185  1  0  0  0  0
 90 80  1  0  0  0  0
 90186  1  0  0  0  0
 90187  1  0  0  0  0
 91 92  1  0  0  0  0
 91 93  1  0  0  0  0
 91188  1  1  0  0  0
 92189  1  0  0  0  0
 93 94  1  0  0  0  0
 94 95  2  0  0  0  0
 94 78  1  0  0  0  0
 95 96  1  0  0  0  0
 95 74  1  0  0  0  0
 96 97  2  0  0  0  0
 96190  1  0  0  0  0
 97 98  1  0  0  0  0
 97191  1  0  0  0  0
 98 93  2  0  0  0  0
 98192  1  0  0  0  0
M  END
>  <IDENTIFIER>
CNP0548852.1

>  <Energy>
3309.82

$$$$
