
 OpenBabel09122504173D

 95103  0  0  0  0  0  0  0  0999 V2000
    2.6040   -3.2673   -0.7267 O   0  0  0  0  0  0  0  0  0  0  0  0
    2.9050   -2.0890   -0.5629 C   0  0  0  0  0  0  0  0  0  0  0  0
    1.9118   -1.1495   -0.5975 O   0  0  0  0  0  0  0  0  0  0  0  0
    0.8063   -1.3660   -1.4271 C   0  0  2  0  0  0  0  0  0  0  0  0
    0.6262   -0.2192   -2.4772 C   0  0  2  0  0  0  0  0  0  0  0  0
    2.0117    0.0545   -3.1583 C   0  0  0  0  0  0  0  0  0  0  0  0
    2.9943    0.3853   -2.2140 O   0  0  0  0  0  0  0  0  0  0  0  0
    2.9701    1.5370   -1.4947 C   0  0  0  0  0  0  0  0  0  0  0  0
    2.5774    2.5417   -2.0609 O   0  0  0  0  0  0  0  0  0  0  0  0
    3.2939    1.5666   -0.0100 C   0  0  0  0  0  0  0  0  0  0  0  0
    2.7869    2.6238    0.8393 C   0  0  0  0  0  0  0  0  0  0  0  0
    2.0101    3.6363    0.4023 O   0  0  0  0  0  0  0  0  0  0  0  0
    3.0800    2.6605    2.2165 C   0  0  0  0  0  0  0  0  0  0  0  0
    2.5969    3.6486    3.0056 O   0  0  0  0  0  0  0  0  0  0  0  0
    3.8815    1.6839    2.7912 C   0  0  0  0  0  0  0  0  0  0  0  0
    4.1933    1.7092    4.1055 O   0  0  0  0  0  0  0  0  0  0  0  0
    4.3921    0.6726    2.0038 C   0  0  0  0  0  0  0  0  0  0  0  0
    4.1225    0.5774    0.6232 C   0  0  0  0  0  0  0  0  0  0  0  0
    4.9008   -0.5216   -0.0248 C   0  0  0  0  0  0  0  0  0  0  0  0
    4.3557   -1.7458   -0.5022 C   0  0  0  0  0  0  0  0  0  0  0  0
    5.2489   -2.7567   -0.9321 C   0  0  0  0  0  0  0  0  0  0  0  0
    6.6323   -2.5934   -0.8894 C   0  0  0  0  0  0  0  0  0  0  0  0
    7.4487   -3.5872   -1.3014 O   0  0  0  0  0  0  0  0  0  0  0  0
    7.1719   -1.4033   -0.4044 C   0  0  0  0  0  0  0  0  0  0  0  0
    8.5114   -1.2364   -0.3273 O   0  0  0  0  0  0  0  0  0  0  0  0
    6.3185   -0.3770    0.0292 C   0  0  0  0  0  0  0  0  0  0  0  0
    6.8522    0.7648    0.5262 O   0  0  0  0  0  0  0  0  0  0  0  0
    0.1813    0.9647   -1.9153 O   0  0  0  0  0  0  0  0  0  0  0  0
   -1.0692    1.5096   -1.9957 C   0  0  0  0  0  0  0  0  0  0  0  0
   -2.0259    0.8425   -2.3606 O   0  0  0  0  0  0  0  0  0  0  0  0
   -1.2576    2.8337   -1.3614 C   0  0  0  0  0  0  0  0  0  0  0  0
   -0.3939    3.8433   -1.8035 C   0  0  0  0  0  0  0  0  0  0  0  0
   -0.4476    5.1347   -1.2789 C   0  0  0  0  0  0  0  0  0  0  0  0
    0.3814    6.0930   -1.7449 O   0  0  0  0  0  0  0  0  0  0  0  0
   -1.3519    5.4285   -0.2558 C   0  0  0  0  0  0  0  0  0  0  0  0
   -1.3916    6.6641    0.2913 O   0  0  0  0  0  0  0  0  0  0  0  0
   -2.2335    4.4363    0.2081 C   0  0  0  0  0  0  0  0  0  0  0  0
   -3.0785    4.7249    1.2265 O   0  0  0  0  0  0  0  0  0  0  0  0
   -2.2385    3.1292   -0.3638 C   0  0  0  0  0  0  0  0  0  0  0  0
   -3.2739    2.1302    0.1165 C   0  0  0  0  0  0  0  0  0  0  0  0
   -4.6455    2.5591    0.1480 C   0  0  0  0  0  0  0  0  0  0  0  0
   -5.0407    3.7825   -0.2825 O   0  0  0  0  0  0  0  0  0  0  0  0
   -5.6686    1.7017    0.5697 C   0  0  0  0  0  0  0  0  0  0  0  0
   -6.9522    2.1276    0.6165 O   0  0  0  0  0  0  0  0  0  0  0  0
   -5.3886    0.3867    0.9144 C   0  0  0  0  0  0  0  0  0  0  0  0
   -6.3842   -0.4491    1.2936 O   0  0  0  0  0  0  0  0  0  0  0  0
   -4.0799   -0.0941    0.8448 C   0  0  0  0  0  0  0  0  0  0  0  0
   -2.9689    0.7678    0.4719 C   0  0  0  0  0  0  0  0  0  0  0  0
   -1.5185    0.2399    0.4789 C   0  0  0  0  0  0  0  0  0  0  0  0
   -0.5828    0.9508    0.8128 O   0  0  0  0  0  0  0  0  0  0  0  0
   -1.2828   -0.9535   -0.1309 O   0  0  0  0  0  0  0  0  0  0  0  0
   -0.3797   -1.9246   -0.5758 C   0  0  1  0  0  0  0  0  0  0  0  0
   -1.2054   -3.0718   -1.3577 C   0  0  2  0  0  0  0  0  0  0  0  0
   -2.2772   -2.4932   -2.0175 O   0  0  0  0  0  0  0  0  0  0  0  0
   -3.2831   -1.9789   -1.2589 C   0  0  0  0  0  0  0  0  0  0  0  0
   -4.0649   -1.1794   -1.7484 O   0  0  0  0  0  0  0  0  0  0  0  0
   -3.3366   -2.3588    0.2077 C   0  0  0  0  0  0  0  0  0  0  0  0
   -3.8445   -1.5102    1.1993 C   0  0  0  0  0  0  0  0  0  0  0  0
   -3.9299   -1.9560    2.5452 C   0  0  0  0  0  0  0  0  0  0  0  0
   -4.4188   -1.1638    3.5265 O   0  0  0  0  0  0  0  0  0  0  0  0
   -3.4349   -3.2256    2.8892 C   0  0  0  0  0  0  0  0  0  0  0  0
   -3.5034   -3.6721    4.1640 O   0  0  0  0  0  0  0  0  0  0  0  0
   -2.7718   -4.0007    1.9229 C   0  0  0  0  0  0  0  0  0  0  0  0
   -2.1710   -5.1635    2.2621 O   0  0  0  0  0  0  0  0  0  0  0  0
   -2.6967   -3.5444    0.5973 C   0  0  0  0  0  0  0  0  0  0  0  0
   -1.7712   -4.1897   -0.4051 C   0  0  1  0  0  0  0  0  0  0  0  0
   -2.4253   -5.3589   -1.1159 C   0  0  0  0  0  0  0  0  0  0  0  0
   -1.9260   -6.4684   -1.0122 O   0  0  0  0  0  0  0  0  0  0  0  0
   -3.5499   -5.2228   -1.8517 O   0  0  0  0  0  0  0  0  0  0  0  0
    1.0747   -2.2120   -2.0990 H   0  0  0  0  0  0  0  0  0  0  0  0
   -0.1046   -0.5602   -3.2456 H   0  0  0  0  0  0  0  0  0  0  0  0
    1.9197    0.8544   -3.9258 H   0  0  0  0  0  0  0  0  0  0  0  0
    2.3352   -0.8704   -3.6811 H   0  0  0  0  0  0  0  0  0  0  0  0
    1.7370    3.8128   -0.4916 H   0  0  0  0  0  0  0  0  0  0  0  0
    2.0327    4.3660    2.6854 H   0  0  0  0  0  0  0  0  0  0  0  0
    3.8866    2.4019    4.7074 H   0  0  0  0  0  0  0  0  0  0  0  0
    5.0360   -0.0576    2.4845 H   0  0  0  0  0  0  0  0  0  0  0  0
    4.8741   -3.7019   -1.3062 H   0  0  0  0  0  0  0  0  0  0  0  0
    7.1118   -4.4307   -1.6360 H   0  0  0  0  0  0  0  0  0  0  0  0
    9.1446   -1.9217   -0.5838 H   0  0  0  0  0  0  0  0  0  0  0  0
    7.8040    0.9135    0.6154 H   0  0  0  0  0  0  0  0  0  0  0  0
    0.3244    3.6303   -2.5858 H   0  0  0  0  0  0  0  0  0  0  0  0
    1.0101    5.9291   -2.4624 H   0  0  0  0  0  0  0  0  0  0  0  0
   -0.8140    7.3864    0.0070 H   0  0  0  0  0  0  0  0  0  0  0  0
   -3.1108    5.5863    1.6648 H   0  0  0  0  0  0  0  0  0  0  0  0
   -4.4990    4.4109   -0.7740 H   0  0  0  0  0  0  0  0  0  0  0  0
   -7.2270    3.0282    0.3949 H   0  0  0  0  0  0  0  0  0  0  0  0
   -7.3104   -0.1784    1.3604 H   0  0  0  0  0  0  0  0  0  0  0  0
    0.0984   -2.4360    0.2877 H   0  0  0  0  0  0  0  0  0  0  0  0
   -0.5455   -3.6037   -2.0749 H   0  0  0  0  0  0  0  0  0  0  0  0
   -4.7295   -0.2588    3.3920 H   0  0  0  0  0  0  0  0  0  0  0  0
   -3.9228   -3.1716    4.8762 H   0  0  0  0  0  0  0  0  0  0  0  0
   -2.1829   -5.5209    3.1606 H   0  0  0  0  0  0  0  0  0  0  0  0
   -0.8808   -4.5833    0.1354 H   0  0  0  0  0  0  0  0  0  0  0  0
   -4.0174   -4.3858   -1.9525 H   0  0  0  0  0  0  0  0  0  0  0  0
  1  2  2  0  0  0  0
  2  3  1  0  0  0  0
  4  3  1  0  0  0  0
  4  5  1  0  0  0  0
  4 70  1  6  0  0  0
  5  6  1  0  0  0  0
  5 28  1  0  0  0  0
  5 71  1  6  0  0  0
  6  7  1  0  0  0  0
  6 72  1  0  0  0  0
  6 73  1  0  0  0  0
  7  8  1  0  0  0  0
  8  9  2  0  0  0  0
  8 10  1  0  0  0  0
 10 11  2  0  0  0  0
 11 12  1  0  0  0  0
 11 13  1  0  0  0  0
 12 74  1  0  0  0  0
 13 14  1  0  0  0  0
 13 15  2  0  0  0  0
 14 75  1  0  0  0  0
 15 16  1  0  0  0  0
 15 17  1  0  0  0  0
 16 76  1  0  0  0  0
 17 18  2  0  0  0  0
 17 77  1  0  0  0  0
 18 19  1  0  0  0  0
 18 10  1  0  0  0  0
 19 20  2  0  0  0  0
 20 21  1  0  0  0  0
 20  2  1  0  0  0  0
 21 22  2  0  0  0  0
 21 78  1  0  0  0  0
 22 23  1  0  0  0  0
 22 24  1  0  0  0  0
 23 79  1  0  0  0  0
 24 25  1  0  0  0  0
 24 26  2  0  0  0  0
 25 80  1  0  0  0  0
 26 27  1  0  0  0  0
 26 19  1  0  0  0  0
 27 81  1  0  0  0  0
 28 29  1  0  0  0  0
 29 30  2  0  0  0  0
 29 31  1  0  0  0  0
 31 32  2  0  0  0  0
 32 33  1  0  0  0  0
 32 82  1  0  0  0  0
 33 34  1  0  0  0  0
 33 35  2  0  0  0  0
 34 83  1  0  0  0  0
 35 36  1  0  0  0  0
 35 37  1  0  0  0  0
 36 84  1  0  0  0  0
 37 38  1  0  0  0  0
 37 39  2  0  0  0  0
 38 85  1  0  0  0  0
 39 40  1  0  0  0  0
 39 31  1  0  0  0  0
 40 41  2  0  0  0  0
 41 42  1  0  0  0  0
 41 43  1  0  0  0  0
 42 86  1  0  0  0  0
 43 44  1  0  0  0  0
 43 45  2  0  0  0  0
 44 87  1  0  0  0  0
 45 46  1  0  0  0  0
 45 47  1  0  0  0  0
 46 88  1  0  0  0  0
 47 48  2  0  0  0  0
 48 49  1  0  0  0  0
 48 40  1  0  0  0  0
 49 50  2  0  0  0  0
 49 51  1  0  0  0  0
 52 51  1  0  0  0  0
 52 53  1  0  0  0  0
 52  4  1  0  0  0  0
 52 89  1  1  0  0  0
 53 54  1  0  0  0  0
 53 90  1  6  0  0  0
 54 55  1  0  0  0  0
 55 56  2  0  0  0  0
 55 57  1  0  0  0  0
 57 58  2  0  0  0  0
 58 59  1  0  0  0  0
 58 47  1  0  0  0  0
 59 60  1  0  0  0  0
 59 61  2  0  0  0  0
 60 91  1  0  0  0  0
 61 62  1  0  0  0  0
 61 63  1  0  0  0  0
 62 92  1  0  0  0  0
 63 64  1  0  0  0  0
 63 65  2  0  0  0  0
 64 93  1  0  0  0  0
 65 66  1  0  0  0  0
 65 57  1  0  0  0  0
 66 67  1  0  0  0  0
 66 53  1  0  0  0  0
 66 94  1  1  0  0  0
 67 68  2  0  0  0  0
 67 69  1  0  0  0  0
 69 95  1  0  0  0  0
M  END
>  <IDENTIFIER>
CNP0541400.0

>  <Energy>
1899.78

$$$$
