
 OpenBabel09112501393D

 95100  0  0  0  0  0  0  0  0999 V2000
    1.0253   -2.3443    1.5151 O   0  0  0  0  0  0  0  0  0  0  0  0
    1.4831   -1.2751    1.1432 C   0  0  0  0  0  0  0  0  0  0  0  0
    0.6253   -0.1815    0.9618 C   0  0  0  0  0  0  0  0  0  0  0  0
   -0.7000   -0.3492    1.1649 O   0  0  0  0  0  0  0  0  0  0  0  0
   -1.5423   -1.0066    0.2856 C   0  0  2  0  0  0  0  0  0  0  0  0
   -2.5340   -0.0929   -0.1448 O   0  0  0  0  0  0  0  0  0  0  0  0
   -3.3124   -0.6121   -1.2258 C   0  0  2  0  0  0  0  0  0  0  0  0
   -4.5352    0.3196   -1.4324 C   0  0  0  0  0  0  0  0  0  0  0  0
   -5.2865    0.5512   -0.2478 O   0  0  0  0  0  0  0  0  0  0  0  0
   -6.5301   -0.1215   -0.2714 C   0  0  2  0  0  0  0  0  0  0  0  0
   -7.3959    0.5153   -1.2220 O   0  0  0  0  0  0  0  0  0  0  0  0
   -8.7470    0.2010   -0.9581 C   0  0  2  0  0  0  0  0  0  0  0  0
   -9.6116    0.5424   -2.1752 C   0  0  0  0  0  0  0  0  0  0  0  0
  -10.9440    0.1592   -1.9664 O   0  0  0  0  0  0  0  0  0  0  0  0
   -9.2230    0.9509    0.3246 C   0  0  1  0  0  0  0  0  0  0  0  0
  -10.3448    0.3034    0.8794 O   0  0  0  0  0  0  0  0  0  0  0  0
   -8.0529    1.0828    1.3533 C   0  0  2  0  0  0  0  0  0  0  0  0
   -7.3175    2.2761    1.1739 O   0  0  0  0  0  0  0  0  0  0  0  0
   -7.1104   -0.1198    1.2049 C   0  0  1  0  0  0  0  0  0  0  0  0
   -7.8427   -1.2858    1.5117 O   0  0  0  0  0  0  0  0  0  0  0  0
   -3.6923   -2.1403   -1.0495 C   0  0  1  0  0  0  0  0  0  0  0  0
   -2.8535   -3.0107   -1.7816 O   0  0  0  0  0  0  0  0  0  0  0  0
   -3.6137   -2.5267    0.4396 C   0  0  2  0  0  0  0  0  0  0  0  0
   -4.5928   -1.8294    1.1688 O   0  0  0  0  0  0  0  0  0  0  0  0
   -2.1906   -2.2321    0.9969 C   0  0  1  0  0  0  0  0  0  0  0  0
   -1.3560   -3.3609    0.9142 O   0  0  0  0  0  0  0  0  0  0  0  0
    1.1668    1.0623    0.5516 C   0  0  0  0  0  0  0  0  0  0  0  0
    0.3619    2.3134    0.3198 C   0  0  0  0  0  0  0  0  0  0  0  0
   -0.9663    2.4958    0.7716 C   0  0  0  0  0  0  0  0  0  0  0  0
   -1.6600    3.6808    0.5100 C   0  0  0  0  0  0  0  0  0  0  0  0
   -1.0516    4.7168   -0.2033 C   0  0  0  0  0  0  0  0  0  0  0  0
   -1.7276    5.8568   -0.4565 O   0  0  0  0  0  0  0  0  0  0  0  0
    0.2698    4.5650   -0.6513 C   0  0  0  0  0  0  0  0  0  0  0  0
    0.8900    5.5449   -1.3425 O   0  0  0  0  0  0  0  0  0  0  0  0
    0.9641    3.3785   -0.3851 C   0  0  0  0  0  0  0  0  0  0  0  0
    2.4809    1.1432    0.3343 O   0  0  0  0  0  0  0  0  0  0  0  0
    3.3278    0.1298    0.4956 C   0  0  0  0  0  0  0  0  0  0  0  0
    4.6928    0.3357    0.2635 C   0  0  0  0  0  0  0  0  0  0  0  0
    5.6116   -0.7205    0.4433 C   0  0  0  0  0  0  0  0  0  0  0  0
    6.9500   -0.6081    0.2733 O   0  0  0  0  0  0  0  0  0  0  0  0
    7.7335    0.4853   -0.0424 C   0  0  2  0  0  0  0  0  0  0  0  0
    8.5148    0.2188   -1.2082 O   0  0  0  0  0  0  0  0  0  0  0  0
    9.5100   -0.7962   -1.0338 C   0  0  2  0  0  0  0  0  0  0  0  0
    8.9162   -2.2253   -1.0936 C   0  0  0  0  0  0  0  0  0  0  0  0
    9.9392   -3.1852   -1.1071 O   0  0  0  0  0  0  0  0  0  0  0  0
   10.4425   -0.5232    0.1802 C   0  0  1  0  0  0  0  0  0  0  0  0
   11.2346    0.5998   -0.1125 O   0  0  0  0  0  0  0  0  0  0  0  0
    9.6242   -0.2611    1.4617 C   0  0  2  0  0  0  0  0  0  0  0  0
    8.9441   -1.4216    1.8676 O   0  0  0  0  0  0  0  0  0  0  0  0
    8.6106    0.8617    1.1786 C   0  0  1  0  0  0  0  0  0  0  0  0
    9.2729    2.0964    1.0020 O   0  0  0  0  0  0  0  0  0  0  0  0
    5.1382   -1.9709    0.8461 C   0  0  0  0  0  0  0  0  0  0  0  0
    3.7785   -2.1940    1.0834 C   0  0  0  0  0  0  0  0  0  0  0  0
    3.3648   -3.4157    1.4810 O   0  0  0  0  0  0  0  0  0  0  0  0
    2.8601   -1.1314    0.9132 C   0  0  0  0  0  0  0  0  0  0  0  0
   -0.9647   -1.3331   -0.6109 H   0  0  0  0  0  0  0  0  0  0  0  0
   -2.7595   -0.4956   -2.1851 H   0  0  0  0  0  0  0  0  0  0  0  0
   -5.1455   -0.0333   -2.2964 H   0  0  0  0  0  0  0  0  0  0  0  0
   -4.1479    1.3140   -1.7479 H   0  0  0  0  0  0  0  0  0  0  0  0
   -6.3487   -1.1727   -0.5754 H   0  0  0  0  0  0  0  0  0  0  0  0
   -8.8206   -0.9047   -0.8217 H   0  0  0  0  0  0  0  0  0  0  0  0
   -9.2100    0.0422   -3.0856 H   0  0  0  0  0  0  0  0  0  0  0  0
   -9.5774    1.6363   -2.3655 H   0  0  0  0  0  0  0  0  0  0  0  0
  -10.9774   -0.8249   -2.0964 H   0  0  0  0  0  0  0  0  0  0  0  0
   -9.5464    1.9882    0.0917 H   0  0  0  0  0  0  0  0  0  0  0  0
  -10.0943   -0.6290    1.1043 H   0  0  0  0  0  0  0  0  0  0  0  0
   -8.4847    1.1434    2.3766 H   0  0  0  0  0  0  0  0  0  0  0  0
   -7.3225    2.5348    0.2165 H   0  0  0  0  0  0  0  0  0  0  0  0
   -6.2848   -0.0517    1.9447 H   0  0  0  0  0  0  0  0  0  0  0  0
   -7.4831   -2.0530    0.9999 H   0  0  0  0  0  0  0  0  0  0  0  0
   -4.7025   -2.3204   -1.4669 H   0  0  0  0  0  0  0  0  0  0  0  0
   -2.0545   -2.5358   -2.1201 H   0  0  0  0  0  0  0  0  0  0  0  0
   -3.8442   -3.6036    0.5923 H   0  0  0  0  0  0  0  0  0  0  0  0
   -4.2162   -0.9715    1.4947 H   0  0  0  0  0  0  0  0  0  0  0  0
   -2.3211   -2.0265    2.0826 H   0  0  0  0  0  0  0  0  0  0  0  0
   -1.2234   -3.5839   -0.0413 H   0  0  0  0  0  0  0  0  0  0  0  0
   -1.4953    1.7580    1.3439 H   0  0  0  0  0  0  0  0  0  0  0  0
   -2.6754    3.7900    0.8701 H   0  0  0  0  0  0  0  0  0  0  0  0
   -2.6403    5.9916   -0.1620 H   0  0  0  0  0  0  0  0  0  0  0  0
    0.4603    6.3833   -1.5613 H   0  0  0  0  0  0  0  0  0  0  0  0
    1.9805    3.2905   -0.7495 H   0  0  0  0  0  0  0  0  0  0  0  0
    5.0067    1.3205   -0.0447 H   0  0  0  0  0  0  0  0  0  0  0  0
    7.1054    1.3682   -0.2593 H   0  0  0  0  0  0  0  0  0  0  0  0
   10.1662   -0.7460   -1.9309 H   0  0  0  0  0  0  0  0  0  0  0  0
    8.2896   -2.3303   -2.0095 H   0  0  0  0  0  0  0  0  0  0  0  0
    8.2552   -2.4641   -0.2441 H   0  0  0  0  0  0  0  0  0  0  0  0
   10.2806   -3.2281   -2.0383 H   0  0  0  0  0  0  0  0  0  0  0  0
   11.1260   -1.3927    0.3193 H   0  0  0  0  0  0  0  0  0  0  0  0
   11.9742    0.6111    0.5505 H   0  0  0  0  0  0  0  0  0  0  0  0
   10.2875    0.0594    2.2981 H   0  0  0  0  0  0  0  0  0  0  0  0
    9.6293   -2.0538    2.2083 H   0  0  0  0  0  0  0  0  0  0  0  0
    7.9429    0.9878    2.0598 H   0  0  0  0  0  0  0  0  0  0  0  0
    9.3724    2.2883    0.0337 H   0  0  0  0  0  0  0  0  0  0  0  0
    5.8436   -2.7817    0.9861 H   0  0  0  0  0  0  0  0  0  0  0  0
    3.9748   -4.1566    1.6066 H   0  0  0  0  0  0  0  0  0  0  0  0
  1  2  2  0  0  0  0
  2  3  1  0  0  0  0
  3  4  1  0  0  0  0
  3 27  2  0  0  0  0
  5  4  1  0  0  0  0
  5  6  1  0  0  0  0
  5 56  1  6  0  0  0
  6  7  1  0  0  0  0
  7  8  1  0  0  0  0
  7 21  1  0  0  0  0
  7 57  1  6  0  0  0
  8  9  1  0  0  0  0
  8 58  1  0  0  0  0
  8 59  1  0  0  0  0
 10  9  1  0  0  0  0
 10 11  1  0  0  0  0
 10 60  1  6  0  0  0
 11 12  1  0  0  0  0
 12 13  1  0  0  0  0
 12 15  1  0  0  0  0
 12 61  1  1  0  0  0
 13 14  1  0  0  0  0
 13 62  1  0  0  0  0
 13 63  1  0  0  0  0
 14 64  1  0  0  0  0
 15 16  1  0  0  0  0
 15 17  1  0  0  0  0
 15 65  1  6  0  0  0
 16 66  1  0  0  0  0
 17 18  1  0  0  0  0
 17 19  1  0  0  0  0
 17 67  1  1  0  0  0
 18 68  1  0  0  0  0
 19 20  1  0  0  0  0
 19 10  1  0  0  0  0
 19 69  1  1  0  0  0
 20 70  1  0  0  0  0
 21 22  1  0  0  0  0
 21 23  1  0  0  0  0
 21 71  1  6  0  0  0
 22 72  1  0  0  0  0
 23 24  1  0  0  0  0
 23 25  1  0  0  0  0
 23 73  1  1  0  0  0
 24 74  1  0  0  0  0
 25 26  1  0  0  0  0
 25  5  1  0  0  0  0
 25 75  1  1  0  0  0
 26 76  1  0  0  0  0
 27 28  1  0  0  0  0
 27 36  1  0  0  0  0
 28 29  2  0  0  0  0
 29 30  1  0  0  0  0
 29 77  1  0  0  0  0
 30 31  2  0  0  0  0
 30 78  1  0  0  0  0
 31 32  1  0  0  0  0
 31 33  1  0  0  0  0
 32 79  1  0  0  0  0
 33 34  1  0  0  0  0
 33 35  2  0  0  0  0
 34 80  1  0  0  0  0
 35 28  1  0  0  0  0
 35 81  1  0  0  0  0
 36 37  1  0  0  0  0
 37 38  2  0  0  0  0
 38 39  1  0  0  0  0
 38 82  1  0  0  0  0
 39 40  1  0  0  0  0
 39 52  2  0  0  0  0
 41 40  1  0  0  0  0
 41 42  1  0  0  0  0
 41 83  1  6  0  0  0
 42 43  1  0  0  0  0
 43 44  1  0  0  0  0
 43 46  1  0  0  0  0
 43 84  1  6  0  0  0
 44 45  1  0  0  0  0
 44 85  1  0  0  0  0
 44 86  1  0  0  0  0
 45 87  1  0  0  0  0
 46 47  1  0  0  0  0
 46 48  1  0  0  0  0
 46 88  1  1  0  0  0
 47 89  1  0  0  0  0
 48 49  1  0  0  0  0
 48 50  1  0  0  0  0
 48 90  1  1  0  0  0
 49 91  1  0  0  0  0
 50 51  1  0  0  0  0
 50 41  1  0  0  0  0
 50 92  1  1  0  0  0
 51 93  1  0  0  0  0
 52 53  1  0  0  0  0
 52 94  1  0  0  0  0
 53 54  1  0  0  0  0
 53 55  2  0  0  0  0
 54 95  1  0  0  0  0
 55  2  1  0  0  0  0
 55 37  1  0  0  0  0
M  END
>  <IDENTIFIER>
CNP0222091.3

>  <Energy>
1292.25

$$$$
