
 OpenBabel09072515303D

 58 60  0  0  0  0  0  0  0  0999 V2000
    3.0825   -0.5071   -2.7003 C   0  0  0  0  0  0  0  0  0  0  0  0
    3.7411    0.2277   -1.7964 C   0  0  0  0  0  0  0  0  0  0  0  0
    3.7536   -0.0521   -0.2969 C   0  0  1  0  0  0  0  0  0  0  0  0
    5.1940   -0.4539    0.0584 C   0  0  0  0  0  0  0  0  0  0  0  0
    3.4141    1.2280    0.5008 C   0  0  0  0  0  0  0  0  0  0  0  0
    1.9579    1.6734    0.3286 C   0  0  0  0  0  0  0  0  0  0  0  0
    1.0354    0.4854   -0.0421 C   0  0  2  0  0  0  0  0  0  0  0  0
   -0.5218    0.7838    0.0437 C   0  0  1  0  0  0  0  0  0  0  0  0
   -0.9575    1.1570    1.4929 C   0  0  0  0  0  0  0  0  0  0  0  0
   -0.8570    2.0063   -0.9027 C   0  0  0  0  0  0  0  0  0  0  0  0
   -2.1784    1.8854   -1.7091 C   0  0  0  0  0  0  0  0  0  0  0  0
   -3.2609    1.1620   -0.9126 C   0  0  0  0  0  0  0  0  0  0  0  0
   -2.8594   -0.3310   -0.6516 C   0  0  2  0  0  0  0  0  0  0  0  0
   -3.2796   -1.1727   -1.8986 C   0  0  0  0  0  0  0  0  0  0  0  0
   -3.6531   -0.8408    0.5610 C   0  0  0  0  0  0  0  0  0  0  0  0
   -4.4304   -1.7808    0.4392 O   0  0  0  0  0  0  0  0  0  0  0  0
   -3.5194   -0.2436    1.7704 O   0  0  0  0  0  0  0  0  0  0  0  0
   -4.2378   -0.6028    2.8910 C   0  0  0  0  0  0  0  0  0  0  0  0
   -1.2798   -0.4790   -0.5022 C   0  0  2  0  0  0  0  0  0  0  0  0
   -0.8342   -1.7908    0.1917 C   0  0  0  0  0  0  0  0  0  0  0  0
    0.6754   -2.0167   -0.0140 C   0  0  0  0  0  0  0  0  0  0  0  0
    1.5710   -0.8770    0.5411 C   0  0  2  0  0  0  0  0  0  0  0  0
    1.5904   -0.9885    2.0889 C   0  0  0  0  0  0  0  0  0  0  0  0
    2.9056   -1.1587    0.0649 O   0  0  0  0  0  0  0  0  0  0  0  0
    3.1362   -0.2444   -3.7516 H   0  0  0  0  0  0  0  0  0  0  0  0
    2.4984   -1.3721   -2.4195 H   0  0  0  0  0  0  0  0  0  0  0  0
    4.3286    1.0659   -2.1608 H   0  0  0  0  0  0  0  0  0  0  0  0
    5.9109    0.3583   -0.1948 H   0  0  0  0  0  0  0  0  0  0  0  0
    5.4865   -1.3677   -0.5031 H   0  0  0  0  0  0  0  0  0  0  0  0
    5.2810   -0.6769    1.1436 H   0  0  0  0  0  0  0  0  0  0  0  0
    4.0998    2.0785    0.2914 H   0  0  0  0  0  0  0  0  0  0  0  0
    3.5814    0.9833    1.5668 H   0  0  0  0  0  0  0  0  0  0  0  0
    1.8865    2.4194   -0.4911 H   0  0  0  0  0  0  0  0  0  0  0  0
    1.6837    2.1894    1.2688 H   0  0  0  0  0  0  0  0  0  0  0  0
    1.1991    0.3377   -1.1277 H   0  0  0  0  0  0  0  0  0  0  0  0
   -0.3617    1.9957    1.8965 H   0  0  0  0  0  0  0  0  0  0  0  0
   -0.9056    0.3257    2.2028 H   0  0  0  0  0  0  0  0  0  0  0  0
   -1.9866    1.5297    1.5449 H   0  0  0  0  0  0  0  0  0  0  0  0
   -0.0843    2.1564   -1.6873 H   0  0  0  0  0  0  0  0  0  0  0  0
   -0.8489    2.9399   -0.2983 H   0  0  0  0  0  0  0  0  0  0  0  0
   -1.9985    1.2994   -2.6348 H   0  0  0  0  0  0  0  0  0  0  0  0
   -2.5003    2.8997   -2.0286 H   0  0  0  0  0  0  0  0  0  0  0  0
   -4.2455    1.2061   -1.4277 H   0  0  0  0  0  0  0  0  0  0  0  0
   -3.4024    1.7395    0.0190 H   0  0  0  0  0  0  0  0  0  0  0  0
   -4.3739   -1.0930   -2.0789 H   0  0  0  0  0  0  0  0  0  0  0  0
   -3.0379   -2.2474   -1.7625 H   0  0  0  0  0  0  0  0  0  0  0  0
   -2.7710   -0.8307   -2.8233 H   0  0  0  0  0  0  0  0  0  0  0  0
   -3.9385    0.0466    3.7387 H   0  0  0  0  0  0  0  0  0  0  0  0
   -4.0304   -1.6612    3.1566 H   0  0  0  0  0  0  0  0  0  0  0  0
   -5.3254   -0.4685    2.7051 H   0  0  0  0  0  0  0  0  0  0  0  0
   -0.8976   -0.5537   -1.5474 H   0  0  0  0  0  0  0  0  0  0  0  0
   -1.3562   -2.6550   -0.2683 H   0  0  0  0  0  0  0  0  0  0  0  0
   -1.1021   -1.7839    1.2664 H   0  0  0  0  0  0  0  0  0  0  0  0
    0.8340   -2.1024   -1.1089 H   0  0  0  0  0  0  0  0  0  0  0  0
    0.9779   -2.9922    0.4259 H   0  0  0  0  0  0  0  0  0  0  0  0
    2.0713   -1.9479    2.3767 H   0  0  0  0  0  0  0  0  0  0  0  0
    0.5973   -1.0196    2.5511 H   0  0  0  0  0  0  0  0  0  0  0  0
    2.1545   -0.1808    2.5820 H   0  0  0  0  0  0  0  0  0  0  0  0
  1  2  2  0  0  0  0
  1 25  1  0  0  0  0
  1 26  1  0  0  0  0
  2 27  1  0  0  0  0
  3  2  1  6  0  0  0
  3  4  1  0  0  0  0
  3  5  1  0  0  0  0
  4 28  1  0  0  0  0
  4 29  1  0  0  0  0
  4 30  1  0  0  0  0
  5  6  1  0  0  0  0
  5 31  1  0  0  0  0
  5 32  1  0  0  0  0
  6 33  1  0  0  0  0
  6 34  1  0  0  0  0
  7  6  1  0  0  0  0
  7  8  1  0  0  0  0
  7 35  1  6  0  0  0
  8  9  1  1  0  0  0
  8 10  1  0  0  0  0
  9 36  1  0  0  0  0
  9 37  1  0  0  0  0
  9 38  1  0  0  0  0
 10 11  1  0  0  0  0
 10 39  1  0  0  0  0
 10 40  1  0  0  0  0
 11 12  1  0  0  0  0
 11 41  1  0  0  0  0
 11 42  1  0  0  0  0
 12 13  1  0  0  0  0
 12 43  1  0  0  0  0
 12 44  1  0  0  0  0
 13 14  1  0  0  0  0
 13 15  1  1  0  0  0
 13 19  1  0  0  0  0
 14 45  1  0  0  0  0
 14 46  1  0  0  0  0
 14 47  1  0  0  0  0
 15 16  2  0  0  0  0
 15 17  1  0  0  0  0
 17 18  1  0  0  0  0
 18 48  1  0  0  0  0
 18 49  1  0  0  0  0
 18 50  1  0  0  0  0
 19 20  1  0  0  0  0
 19  8  1  0  0  0  0
 19 51  1  6  0  0  0
 20 21  1  0  0  0  0
 20 52  1  0  0  0  0
 20 53  1  0  0  0  0
 21 22  1  0  0  0  0
 21 54  1  0  0  0  0
 21 55  1  0  0  0  0
 22 23  1  1  0  0  0
 22 24  1  0  0  0  0
 22  7  1  0  0  0  0
 23 56  1  0  0  0  0
 23 57  1  0  0  0  0
 23 58  1  0  0  0  0
 24  3  1  0  0  0  0
M  END
>  <IDENTIFIER>
CNP0424541.1

>  <Energy>
654.134

$$$$
