
 OpenBabel09122512503D

 35 36  0  0  0  0  0  0  0  0999 V2000
    5.6434   -0.8569    1.1567 O   0  0  0  0  0  0  0  0  0  0  0  0
    4.4025    0.0478    1.1197 S   0  0  0  0  0  0  0  0  0  0  0  0
    4.3680    0.7159    2.5032 O   0  0  0  0  0  0  0  0  0  0  0  0
    4.6196    1.2275   -0.1117 O   0  0  0  0  0  0  0  0  0  0  0  0
    3.0145   -0.9625    0.9176 O   0  0  0  0  0  0  0  0  0  0  0  0
    1.8662   -0.1493    0.9774 C   0  0  0  0  0  0  0  0  0  0  0  0
    0.6815   -0.8843    0.3213 C   0  0  2  0  0  0  0  0  0  0  0  0
    0.9722   -1.1932   -1.1512 C   0  0  0  0  0  0  0  0  0  0  0  0
   -0.1766   -2.0231   -1.7092 C   0  0  0  0  0  0  0  0  0  0  0  0
   -1.4726   -1.2281   -1.6125 C   0  0  0  0  0  0  0  0  0  0  0  0
   -1.7958   -0.8372   -0.2162 N   0  0  2  0  0  0  0  0  0  0  0  0
   -3.0870   -0.0790   -0.2402 C   0  0  0  0  0  0  0  0  0  0  0  0
   -3.1382    1.0078    0.8275 C   0  0  0  0  0  0  0  0  0  0  0  0
   -1.9998    2.0244    0.6040 C   0  0  0  0  0  0  0  0  0  0  0  0
   -0.6885    1.3653    0.1111 C   0  0  0  0  0  0  0  0  0  0  0  0
   -0.6745   -0.1296    0.4953 C   0  0  2  0  0  0  0  0  0  0  0  0
    5.4783    1.6700    0.1054 H   0  0  0  0  0  0  0  0  0  0  0  0
    2.0244    0.8056    0.4298 H   0  0  0  0  0  0  0  0  0  0  0  0
    1.6258    0.0578    2.0434 H   0  0  0  0  0  0  0  0  0  0  0  0
    0.5715   -1.8620    0.8459 H   0  0  0  0  0  0  0  0  0  0  0  0
    1.9089   -1.7846   -1.2429 H   0  0  0  0  0  0  0  0  0  0  0  0
    1.0932   -0.2534   -1.7335 H   0  0  0  0  0  0  0  0  0  0  0  0
   -0.2748   -2.9732   -1.1386 H   0  0  0  0  0  0  0  0  0  0  0  0
    0.0263   -2.2742   -2.7726 H   0  0  0  0  0  0  0  0  0  0  0  0
   -2.2942   -1.8559   -2.0233 H   0  0  0  0  0  0  0  0  0  0  0  0
   -1.3757   -0.3289   -2.2607 H   0  0  0  0  0  0  0  0  0  0  0  0
   -3.9244   -0.7938   -0.0924 H   0  0  0  0  0  0  0  0  0  0  0  0
   -3.2537    0.4353   -1.2156 H   0  0  0  0  0  0  0  0  0  0  0  0
   -3.0052    0.4994    1.8074 H   0  0  0  0  0  0  0  0  0  0  0  0
   -4.1170    1.5325    0.8601 H   0  0  0  0  0  0  0  0  0  0  0  0
   -1.8461    2.5299    1.5826 H   0  0  0  0  0  0  0  0  0  0  0  0
   -2.2785    2.8044   -0.1371 H   0  0  0  0  0  0  0  0  0  0  0  0
    0.1539    1.9603    0.5162 H   0  0  0  0  0  0  0  0  0  0  0  0
   -0.6307    1.4212   -0.9955 H   0  0  0  0  0  0  0  0  0  0  0  0
   -0.8559   -0.1635    1.5934 H   0  0  0  0  0  0  0  0  0  0  0  0
  1  2  2  0  0  0  0
  2  3  2  0  0  0  0
  2  4  1  0  0  0  0
  2  5  1  0  0  0  0
  4 17  1  0  0  0  0
  5  6  1  0  0  0  0
  6 18  1  0  0  0  0
  6 19  1  0  0  0  0
  7  6  1  0  0  0  0
  7  8  1  0  0  0  0
  7 20  1  1  0  0  0
  8  9  1  0  0  0  0
  8 21  1  0  0  0  0
  8 22  1  0  0  0  0
  9 10  1  0  0  0  0
  9 23  1  0  0  0  0
  9 24  1  0  0  0  0
 10 25  1  0  0  0  0
 10 26  1  0  0  0  0
 11 10  1  6  0  0  0
 11 12  1  0  0  0  0
 12 13  1  0  0  0  0
 12 27  1  0  0  0  0
 12 28  1  0  0  0  0
 13 14  1  0  0  0  0
 13 29  1  0  0  0  0
 13 30  1  0  0  0  0
 14 15  1  0  0  0  0
 14 31  1  0  0  0  0
 14 32  1  0  0  0  0
 15 33  1  0  0  0  0
 15 34  1  0  0  0  0
 16 15  1  0  0  0  0
 16  7  1  0  0  0  0
 16 11  1  0  0  0  0
 16 35  1  1  0  0  0
M  END
>  <IDENTIFIER>
CNP0365067.1

>  <Energy>
771.159

$$$$
