
 OpenBabel09062519093D

 43 47  0  0  0  0  0  0  0  0999 V2000
    1.4224   -3.3088    1.6430 O   0  0  0  0  0  0  0  0  0  0  0  0
    1.5670   -2.7147    0.5839 C   0  0  0  0  0  0  0  0  0  0  0  0
    2.6936   -2.8929   -0.1633 N   0  0  0  0  0  0  0  0  0  0  0  0
    2.8532   -2.1069   -1.3808 C   0  0  1  0  0  0  0  0  0  0  0  0
    1.9679   -2.5660   -2.3690 O   0  0  0  0  0  0  0  0  0  0  0  0
    2.4876   -0.6842   -1.0213 C   0  0  0  0  0  0  0  0  0  0  0  0
    3.3231    0.3291   -1.3596 N   0  0  0  0  0  0  0  0  0  0  0  0
    3.0753    1.6050   -0.9871 C   0  0  0  0  0  0  0  0  0  0  0  0
    3.9508    2.6273   -1.3736 C   0  0  0  0  0  0  0  0  0  0  0  0
    3.7051    3.9457   -0.9816 C   0  0  0  0  0  0  0  0  0  0  0  0
    2.5875    4.2468   -0.1994 C   0  0  0  0  0  0  0  0  0  0  0  0
    1.7103    3.2313    0.1930 C   0  0  0  0  0  0  0  0  0  0  0  0
    1.9463    1.8983   -0.2012 C   0  0  0  0  0  0  0  0  0  0  0  0
    1.0922    0.8422    0.1712 C   0  0  0  0  0  0  0  0  0  0  0  0
    0.1335    1.0900    0.8797 O   0  0  0  0  0  0  0  0  0  0  0  0
    1.3552   -0.4574   -0.2579 N   0  0  0  0  0  0  0  0  0  0  0  0
    0.5614   -1.6891    0.0813 C   0  0  2  0  0  0  0  0  0  0  0  0
   -0.6603   -1.5352    1.0222 C   0  0  0  0  0  0  0  0  0  0  0  0
   -1.8228   -0.7843    0.4129 C   0  0  0  0  0  0  0  0  0  0  0  0
   -1.9208   -0.2076   -0.8565 C   0  0  0  0  0  0  0  0  0  0  0  0
   -3.1317    0.3729   -1.0129 N   0  0  0  0  0  0  0  0  0  0  0  0
   -3.8009    0.1684    0.1346 C   0  0  0  0  0  0  0  0  0  0  0  0
   -5.0946    0.5828    0.4459 C   0  0  0  0  0  0  0  0  0  0  0  0
   -5.6009    0.2541    1.7167 C   0  0  0  0  0  0  0  0  0  0  0  0
   -4.8114   -0.4723    2.6360 C   0  0  0  0  0  0  0  0  0  0  0  0
   -3.5080   -0.8759    2.2933 C   0  0  0  0  0  0  0  0  0  0  0  0
   -3.0337   -0.5356    1.0265 C   0  0  0  0  0  0  0  0  0  0  0  0
    3.4519   -3.5097    0.1645 H   0  0  0  0  0  0  0  0  0  0  0  0
    3.8895   -2.1765   -1.7817 H   0  0  0  0  0  0  0  0  0  0  0  0
    2.1700   -3.5280   -2.5076 H   0  0  0  0  0  0  0  0  0  0  0  0
    4.8217    2.4019   -1.9768 H   0  0  0  0  0  0  0  0  0  0  0  0
    4.3824    4.7345   -1.2821 H   0  0  0  0  0  0  0  0  0  0  0  0
    2.4007    5.2689    0.1042 H   0  0  0  0  0  0  0  0  0  0  0  0
    0.8515    3.4908    0.8000 H   0  0  0  0  0  0  0  0  0  0  0  0
    0.1546   -2.1121   -0.8617 H   0  0  0  0  0  0  0  0  0  0  0  0
   -0.3458   -1.0737    1.9824 H   0  0  0  0  0  0  0  0  0  0  0  0
   -1.0507   -2.5510    1.2511 H   0  0  0  0  0  0  0  0  0  0  0  0
   -1.1556   -0.2069   -1.6214 H   0  0  0  0  0  0  0  0  0  0  0  0
   -3.4751    0.8781   -1.8600 H   0  0  0  0  0  0  0  0  0  0  0  0
   -5.6912    1.1385   -0.2658 H   0  0  0  0  0  0  0  0  0  0  0  0
   -6.6021    0.5596    1.9913 H   0  0  0  0  0  0  0  0  0  0  0  0
   -5.2116   -0.7202    3.6104 H   0  0  0  0  0  0  0  0  0  0  0  0
   -2.8968   -1.4326    2.9919 H   0  0  0  0  0  0  0  0  0  0  0  0
  1  2  2  0  0  0  0
  2  3  1  0  0  0  0
  3  4  1  0  0  0  0
  3 28  1  0  0  0  0
  4  5  1  0  0  0  0
  4  6  1  0  0  0  0
  4 29  1  6  0  0  0
  5 30  1  0  0  0  0
  6  7  2  0  0  0  0
  7  8  1  0  0  0  0
  8  9  2  0  0  0  0
  9 10  1  0  0  0  0
  9 31  1  0  0  0  0
 10 11  2  0  0  0  0
 10 32  1  0  0  0  0
 11 12  1  0  0  0  0
 11 33  1  0  0  0  0
 12 13  2  0  0  0  0
 12 34  1  0  0  0  0
 13 14  1  0  0  0  0
 13  8  1  0  0  0  0
 14 15  2  0  0  0  0
 14 16  1  0  0  0  0
 16 17  1  0  0  0  0
 16  6  1  0  0  0  0
 17 18  1  0  0  0  0
 17  2  1  0  0  0  0
 17 35  1  6  0  0  0
 18 19  1  0  0  0  0
 18 36  1  0  0  0  0
 18 37  1  0  0  0  0
 19 20  2  0  0  0  0
 20 21  1  0  0  0  0
 20 38  1  0  0  0  0
 21 22  1  0  0  0  0
 21 39  1  0  0  0  0
 22 23  2  0  0  0  0
 23 24  1  0  0  0  0
 23 40  1  0  0  0  0
 24 25  2  0  0  0  0
 24 41  1  0  0  0  0
 25 26  1  0  0  0  0
 25 42  1  0  0  0  0
 26 27  2  0  0  0  0
 26 43  1  0  0  0  0
 27 19  1  0  0  0  0
 27 22  1  0  0  0  0
M  END
>  <IDENTIFIER>
CNP0147321.1

>  <Energy>
484.111

$$$$
