
 OpenBabel09102523023D

 64 65  0  0  0  0  0  0  0  0999 V2000
    5.4350   -3.4592   -2.1514 C   0  0  0  0  0  0  0  0  0  0  0  0
    4.9684   -2.1222   -1.5976 C   0  0  0  0  0  0  0  0  0  0  0  0
    5.7159   -1.8094   -0.4473 O   0  0  0  0  0  0  0  0  0  0  0  0
    5.0132   -0.3799    0.2754 P   0  0  0  0  0  0  0  0  0  0  0  0
    6.1715    0.1772    1.1515 O   0  0  0  0  0  0  0  0  0  0  0  0
    3.7454   -0.9216    1.3702 O   0  0  0  0  0  0  0  0  0  0  0  0
    4.0670   -0.5508    2.6890 C   0  0  0  0  0  0  0  0  0  0  0  0
    2.9175   -0.9180    3.6149 C   0  0  0  0  0  0  0  0  0  0  0  0
    4.5390    0.9155   -0.9501 C   0  0  0  0  0  0  0  0  0  0  0  0
    5.5420    1.4647   -1.7603 C   0  0  0  0  0  0  0  0  0  0  0  0
    5.2290    2.4354   -2.7109 C   0  0  0  0  0  0  0  0  0  0  0  0
    3.9096    2.8612   -2.8653 C   0  0  0  0  0  0  0  0  0  0  0  0
    2.8991    2.3159   -2.0691 C   0  0  0  0  0  0  0  0  0  0  0  0
    3.2019    1.3364   -1.0991 C   0  0  0  0  0  0  0  0  0  0  0  0
    2.2425    0.7759   -0.3157 O   0  0  0  0  0  0  0  0  0  0  0  0
    0.8777    0.9604   -0.4458 C   0  0  0  0  0  0  0  0  0  0  0  0
    0.1594    0.1554    0.6409 C   0  0  0  0  0  0  0  0  0  0  0  0
   -1.2170    0.2196    0.5106 O   0  0  0  0  0  0  0  0  0  0  0  0
   -2.0340    1.2843    0.7412 C   0  0  0  0  0  0  0  0  0  0  0  0
   -1.5547    2.5137    1.2413 C   0  0  0  0  0  0  0  0  0  0  0  0
   -2.4337    3.5749    1.4707 C   0  0  0  0  0  0  0  0  0  0  0  0
   -3.7969    3.4243    1.2157 C   0  0  0  0  0  0  0  0  0  0  0  0
   -4.2874    2.2103    0.7325 C   0  0  0  0  0  0  0  0  0  0  0  0
   -3.4141    1.1411    0.4912 C   0  0  0  0  0  0  0  0  0  0  0  0
   -4.0865   -0.4575   -0.1329 P   0  0  0  0  0  0  0  0  0  0  0  0
   -3.4434   -0.8171   -1.5011 O   0  0  0  0  0  0  0  0  0  0  0  0
   -3.6228   -1.8001    0.8944 O   0  0  0  0  0  0  0  0  0  0  0  0
   -4.7647   -2.5527    1.2125 C   0  0  0  0  0  0  0  0  0  0  0  0
   -4.3581   -3.7068    2.1155 C   0  0  0  0  0  0  0  0  0  0  0  0
   -5.8265   -0.5022   -0.3791 O   0  0  0  0  0  0  0  0  0  0  0  0
   -6.1408    0.1121   -1.6039 C   0  0  0  0  0  0  0  0  0  0  0  0
   -7.6519    0.2576   -1.7036 C   0  0  0  0  0  0  0  0  0  0  0  0
    4.8611   -3.7037   -3.0705 H   0  0  0  0  0  0  0  0  0  0  0  0
    5.2717   -4.2607   -1.4005 H   0  0  0  0  0  0  0  0  0  0  0  0
    6.5152   -3.4102   -2.4054 H   0  0  0  0  0  0  0  0  0  0  0  0
    3.8830   -2.2142   -1.3622 H   0  0  0  0  0  0  0  0  0  0  0  0
    5.1350   -1.3553   -2.3856 H   0  0  0  0  0  0  0  0  0  0  0  0
    4.2185    0.5495    2.7668 H   0  0  0  0  0  0  0  0  0  0  0  0
    4.9698   -1.1036    3.0340 H   0  0  0  0  0  0  0  0  0  0  0  0
    1.9986   -0.3734    3.3158 H   0  0  0  0  0  0  0  0  0  0  0  0
    3.1746   -0.6374    4.6586 H   0  0  0  0  0  0  0  0  0  0  0  0
    2.7259   -2.0108    3.5727 H   0  0  0  0  0  0  0  0  0  0  0  0
    6.5686    1.1380   -1.6523 H   0  0  0  0  0  0  0  0  0  0  0  0
    6.0099    2.8564   -3.3317 H   0  0  0  0  0  0  0  0  0  0  0  0
    3.6684    3.6124   -3.6062 H   0  0  0  0  0  0  0  0  0  0  0  0
    1.8861    2.6640   -2.2184 H   0  0  0  0  0  0  0  0  0  0  0  0
    0.5506    0.5962   -1.4434 H   0  0  0  0  0  0  0  0  0  0  0  0
    0.6340    2.0366   -0.3559 H   0  0  0  0  0  0  0  0  0  0  0  0
    0.4659    0.4872    1.6556 H   0  0  0  0  0  0  0  0  0  0  0  0
    0.4597   -0.9080    0.5264 H   0  0  0  0  0  0  0  0  0  0  0  0
   -0.5088    2.6628    1.4650 H   0  0  0  0  0  0  0  0  0  0  0  0
   -2.0572    4.5152    1.8524 H   0  0  0  0  0  0  0  0  0  0  0  0
   -4.4753    4.2477    1.3982 H   0  0  0  0  0  0  0  0  0  0  0  0
   -5.3484    2.1056    0.5485 H   0  0  0  0  0  0  0  0  0  0  0  0
   -5.2170   -2.9835    0.2907 H   0  0  0  0  0  0  0  0  0  0  0  0
   -5.5031   -1.9317    1.7679 H   0  0  0  0  0  0  0  0  0  0  0  0
   -3.6184   -4.3533    1.5969 H   0  0  0  0  0  0  0  0  0  0  0  0
   -5.2505   -4.3152    2.3736 H   0  0  0  0  0  0  0  0  0  0  0  0
   -3.9055   -3.3152    3.0514 H   0  0  0  0  0  0  0  0  0  0  0  0
   -5.8004   -0.5211   -2.4523 H   0  0  0  0  0  0  0  0  0  0  0  0
   -5.6969    1.1304   -1.6727 H   0  0  0  0  0  0  0  0  0  0  0  0
   -8.1347   -0.7418   -1.6485 H   0  0  0  0  0  0  0  0  0  0  0  0
   -7.9236    0.7351   -2.6684 H   0  0  0  0  0  0  0  0  0  0  0  0
   -8.0297    0.8879   -0.8702 H   0  0  0  0  0  0  0  0  0  0  0  0
  1  2  1  0  0  0  0
  1 33  1  0  0  0  0
  1 34  1  0  0  0  0
  1 35  1  0  0  0  0
  2  3  1  0  0  0  0
  2 36  1  0  0  0  0
  2 37  1  0  0  0  0
  3  4  1  0  0  0  0
  4  5  2  0  0  0  0
  4  6  1  0  0  0  0
  4  9  1  0  0  0  0
  6  7  1  0  0  0  0
  7  8  1  0  0  0  0
  7 38  1  0  0  0  0
  7 39  1  0  0  0  0
  8 40  1  0  0  0  0
  8 41  1  0  0  0  0
  8 42  1  0  0  0  0
  9 10  2  0  0  0  0
 10 11  1  0  0  0  0
 10 43  1  0  0  0  0
 11 12  2  0  0  0  0
 11 44  1  0  0  0  0
 12 13  1  0  0  0  0
 12 45  1  0  0  0  0
 13 14  2  0  0  0  0
 13 46  1  0  0  0  0
 14 15  1  0  0  0  0
 14  9  1  0  0  0  0
 15 16  1  0  0  0  0
 16 17  1  0  0  0  0
 16 47  1  0  0  0  0
 16 48  1  0  0  0  0
 17 18  1  0  0  0  0
 17 49  1  0  0  0  0
 17 50  1  0  0  0  0
 18 19  1  0  0  0  0
 19 20  2  0  0  0  0
 20 21  1  0  0  0  0
 20 51  1  0  0  0  0
 21 22  2  0  0  0  0
 21 52  1  0  0  0  0
 22 23  1  0  0  0  0
 22 53  1  0  0  0  0
 23 24  2  0  0  0  0
 23 54  1  0  0  0  0
 24 25  1  0  0  0  0
 24 19  1  0  0  0  0
 25 26  2  0  0  0  0
 25 27  1  0  0  0  0
 25 30  1  0  0  0  0
 27 28  1  0  0  0  0
 28 29  1  0  0  0  0
 28 55  1  0  0  0  0
 28 56  1  0  0  0  0
 29 57  1  0  0  0  0
 29 58  1  0  0  0  0
 29 59  1  0  0  0  0
 30 31  1  0  0  0  0
 31 32  1  0  0  0  0
 31 60  1  0  0  0  0
 31 61  1  0  0  0  0
 32 62  1  0  0  0  0
 32 63  1  0  0  0  0
 32 64  1  0  0  0  0
M  END
>  <IDENTIFIER>
CNP0458246.0

>  <Energy>
813.655

$$$$
