
 OpenBabel09092501283D

 68 72  0  0  0  0  0  0  0  0999 V2000
    2.2121    4.8066    0.9755 C   0  0  0  0  0  0  0  0  0  0  0  0
    1.8359    3.4176    0.8292 N   0  0  0  0  0  0  0  0  0  0  0  0
    2.3090    2.4495    1.6678 C   0  0  0  0  0  0  0  0  0  0  0  0
    3.0605    2.7607    2.5825 O   0  0  0  0  0  0  0  0  0  0  0  0
    1.8100    1.0081    1.5977 C   0  0  2  0  0  0  0  0  0  0  0  0
    2.9170   -0.0601    1.7998 C   0  0  0  0  0  0  0  0  0  0  0  0
    3.5183   -0.6230    0.5314 C   0  0  0  0  0  0  0  0  0  0  0  0
    4.5637   -1.5535    0.6338 C   0  0  0  0  0  0  0  0  0  0  0  0
    5.1054   -2.1639   -0.5157 C   0  0  0  0  0  0  0  0  0  0  0  0
    6.1160   -3.0716   -0.4481 O   0  0  0  0  0  0  0  0  0  0  0  0
    6.7672   -3.4759    0.6987 C   0  0  0  0  0  0  0  0  0  0  0  0
    4.5834   -1.8465   -1.7787 C   0  0  0  0  0  0  0  0  0  0  0  0
    5.0964   -2.4821   -2.8662 O   0  0  0  0  0  0  0  0  0  0  0  0
    4.6210   -2.3863   -4.1581 C   0  0  0  0  0  0  0  0  0  0  0  0
    3.5436   -0.9024   -1.8823 C   0  0  0  0  0  0  0  0  0  0  0  0
    3.0104   -0.2929   -0.7370 C   0  0  0  0  0  0  0  0  0  0  0  0
    1.8840    0.6895   -0.8744 C   0  0  0  0  0  0  0  0  0  0  0  0
    1.0831    0.7398    0.3544 N   0  0  0  0  0  0  0  0  0  0  0  0
   -0.2826    0.5720    0.3503 C   0  0  0  0  0  0  0  0  0  0  0  0
   -0.9002    0.6488    1.4046 O   0  0  0  0  0  0  0  0  0  0  0  0
   -1.0635    0.3496   -0.9411 C   0  0  0  0  0  0  0  0  0  0  0  0
   -2.6098    0.3825   -0.7953 C   0  0  1  0  0  0  0  0  0  0  0  0
   -3.2439   -0.8156   -0.0580 C   0  0  0  0  0  0  0  0  0  0  0  0
   -2.4452   -1.8202    0.5379 C   0  0  0  0  0  0  0  0  0  0  0  0
   -3.0165   -2.8995    1.2067 C   0  0  0  0  0  0  0  0  0  0  0  0
   -4.3967   -3.0200    1.3008 C   0  0  0  0  0  0  0  0  0  0  0  0
   -5.2288   -2.0632    0.7119 C   0  0  0  0  0  0  0  0  0  0  0  0
   -6.6224   -2.2058    0.8064 C   0  0  0  0  0  0  0  0  0  0  0  0
   -7.4684   -1.2679    0.2173 C   0  0  0  0  0  0  0  0  0  0  0  0
   -6.9346   -0.1847   -0.4756 C   0  0  0  0  0  0  0  0  0  0  0  0
   -5.5516   -0.0264   -0.5794 C   0  0  0  0  0  0  0  0  0  0  0  0
   -4.6661   -0.9554    0.0187 C   0  0  0  0  0  0  0  0  0  0  0  0
   -2.9942    1.6844   -0.2044 N   0  0  0  0  0  0  0  0  0  0  0  0
   -2.7607    2.8882   -0.7737 C   0  0  0  0  0  0  0  0  0  0  0  0
   -3.2309    3.8939    0.0411 C   0  0  0  0  0  0  0  0  0  0  0  0
   -3.7729    3.2831    1.1520 C   0  0  0  0  0  0  0  0  0  0  0  0
   -3.6137    1.9248    0.9743 C   0  0  0  0  0  0  0  0  0  0  0  0
    1.6896    5.4221    0.2124 H   0  0  0  0  0  0  0  0  0  0  0  0
    3.3079    4.9225    0.8465 H   0  0  0  0  0  0  0  0  0  0  0  0
    1.9136    5.1724    1.9822 H   0  0  0  0  0  0  0  0  0  0  0  0
    1.1506    3.1911    0.0951 H   0  0  0  0  0  0  0  0  0  0  0  0
    1.1660    0.9385    2.5021 H   0  0  0  0  0  0  0  0  0  0  0  0
    2.4503   -0.9420    2.2910 H   0  0  0  0  0  0  0  0  0  0  0  0
    3.6961    0.3194    2.4958 H   0  0  0  0  0  0  0  0  0  0  0  0
    4.9413   -1.8052    1.6164 H   0  0  0  0  0  0  0  0  0  0  0  0
    7.5433   -4.2217    0.4299 H   0  0  0  0  0  0  0  0  0  0  0  0
    6.0507   -3.9491    1.4029 H   0  0  0  0  0  0  0  0  0  0  0  0
    7.2637   -2.6076    1.1822 H   0  0  0  0  0  0  0  0  0  0  0  0
    5.2295   -3.0385   -4.8176 H   0  0  0  0  0  0  0  0  0  0  0  0
    4.6968   -1.3408   -4.5233 H   0  0  0  0  0  0  0  0  0  0  0  0
    3.5651   -2.7315   -4.2017 H   0  0  0  0  0  0  0  0  0  0  0  0
    3.1312   -0.6476   -2.8498 H   0  0  0  0  0  0  0  0  0  0  0  0
    1.2937    0.4445   -1.7766 H   0  0  0  0  0  0  0  0  0  0  0  0
    2.3478    1.6752   -1.0814 H   0  0  0  0  0  0  0  0  0  0  0  0
   -0.7484   -0.6000   -1.4260 H   0  0  0  0  0  0  0  0  0  0  0  0
   -0.7997    1.1800   -1.6292 H   0  0  0  0  0  0  0  0  0  0  0  0
   -3.0177    0.3286   -1.8291 H   0  0  0  0  0  0  0  0  0  0  0  0
   -1.3683   -1.7939    0.5007 H   0  0  0  0  0  0  0  0  0  0  0  0
   -2.3802   -3.6508    1.6572 H   0  0  0  0  0  0  0  0  0  0  0  0
   -4.8151   -3.8688    1.8286 H   0  0  0  0  0  0  0  0  0  0  0  0
   -7.0577   -3.0451    1.3357 H   0  0  0  0  0  0  0  0  0  0  0  0
   -8.5417   -1.3835    0.2943 H   0  0  0  0  0  0  0  0  0  0  0  0
   -7.5955    0.5386   -0.9357 H   0  0  0  0  0  0  0  0  0  0  0  0
   -5.1967    0.8300   -1.1325 H   0  0  0  0  0  0  0  0  0  0  0  0
   -2.2750    3.0338   -1.7294 H   0  0  0  0  0  0  0  0  0  0  0  0
   -3.1830    4.9576   -0.1523 H   0  0  0  0  0  0  0  0  0  0  0  0
   -4.2307    3.7741    1.9996 H   0  0  0  0  0  0  0  0  0  0  0  0
   -3.9281    1.1663    1.6782 H   0  0  0  0  0  0  0  0  0  0  0  0
  1  2  1  0  0  0  0
  1 38  1  0  0  0  0
  1 39  1  0  0  0  0
  1 40  1  0  0  0  0
  2  3  1  0  0  0  0
  2 41  1  0  0  0  0
  3  4  2  0  0  0  0
  5  3  1  0  0  0  0
  5  6  1  0  0  0  0
  5 42  1  1  0  0  0
  6  7  1  0  0  0  0
  6 43  1  0  0  0  0
  6 44  1  0  0  0  0
  7  8  2  0  0  0  0
  8  9  1  0  0  0  0
  8 45  1  0  0  0  0
  9 10  1  0  0  0  0
  9 12  2  0  0  0  0
 10 11  1  0  0  0  0
 11 46  1  0  0  0  0
 11 47  1  0  0  0  0
 11 48  1  0  0  0  0
 12 13  1  0  0  0  0
 12 15  1  0  0  0  0
 13 14  1  0  0  0  0
 14 49  1  0  0  0  0
 14 50  1  0  0  0  0
 14 51  1  0  0  0  0
 15 16  2  0  0  0  0
 15 52  1  0  0  0  0
 16 17  1  0  0  0  0
 16  7  1  0  0  0  0
 17 18  1  0  0  0  0
 17 53  1  0  0  0  0
 17 54  1  0  0  0  0
 18 19  1  0  0  0  0
 18  5  1  0  0  0  0
 19 20  2  0  0  0  0
 19 21  1  0  0  0  0
 21 55  1  0  0  0  0
 21 56  1  0  0  0  0
 22 21  1  0  0  0  0
 22 23  1  0  0  0  0
 22 33  1  0  0  0  0
 22 57  1  6  0  0  0
 23 24  2  0  0  0  0
 24 25  1  0  0  0  0
 24 58  1  0  0  0  0
 25 26  2  0  0  0  0
 25 59  1  0  0  0  0
 26 27  1  0  0  0  0
 26 60  1  0  0  0  0
 27 28  2  0  0  0  0
 28 29  1  0  0  0  0
 28 61  1  0  0  0  0
 29 30  2  0  0  0  0
 29 62  1  0  0  0  0
 30 31  1  0  0  0  0
 30 63  1  0  0  0  0
 31 32  2  0  0  0  0
 31 64  1  0  0  0  0
 32 23  1  0  0  0  0
 32 27  1  0  0  0  0
 33 34  1  0  0  0  0
 34 35  2  0  0  0  0
 34 65  1  0  0  0  0
 35 36  1  0  0  0  0
 35 66  1  0  0  0  0
 36 37  2  0  0  0  0
 36 67  1  0  0  0  0
 37 33  1  0  0  0  0
 37 68  1  0  0  0  0
M  END
>  <IDENTIFIER>
CNP0244030.1

>  <Energy>
592.602

$$$$
