
 OpenBabel09122523353D

 58 61  0  0  0  0  0  0  0  0999 V2000
    2.7966    1.4536   -2.9324 C   0  0  0  0  0  0  0  0  0  0  0  0
    2.5931    0.4526   -1.7934 C   0  0  2  0  0  0  0  0  0  0  0  0
    1.2423    0.6078   -1.2645 N   0  0  0  0  0  0  0  0  0  0  0  0
    0.2855   -0.3591   -1.3424 C   0  0  0  0  0  0  0  0  0  0  0  0
    0.5567   -1.4480   -1.8308 O   0  0  0  0  0  0  0  0  0  0  0  0
   -1.1521   -0.1001   -0.9174 C   0  0  2  0  0  0  0  0  0  0  0  0
   -1.3336    1.2126   -0.4095 O   0  0  0  0  0  0  0  0  0  0  0  0
   -2.7198    1.5572   -0.3094 C   0  0  2  0  0  0  0  0  0  0  0  0
   -2.9675    2.2728    0.8574 O   0  0  0  0  0  0  0  0  0  0  0  0
   -4.3539    2.0751    1.0947 C   0  0  0  0  0  0  0  0  0  0  0  0
   -5.1457    3.2792    0.5620 C   0  0  0  0  0  0  0  0  0  0  0  0
   -4.5836    1.9387    2.6067 C   0  0  0  0  0  0  0  0  0  0  0  0
   -4.8060    0.8940    0.4446 O   0  0  0  0  0  0  0  0  0  0  0  0
   -3.6791    0.3842   -0.2055 C   0  0  2  0  0  0  0  0  0  0  0  0
   -3.0504   -0.7708    0.6071 C   0  0  1  0  0  0  0  0  0  0  0  0
   -3.8061   -1.9326    0.4475 O   0  0  0  0  0  0  0  0  0  0  0  0
   -2.9957   -2.8454   -0.2683 C   0  0  0  0  0  0  0  0  0  0  0  0
   -3.0320   -4.1924    0.4552 C   0  0  0  0  0  0  0  0  0  0  0  0
   -3.5210   -3.0009   -1.7013 C   0  0  0  0  0  0  0  0  0  0  0  0
   -1.6570   -2.4033   -0.3395 O   0  0  0  0  0  0  0  0  0  0  0  0
   -1.6369   -1.1024    0.1511 C   0  0  1  0  0  0  0  0  0  0  0  0
    3.6328    0.7194   -0.7272 C   0  0  0  0  0  0  0  0  0  0  0  0
    3.5776    1.7773   -0.1210 O   0  0  0  0  0  0  0  0  0  0  0  0
    4.6197   -0.1976   -0.4769 N   0  0  0  0  0  0  0  0  0  0  0  0
    5.7272   -0.0424    0.4268 C   0  0  0  0  0  0  0  0  0  0  0  0
    6.1030    1.1940    1.0080 C   0  0  0  0  0  0  0  0  0  0  0  0
    7.1950    1.2710    1.8761 C   0  0  0  0  0  0  0  0  0  0  0  0
    7.9309    0.1292    2.1838 C   0  0  0  0  0  0  0  0  0  0  0  0
    7.5852   -1.0951    1.6108 C   0  0  0  0  0  0  0  0  0  0  0  0
    6.4986   -1.1802    0.7363 C   0  0  0  0  0  0  0  0  0  0  0  0
    2.0558    1.2689   -3.7368 H   0  0  0  0  0  0  0  0  0  0  0  0
    3.8175    1.3406   -3.3566 H   0  0  0  0  0  0  0  0  0  0  0  0
    2.6754    2.4979   -2.5668 H   0  0  0  0  0  0  0  0  0  0  0  0
    2.7452   -0.5591   -2.2241 H   0  0  0  0  0  0  0  0  0  0  0  0
    0.9965    1.5294   -0.8626 H   0  0  0  0  0  0  0  0  0  0  0  0
   -1.7443   -0.2227   -1.8525 H   0  0  0  0  0  0  0  0  0  0  0  0
   -2.9995    2.2033   -1.1722 H   0  0  0  0  0  0  0  0  0  0  0  0
   -4.8080    4.2147    1.0567 H   0  0  0  0  0  0  0  0  0  0  0  0
   -6.2309    3.1439    0.7537 H   0  0  0  0  0  0  0  0  0  0  0  0
   -4.9983    3.3881   -0.5328 H   0  0  0  0  0  0  0  0  0  0  0  0
   -4.2423    2.8576    3.1306 H   0  0  0  0  0  0  0  0  0  0  0  0
   -4.0170    1.0777    3.0145 H   0  0  0  0  0  0  0  0  0  0  0  0
   -5.6613    1.7850    2.8216 H   0  0  0  0  0  0  0  0  0  0  0  0
   -3.9226    0.0371   -1.2308 H   0  0  0  0  0  0  0  0  0  0  0  0
   -2.9970   -0.4966    1.6826 H   0  0  0  0  0  0  0  0  0  0  0  0
   -4.0725   -4.5762    0.4984 H   0  0  0  0  0  0  0  0  0  0  0  0
   -2.6537   -4.0731    1.4890 H   0  0  0  0  0  0  0  0  0  0  0  0
   -2.3967   -4.9349   -0.0739 H   0  0  0  0  0  0  0  0  0  0  0  0
   -4.5771   -3.3604   -1.6998 H   0  0  0  0  0  0  0  0  0  0  0  0
   -2.8985   -3.7282   -2.2650 H   0  0  0  0  0  0  0  0  0  0  0  0
   -3.4825   -2.0303   -2.2432 H   0  0  0  0  0  0  0  0  0  0  0  0
   -0.9635   -1.0711    1.0394 H   0  0  0  0  0  0  0  0  0  0  0  0
    4.5730   -1.0880   -0.9968 H   0  0  0  0  0  0  0  0  0  0  0  0
    5.5970    2.1201    0.8037 H   0  0  0  0  0  0  0  0  0  0  0  0
    7.4714    2.2239    2.3093 H   0  0  0  0  0  0  0  0  0  0  0  0
    8.7730    0.1949    2.8608 H   0  0  0  0  0  0  0  0  0  0  0  0
    8.1622   -1.9808    1.8472 H   0  0  0  0  0  0  0  0  0  0  0  0
    6.2520   -2.1415    0.3037 H   0  0  0  0  0  0  0  0  0  0  0  0
  1 31  1  0  0  0  0
  1 32  1  0  0  0  0
  1 33  1  0  0  0  0
  2  1  1  0  0  0  0
  2  3  1  0  0  0  0
  2 22  1  0  0  0  0
  2 34  1  6  0  0  0
  3  4  1  0  0  0  0
  3 35  1  0  0  0  0
  4  5  2  0  0  0  0
  6  4  1  0  0  0  0
  6  7  1  0  0  0  0
  6 36  1  6  0  0  0
  8  7  1  0  0  0  0
  8  9  1  0  0  0  0
  8 37  1  6  0  0  0
  9 10  1  0  0  0  0
 10 11  1  0  0  0  0
 10 12  1  0  0  0  0
 10 13  1  0  0  0  0
 11 38  1  0  0  0  0
 11 39  1  0  0  0  0
 11 40  1  0  0  0  0
 12 41  1  0  0  0  0
 12 42  1  0  0  0  0
 12 43  1  0  0  0  0
 14 13  1  0  0  0  0
 14 15  1  0  0  0  0
 14  8  1  0  0  0  0
 14 44  1  6  0  0  0
 15 16  1  0  0  0  0
 15 45  1  1  0  0  0
 16 17  1  0  0  0  0
 17 18  1  0  0  0  0
 17 19  1  0  0  0  0
 17 20  1  0  0  0  0
 18 46  1  0  0  0  0
 18 47  1  0  0  0  0
 18 48  1  0  0  0  0
 19 49  1  0  0  0  0
 19 50  1  0  0  0  0
 19 51  1  0  0  0  0
 21 20  1  0  0  0  0
 21  6  1  0  0  0  0
 21 15  1  0  0  0  0
 21 52  1  1  0  0  0
 22 23  2  0  0  0  0
 22 24  1  0  0  0  0
 24 25  1  0  0  0  0
 24 53  1  0  0  0  0
 25 26  2  0  0  0  0
 26 27  1  0  0  0  0
 26 54  1  0  0  0  0
 27 28  2  0  0  0  0
 27 55  1  0  0  0  0
 28 29  1  0  0  0  0
 28 56  1  0  0  0  0
 29 30  2  0  0  0  0
 29 57  1  0  0  0  0
 30 25  1  0  0  0  0
 30 58  1  0  0  0  0
M  END
>  <IDENTIFIER>
CNP0341611.4

>  <Energy>
507.391

$$$$
