
 OpenBabel09052500423D

 69 73  0  0  0  0  0  0  0  0999 V2000
   -5.2487    0.7058   -0.9924 C   0  0  0  0  0  0  0  0  0  0  0  0
   -3.9364    0.2303   -1.5241 C   0  0  0  0  0  0  0  0  0  0  0  0
   -3.6135    0.5125   -2.6703 O   0  0  0  0  0  0  0  0  0  0  0  0
   -3.1093   -0.4846   -0.7131 O   0  0  0  0  0  0  0  0  0  0  0  0
   -1.8517   -0.9580   -1.0605 C   0  0  2  0  0  0  0  0  0  0  0  0
   -1.8050   -2.4968   -0.8524 C   0  0  0  0  0  0  0  0  0  0  0  0
   -0.3844   -3.1726   -0.9898 C   0  0  2  0  0  0  0  0  0  0  0  0
    0.0453   -3.4293   -2.4533 C   0  0  0  0  0  0  0  0  0  0  0  0
   -0.4539   -4.4528   -0.3971 O   0  0  0  0  0  0  0  0  0  0  0  0
    0.6057   -2.3156   -0.1140 C   0  0  1  0  0  0  0  0  0  0  0  0
    2.0602   -2.8375    0.0402 C   0  0  0  0  0  0  0  0  0  0  0  0
    2.3299   -2.2914    1.4684 C   0  0  1  0  0  0  0  0  0  0  0  0
    2.4253   -0.7178    1.4758 C   0  0  0  0  0  0  0  0  0  0  0  0
    1.9137   -0.0899    0.1790 C   0  0  2  0  0  0  0  0  0  0  0  0
    1.8616    1.2999    0.2393 O   0  0  0  0  0  0  0  0  0  0  0  0
    2.6726    2.1367   -0.4759 C   0  0  0  0  0  0  0  0  0  0  0  0
    3.5118    1.6901   -1.2467 O   0  0  0  0  0  0  0  0  0  0  0  0
    2.5324    3.5965   -0.3587 C   0  0  0  0  0  0  0  0  0  0  0  0
    1.6822    4.2911    0.4736 C   0  0  0  0  0  0  0  0  0  0  0  0
    1.8474    5.5815    0.2821 O   0  0  0  0  0  0  0  0  0  0  0  0
    2.7701    5.7633   -0.6386 C   0  0  0  0  0  0  0  0  0  0  0  0
    3.2361    4.5421   -1.0737 C   0  0  0  0  0  0  0  0  0  0  0  0
    0.6549   -0.7538   -0.5268 C   0  0  1  0  0  0  0  0  0  0  0  0
    0.9619   -0.4149   -2.0368 C   0  0  0  0  0  0  0  0  0  0  0  0
   -0.7811   -0.2154   -0.1860 C   0  0  1  0  0  0  0  0  0  0  0  0
   -0.9060    1.1574   -0.3723 O   0  0  0  0  0  0  0  0  0  0  0  0
   -1.3231    2.0167    0.6061 C   0  0  0  0  0  0  0  0  0  0  0  0
   -1.4889    1.6291    1.7545 O   0  0  0  0  0  0  0  0  0  0  0  0
   -1.6341    3.4177    0.2915 C   0  0  0  0  0  0  0  0  0  0  0  0
   -1.5061    4.0536   -0.9236 C   0  0  0  0  0  0  0  0  0  0  0  0
   -1.8935    5.3058   -0.7976 O   0  0  0  0  0  0  0  0  0  0  0  0
   -2.2714    5.5152    0.4454 C   0  0  0  0  0  0  0  0  0  0  0  0
   -2.1266    4.3533    1.1753 C   0  0  0  0  0  0  0  0  0  0  0  0
    1.0274   -2.7617    2.1374 C   0  0  0  0  0  0  0  0  0  0  0  0
    1.0175   -4.2934    2.4302 C   0  0  0  0  0  0  0  0  0  0  0  0
    0.6928   -2.0974    3.4988 C   0  0  0  0  0  0  0  0  0  0  0  0
    0.0332   -2.4356    1.2067 O   0  0  0  0  0  0  0  0  0  0  0  0
   -5.7956    1.2912   -1.7629 H   0  0  0  0  0  0  0  0  0  0  0  0
   -5.0745    1.3536   -0.1081 H   0  0  0  0  0  0  0  0  0  0  0  0
   -5.8665   -0.1660   -0.6954 H   0  0  0  0  0  0  0  0  0  0  0  0
   -1.6857   -0.7650   -2.1299 H   0  0  0  0  0  0  0  0  0  0  0  0
   -2.5469   -3.0040   -1.5069 H   0  0  0  0  0  0  0  0  0  0  0  0
   -2.1532   -2.6635    0.1917 H   0  0  0  0  0  0  0  0  0  0  0  0
   -0.6637   -4.1471   -2.9184 H   0  0  0  0  0  0  0  0  0  0  0  0
    1.0529   -3.8964   -2.4730 H   0  0  0  0  0  0  0  0  0  0  0  0
    0.0422   -2.5824   -3.1340 H   0  0  0  0  0  0  0  0  0  0  0  0
   -1.2372   -4.9368   -0.7711 H   0  0  0  0  0  0  0  0  0  0  0  0
    2.7700   -2.5414   -0.7592 H   0  0  0  0  0  0  0  0  0  0  0  0
    2.0938   -3.9397    0.0343 H   0  0  0  0  0  0  0  0  0  0  0  0
    3.2164   -2.7050    1.9970 H   0  0  0  0  0  0  0  0  0  0  0  0
    3.5016   -0.4358    1.5452 H   0  0  0  0  0  0  0  0  0  0  0  0
    2.0034   -0.2297    2.3635 H   0  0  0  0  0  0  0  0  0  0  0  0
    2.7751   -0.3812   -0.4648 H   0  0  0  0  0  0  0  0  0  0  0  0
    0.9865    3.8629    1.1807 H   0  0  0  0  0  0  0  0  0  0  0  0
    3.1032    6.7303   -0.9915 H   0  0  0  0  0  0  0  0  0  0  0  0
    3.9955    4.3668   -1.8255 H   0  0  0  0  0  0  0  0  0  0  0  0
    1.0799    0.6818   -2.1615 H   0  0  0  0  0  0  0  0  0  0  0  0
    0.2088   -0.6264   -2.7908 H   0  0  0  0  0  0  0  0  0  0  0  0
    1.8963   -0.9039   -2.3867 H   0  0  0  0  0  0  0  0  0  0  0  0
   -1.0132   -0.4504    0.8722 H   0  0  0  0  0  0  0  0  0  0  0  0
   -1.1455    3.6135   -1.8439 H   0  0  0  0  0  0  0  0  0  0  0  0
   -2.6399    6.4577    0.8248 H   0  0  0  0  0  0  0  0  0  0  0  0
   -2.3585    4.2130    2.2229 H   0  0  0  0  0  0  0  0  0  0  0  0
    1.8214   -4.5468    3.1547 H   0  0  0  0  0  0  0  0  0  0  0  0
    1.1447   -4.9498    1.5542 H   0  0  0  0  0  0  0  0  0  0  0  0
    0.0435   -4.5927    2.8740 H   0  0  0  0  0  0  0  0  0  0  0  0
    1.5184   -2.2545    4.2257 H   0  0  0  0  0  0  0  0  0  0  0  0
   -0.2348   -2.5400    3.9225 H   0  0  0  0  0  0  0  0  0  0  0  0
    0.4524   -1.0213    3.4252 H   0  0  0  0  0  0  0  0  0  0  0  0
  1  2  1  0  0  0  0
  1 38  1  0  0  0  0
  1 39  1  0  0  0  0
  1 40  1  0  0  0  0
  2  3  2  0  0  0  0
  2  4  1  0  0  0  0
  5  4  1  0  0  0  0
  5  6  1  0  0  0  0
  5 41  1  6  0  0  0
  6  7  1  0  0  0  0
  6 42  1  0  0  0  0
  6 43  1  0  0  0  0
  7  8  1  0  0  0  0
  7  9  1  1  0  0  0
  7 10  1  0  0  0  0
  8 44  1  0  0  0  0
  8 45  1  0  0  0  0
  8 46  1  0  0  0  0
  9 47  1  0  0  0  0
 10 11  1  0  0  0  0
 10 37  1  1  0  0  0
 11 12  1  0  0  0  0
 11 48  1  0  0  0  0
 11 49  1  0  0  0  0
 12 13  1  0  0  0  0
 12 34  1  0  0  0  0
 12 50  1  1  0  0  0
 13 14  1  0  0  0  0
 13 51  1  0  0  0  0
 13 52  1  0  0  0  0
 14 15  1  0  0  0  0
 14 23  1  0  0  0  0
 14 53  1  6  0  0  0
 15 16  1  0  0  0  0
 16 17  2  0  0  0  0
 16 18  1  0  0  0  0
 18 19  2  0  0  0  0
 19 20  1  0  0  0  0
 19 54  1  0  0  0  0
 20 21  1  0  0  0  0
 21 22  2  0  0  0  0
 21 55  1  0  0  0  0
 22 18  1  0  0  0  0
 22 56  1  0  0  0  0
 23 24  1  6  0  0  0
 23 25  1  0  0  0  0
 23 10  1  0  0  0  0
 24 57  1  0  0  0  0
 24 58  1  0  0  0  0
 24 59  1  0  0  0  0
 25 26  1  0  0  0  0
 25  5  1  0  0  0  0
 25 60  1  1  0  0  0
 26 27  1  0  0  0  0
 27 28  2  0  0  0  0
 27 29  1  0  0  0  0
 29 30  2  0  0  0  0
 30 31  1  0  0  0  0
 30 61  1  0  0  0  0
 31 32  1  0  0  0  0
 32 33  2  0  0  0  0
 32 62  1  0  0  0  0
 33 29  1  0  0  0  0
 33 63  1  0  0  0  0
 34 35  1  0  0  0  0
 34 36  1  0  0  0  0
 34 37  1  0  0  0  0
 35 64  1  0  0  0  0
 35 65  1  0  0  0  0
 35 66  1  0  0  0  0
 36 67  1  0  0  0  0
 36 68  1  0  0  0  0
 36 69  1  0  0  0  0
M  END
>  <IDENTIFIER>
CNP0485443.1

>  <Energy>
1025.44

$$$$
