
 OpenBabel09092506443D

 49 52  0  0  0  0  0  0  0  0999 V2000
    4.3821    0.7210    3.4831 C   0  0  0  0  0  0  0  0  0  0  0  0
    3.5602    0.6192    2.2417 C   0  0  0  0  0  0  0  0  0  0  0  0
    3.7455   -0.3091    1.2900 N   0  0  0  0  0  0  0  0  0  0  0  0
    2.8377   -0.0777    0.3555 N   0  0  0  0  0  0  0  0  0  0  0  0
    2.7784   -0.8787   -0.8364 C   0  0  0  0  0  0  0  0  0  0  0  0
    2.8119   -2.2778   -0.7465 C   0  0  0  0  0  0  0  0  0  0  0  0
    2.7934   -3.0562   -1.9061 C   0  0  0  0  0  0  0  0  0  0  0  0
    2.7669   -2.4269   -3.1514 C   0  0  0  0  0  0  0  0  0  0  0  0
    2.7748   -1.0711   -3.2262 N   0  0  0  0  0  0  0  0  0  0  0  0
    2.7840   -0.2946   -2.1108 C   0  0  0  0  0  0  0  0  0  0  0  0
    2.0800    0.9775    0.7722 C   0  0  0  0  0  0  0  0  0  0  0  0
    0.7834    1.5261    0.1889 C   0  0  1  0  0  0  0  0  0  0  0  0
    0.7759    2.0524   -1.2425 C   0  0  0  0  0  0  0  0  0  0  0  0
   -0.5286    2.8418   -1.5123 C   0  0  0  0  0  0  0  0  0  0  0  0
   -1.7470    2.3172   -0.6982 C   0  0  1  0  0  0  0  0  0  0  0  0
   -2.9448    2.7068   -1.3216 O   0  0  0  0  0  0  0  0  0  0  0  0
   -1.6552    0.7917   -0.4609 C   0  0  2  0  0  0  0  0  0  0  0  0
   -2.8460    0.2981    0.2624 N   0  0  0  0  0  0  0  0  0  0  0  0
   -2.9037   -1.1778    0.3684 C   0  0  0  0  0  0  0  0  0  0  0  0
   -4.1060   -1.6105    1.2169 C   0  0  0  0  0  0  0  0  0  0  0  0
   -4.9278   -1.7210   -0.0657 C   0  0  0  0  0  0  0  0  0  0  0  0
   -3.6077   -1.8298   -0.8322 C   0  0  0  0  0  0  0  0  0  0  0  0
   -0.3561    0.4793    0.3563 C   0  0  0  0  0  0  0  0  0  0  0  0
    2.5325    1.4371    1.9571 N   0  0  0  0  0  0  0  0  0  0  0  0
    5.1633   -0.0681    3.4935 H   0  0  0  0  0  0  0  0  0  0  0  0
    3.7291    0.5953    4.3715 H   0  0  0  0  0  0  0  0  0  0  0  0
    4.8707    1.7165    3.5248 H   0  0  0  0  0  0  0  0  0  0  0  0
    2.8368   -2.7620    0.2213 H   0  0  0  0  0  0  0  0  0  0  0  0
    2.8019   -4.1361   -1.8415 H   0  0  0  0  0  0  0  0  0  0  0  0
    2.7562   -3.0145   -4.0595 H   0  0  0  0  0  0  0  0  0  0  0  0
    2.8525    0.7749   -2.2240 H   0  0  0  0  0  0  0  0  0  0  0  0
    0.5304    2.4090    0.8203 H   0  0  0  0  0  0  0  0  0  0  0  0
    0.7554    1.1724   -1.9120 H   0  0  0  0  0  0  0  0  0  0  0  0
    1.6482    2.6961   -1.4851 H   0  0  0  0  0  0  0  0  0  0  0  0
   -0.7055    2.7863   -2.6092 H   0  0  0  0  0  0  0  0  0  0  0  0
   -0.4092    3.9148   -1.2481 H   0  0  0  0  0  0  0  0  0  0  0  0
   -1.7285    2.7787    0.3145 H   0  0  0  0  0  0  0  0  0  0  0  0
   -3.0083    2.2057   -2.1769 H   0  0  0  0  0  0  0  0  0  0  0  0
   -1.5918    0.3267   -1.4718 H   0  0  0  0  0  0  0  0  0  0  0  0
   -3.7144    0.6755   -0.1797 H   0  0  0  0  0  0  0  0  0  0  0  0
   -1.9384   -1.6155    0.6985 H   0  0  0  0  0  0  0  0  0  0  0  0
   -4.4638   -0.9444    2.0311 H   0  0  0  0  0  0  0  0  0  0  0  0
   -3.9144   -2.6448    1.5886 H   0  0  0  0  0  0  0  0  0  0  0  0
   -5.4008   -0.7369   -0.2795 H   0  0  0  0  0  0  0  0  0  0  0  0
   -5.6619   -2.5505   -0.1492 H   0  0  0  0  0  0  0  0  0  0  0  0
   -3.5345   -1.3569   -1.8345 H   0  0  0  0  0  0  0  0  0  0  0  0
   -3.3185   -2.9066   -0.8604 H   0  0  0  0  0  0  0  0  0  0  0  0
   -0.0183   -0.5356    0.0523 H   0  0  0  0  0  0  0  0  0  0  0  0
   -0.5769    0.4502    1.4470 H   0  0  0  0  0  0  0  0  0  0  0  0
  1  2  1  0  0  0  0
  1 25  1  0  0  0  0
  1 26  1  0  0  0  0
  1 27  1  0  0  0  0
  2  3  2  0  0  0  0
  3  4  1  0  0  0  0
  4  5  1  0  0  0  0
  4 11  1  0  0  0  0
  5  6  2  0  0  0  0
  6  7  1  0  0  0  0
  6 28  1  0  0  0  0
  7  8  2  0  0  0  0
  7 29  1  0  0  0  0
  8  9  1  0  0  0  0
  8 30  1  0  0  0  0
  9 10  2  0  0  0  0
 10  5  1  0  0  0  0
 10 31  1  0  0  0  0
 11 24  2  0  0  0  0
 12 11  1  0  0  0  0
 12 13  1  0  0  0  0
 12 32  1  1  0  0  0
 13 14  1  0  0  0  0
 13 33  1  0  0  0  0
 13 34  1  0  0  0  0
 14 15  1  0  0  0  0
 14 35  1  0  0  0  0
 14 36  1  0  0  0  0
 15 16  1  0  0  0  0
 15 17  1  0  0  0  0
 15 37  1  1  0  0  0
 16 38  1  0  0  0  0
 17 18  1  0  0  0  0
 17 23  1  0  0  0  0
 17 39  1  6  0  0  0
 18 19  1  0  0  0  0
 18 40  1  0  0  0  0
 19 20  1  0  0  0  0
 19 41  1  0  0  0  0
 20 21  1  0  0  0  0
 20 42  1  0  0  0  0
 20 43  1  0  0  0  0
 21 22  1  0  0  0  0
 21 44  1  0  0  0  0
 21 45  1  0  0  0  0
 22 19  1  0  0  0  0
 22 46  1  0  0  0  0
 22 47  1  0  0  0  0
 23 12  1  0  0  0  0
 23 48  1  0  0  0  0
 23 49  1  0  0  0  0
 24  2  1  0  0  0  0
M  END
>  <IDENTIFIER>
CNP0496784.1

>  <Energy>
1140.91

$$$$
