
 OpenBabel09122501012D

177176  0  0  0  0  0  0  0  0999 V2000
   -6.0000  -10.3923    0.0000 C   0  0  0  0  0  0  0  0  0  0  0  0
   -5.2500   -9.0933    0.0000 C   0  0  0  0  0  0  0  0  0  0  0  0
   -4.5000   -7.7942    0.0000 C   0  0  0  0  0  0  0  0  0  0  0  0
   -3.7500   -6.4952    0.0000 C   0  0  0  0  0  0  0  0  0  0  0  0
   -3.0000   -5.1962    0.0000 C   0  0  0  0  0  0  0  0  0  0  0  0
   -2.0655   -4.6878    1.1163 C   0  0  0  0  0  0  0  0  0  0  0  0
   -1.3453   -3.4606    0.5057 C   0  0  0  0  0  0  0  0  0  0  0  0
   -0.2496   -2.8136    1.3464 C   0  0  0  0  0  0  0  0  0  0  0  0
    0.3400   -1.6395    0.5758 C   0  0  0  0  0  0  0  0  0  0  0  0
    1.0979   -1.6715   -0.5549 C   0  0  0  0  0  0  0  0  0  0  0  0
    1.6544   -2.8891   -1.2827 C   0  0  0  0  0  0  0  0  0  0  0  0
    2.7596   -3.5187   -0.4413 C   0  0  0  0  0  0  0  0  0  0  0  0
    3.4227   -4.7900   -1.0249 C   0  0  0  0  0  0  0  0  0  0  0  0
    4.5000   -5.1962    0.0000 C   0  0  0  0  0  0  0  0  0  0  0  0
    5.2500   -6.4952    0.0000 C   0  0  0  0  0  0  0  0  0  0  0  0
    6.0000   -7.7942    0.0000 C   0  0  0  0  0  0  0  0  0  0  0  0
    6.7500   -9.0933    0.0000 C   0  0  0  0  0  0  0  0  0  0  0  0
    7.5000  -10.3923    0.0000 C   0  0  0  0  0  0  0  0  0  0  0  0
    8.2500  -11.6913    0.0000 C   0  0  0  0  0  0  0  0  0  0  0  0
    7.7727  -13.2575   -0.4152 C   0  0  0  0  0  0  0  0  0  0  0  0
    6.5642  -13.4052   -0.4931 O   0  0  0  0  0  0  0  0  0  0  0  0
    8.5872  -14.4275   -0.8142 O   0  0  0  0  0  0  0  0  0  0  0  0
    9.0000  -15.5885    0.0000 C   0  0  1  0  0  0  0  0  0  0  0  0
   10.2778  -14.8004    0.7622 C   0  0  0  0  0  0  0  0  0  0  0  0
   11.6221  -14.7766    0.1774 O   0  0  0  0  0  0  0  0  0  0  0  0
   12.6141  -13.7460    0.0368 C   0  0  0  0  0  0  0  0  0  0  0  0
   12.2680  -12.5759    0.0420 O   0  0  0  0  0  0  0  0  0  0  0  0
   14.1962  -14.0885    0.0000 C   0  0  0  0  0  0  0  0  0  0  0  0
   15.4952  -13.3385    0.0000 C   0  0  0  0  0  0  0  0  0  0  0  0
   16.7942  -12.5885    0.0000 C   0  0  0  0  0  0  0  0  0  0  0  0
   18.0933  -11.8385    0.0000 C   0  0  0  0  0  0  0  0  0  0  0  0
   19.3923  -11.0885    0.0000 C   0  0  0  0  0  2  0  0  0  0  0  0
   20.6913  -10.3385    0.0000 C   0  0  0  0  0  0  0  0  0  0  0  0
   22.3386  -10.0079   -0.0113 C   0  0  0  0  0  0  0  0  0  0  0  0
   22.9412   -8.4191    0.0113 C   0  0  0  0  0  0  0  0  0  0  0  0
   24.5885   -8.0885    0.0000 C   0  0  0  0  0  0  0  0  0  0  0  0
   25.8875   -7.3385    0.0000 C   0  0  0  0  0  2  0  0  0  0  0  0
   27.1865   -6.5885    0.0000 C   0  0  0  0  0  0  0  0  0  0  0  0
   28.4856   -5.8385    0.0000 C   0  0  0  0  0  0  0  0  0  0  0  0
   29.7846   -5.0885    0.0000 C   0  0  0  0  0  2  0  0  0  0  0  0
   31.0836   -4.3385    0.0000 C   0  0  0  0  0  0  0  0  0  0  0  0
   32.8063   -4.3193    0.0103 C   0  0  0  0  0  0  0  0  0  0  0  0
   33.6817   -2.8385    0.0000 C   0  0  0  0  0  0  0  0  0  0  0  0
   34.9808   -2.0885    0.0000 C   0  0  0  0  0  0  0  0  0  0  0  0
    9.7500  -16.8875    0.0000 C   0  0  0  0  0  2  0  0  0  0  0  0
   10.5000  -18.1865    0.0000 O   0  0  0  0  0  0  0  0  0  0  0  0
    9.7500  -19.4856    0.0000 C   0  0  0  0  0  0  0  0  0  0  0  0
    8.5294  -19.4948    0.0004 O   0  0  0  0  0  0  0  0  0  0  0  0
   10.5000  -20.7846    0.0000 C   0  0  0  0  0  2  0  0  0  0  0  0
   11.2500  -22.0836    0.0000 C   0  0  0  0  0  0  0  0  0  0  0  0
   11.8328  -23.5956   -0.4488 C   0  0  0  0  0  0  0  0  0  0  0  0
   12.9634  -24.4638    0.4831 C   0  0  0  0  0  0  0  0  0  0  0  0
   13.5000  -25.9808    0.0000 C   0  0  0  0  0  0  0  0  0  0  0  0
   14.2500  -27.2798    0.0000 C   0  0  0  0  0  0  0  0  0  0  0  0
   15.0000  -28.5788    0.0000 C   0  0  0  0  0  0  0  0  0  0  0  0
   15.3151  -30.2288    0.0147 C   0  0  0  0  0  0  0  0  0  0  0  0
   16.9060  -30.8308   -0.0136 C   0  0  0  0  0  0  0  0  0  0  0  0
   17.2500  -32.4760    0.0000 C   0  0  0  0  0  0  0  0  0  0  0  0
   18.0000  -33.7750    0.0000 C   0  0  0  0  0  2  0  0  0  0  0  0
   18.7500  -35.0740    0.0000 C   0  0  0  0  0  0  0  0  0  0  0  0
   19.5000  -36.3731    0.0000 C   0  0  0  0  0  0  0  0  0  0  0  0
   20.2500  -37.6721    0.0000 C   0  0  0  0  0  2  0  0  0  0  0  0
   21.0000  -38.9711    0.0000 C   0  0  0  0  0  0  0  0  0  0  0  0
   21.3306  -40.6184   -0.0098 C   0  0  0  0  0  0  0  0  0  0  0  0
   22.9194  -41.2210    0.0098 C   0  0  0  0  0  0  0  0  0  0  0  0
   23.2500  -42.8683    0.0000 C   0  0  0  0  0  0  0  0  0  0  0  0
   24.0000  -44.1673    0.0000 C   0  0  0  0  0  2  0  0  0  0  0  0
   24.7500  -45.4663    0.0000 C   0  0  0  0  0  0  0  0  0  0  0  0
   25.5000  -46.7654    0.0000 C   0  0  0  0  0  0  0  0  0  0  0  0
   26.2500  -48.0644    0.0000 C   0  0  0  0  0  2  0  0  0  0  0  0
   27.0000  -49.3634    0.0000 C   0  0  0  0  0  0  0  0  0  0  0  0
   -6.7557  -10.1083   -0.7705 H   0  0  0  0  0  0  0  0  0  0  0  0
   -5.2338  -11.1191   -0.4000 H   0  0  0  0  0  0  0  0  0  0  0  0
   -6.5350  -11.3189    0.0000 H   0  0  0  0  0  0  0  0  0  0  0  0
   -4.4932   -9.5859    0.6876 H   0  0  0  0  0  0  0  0  0  0  0  0
   -4.8753   -9.2434   -1.0564 H   0  0  0  0  0  0  0  0  0  0  0  0
   -4.7953   -7.7320    1.1036 H   0  0  0  0  0  0  0  0  0  0  0  0
   -5.3167   -7.3095   -0.6042 H   0  0  0  0  0  0  0  0  0  0  0  0
   -4.4495   -5.9241    0.6899 H   0  0  0  0  0  0  0  0  0  0  0  0
   -2.8992   -7.0054    0.5137 H   0  0  0  0  0  0  0  0  0  0  0  0
   -3.6716   -4.3543   -0.3214 H   0  0  0  0  0  0  0  0  0  0  0  0
   -2.3402   -5.3522   -0.8854 H   0  0  0  0  0  0  0  0  0  0  0  0
   -1.3143   -5.4685    1.3645 H   0  0  0  0  0  0  0  0  0  0  0  0
   -2.6357   -4.4141    2.0291 H   0  0  0  0  0  0  0  0  0  0  0  0
   -0.8839   -3.7875   -0.4382 H   0  0  0  0  0  0  0  0  0  0  0  0
   -2.1036   -2.6826    0.2607 H   0  0  0  0  0  0  0  0  0  0  0  0
   -0.7287   -2.4275    2.2717 H   0  0  0  0  0  0  0  0  0  0  0  0
    0.5233   -3.5415    1.6515 H   0  0  0  0  0  0  0  0  0  0  0  0
    0.0942   -0.6552    0.9656 H   0  0  0  0  0  0  0  0  0  0  0  0
    1.3677   -0.7099   -0.9834 H   0  0  0  0  0  0  0  0  0  0  0  0
    0.8735   -3.6174   -1.5571 H   0  0  0  0  0  0  0  0  0  0  0  0
    2.1246   -2.5491   -2.2309 H   0  0  0  0  0  0  0  0  0  0  0  0
    3.5406   -2.7413   -0.2784 H   0  0  0  0  0  0  0  0  0  0  0  0
    2.3391   -3.7879    0.5439 H   0  0  0  0  0  0  0  0  0  0  0  0
    3.8839   -4.5942   -2.0165 H   0  0  0  0  0  0  0  0  0  0  0  0
    2.6557   -5.5883   -1.1216 H   0  0  0  0  0  0  0  0  0  0  0  0
    3.9908   -5.2213    0.9938 H   0  0  0  0  0  0  0  0  0  0  0  0
    5.2347   -4.3555    0.0901 H   0  0  0  0  0  0  0  0  0  0  0  0
    5.6647   -6.0940   -0.9798 H   0  0  0  0  0  0  0  0  0  0  0  0
    4.2860   -7.0570   -0.0979 H   0  0  0  0  0  0  0  0  0  0  0  0
    6.9673   -7.2199    0.0908 H   0  0  0  0  0  0  0  0  0  0  0  0
    5.8267   -7.9987   -1.1151 H   0  0  0  0  0  0  0  0  0  0  0  0
    7.0351   -8.9465    1.0818 H   0  0  0  0  0  0  0  0  0  0  0  0
    5.7175   -9.5910   -0.0098 H   0  0  0  0  0  0  0  0  0  0  0  0
    6.8522  -10.9436    0.7525 H   0  0  0  0  0  0  0  0  0  0  0  0
    7.2026  -10.5731   -1.0651 H   0  0  0  0  0  0  0  0  0  0  0  0
    8.7920  -11.7763    0.9711 H   0  0  0  0  0  0  0  0  0  0  0  0
    9.0775  -11.5082   -0.7254 H   0  0  0  0  0  0  0  0  0  0  0  0
    8.1852  -15.7259    0.7422 H   0  0  0  0  0  0  0  0  0  0  0  0
    9.9939  -13.7709    1.0569 H   0  0  0  0  0  0  0  0  0  0  0  0
   10.4070  -15.2960    1.7535 H   0  0  0  0  0  0  0  0  0  0  0  0
   14.2648  -14.9448   -0.7228 H   0  0  0  0  0  0  0  0  0  0  0  0
   14.2182  -14.5969    0.9958 H   0  0  0  0  0  0  0  0  0  0  0  0
   16.0898  -14.2535    0.2684 H   0  0  0  0  0  0  0  0  0  0  0  0
   15.4494  -13.3233   -1.1244 H   0  0  0  0  0  0  0  0  0  0  0  0
   16.3337  -11.6829   -0.4930 H   0  0  0  0  0  0  0  0  0  0  0  0
   16.6292  -12.3610    1.0886 H   0  0  0  0  0  0  0  0  0  0  0  0
   18.6008  -12.6162    0.6230 H   0  0  0  0  0  0  0  0  0  0  0  0
   18.2937  -12.1184   -1.0629 H   0  0  0  0  0  0  0  0  0  0  0  0
   20.4379   -9.6984   -0.8707 H   0  0  0  0  0  0  0  0  0  0  0  0
   20.4565   -9.7306    0.8985 H   0  0  0  0  0  0  0  0  0  0  0  0
   22.7743  -10.5264    0.8684 H   0  0  0  0  0  0  0  0  0  0  0  0
   22.7555  -10.4938   -0.9184 H   0  0  0  0  0  0  0  0  0  0  0  0
   22.5243   -7.9332    0.9184 H   0  0  0  0  0  0  0  0  0  0  0  0
   22.5055   -7.9006   -0.8684 H   0  0  0  0  0  0  0  0  0  0  0  0
   24.8233   -8.6964   -0.8986 H   0  0  0  0  0  0  0  0  0  0  0  0
   24.8419   -8.7287    0.8707 H   0  0  0  0  0  0  0  0  0  0  0  0
   26.8174   -6.0329    0.8960 H   0  0  0  0  0  0  0  0  0  0  0  0
   26.8174   -6.0329   -0.8960 H   0  0  0  0  0  0  0  0  0  0  0  0
   28.8547   -6.3942   -0.8960 H   0  0  0  0  0  0  0  0  0  0  0  0
   28.8547   -6.3941    0.8960 H   0  0  0  0  0  0  0  0  0  0  0  0
   30.8929   -3.6790    0.8718 H   0  0  0  0  0  0  0  0  0  0  0  0
   30.9025   -3.6954   -0.8860 H   0  0  0  0  0  0  0  0  0  0  0  0
   33.1323   -4.8826    0.9097 H   0  0  0  0  0  0  0  0  0  0  0  0
   33.1379   -4.8955   -0.8788 H   0  0  0  0  0  0  0  0  0  0  0  0
   33.1646   -2.3981   -0.8890 H   0  0  0  0  0  0  0  0  0  0  0  0
   33.2047   -2.3844    0.8983 H   0  0  0  0  0  0  0  0  0  0  0  0
   35.3428   -2.4955   -0.9701 H   0  0  0  0  0  0  0  0  0  0  0  0
   34.5724   -1.0530   -0.1020 H   0  0  0  0  0  0  0  0  0  0  0  0
   35.9075   -1.5535    0.0000 H   0  0  0  0  0  0  0  0  0  0  0  0
   10.9199  -22.3868    1.0155 H   0  0  0  0  0  0  0  0  0  0  0  0
   12.2481  -21.6163    0.1331 H   0  0  0  0  0  0  0  0  0  0  0  0
   12.2816  -23.4757   -1.4572 H   0  0  0  0  0  0  0  0  0  0  0  0
   10.9451  -24.2528   -0.5627 H   0  0  0  0  0  0  0  0  0  0  0  0
   13.8597  -23.8177    0.5946 H   0  0  0  0  0  0  0  0  0  0  0  0
   12.5188  -24.5848    1.4937 H   0  0  0  0  0  0  0  0  0  0  0  0
   12.4379  -26.3398   -0.1135 H   0  0  0  0  0  0  0  0  0  0  0  0
   13.8514  -25.6175   -0.9959 H   0  0  0  0  0  0  0  0  0  0  0  0
   13.6961  -27.6878   -0.8950 H   0  0  0  0  0  0  0  0  0  0  0  0
   13.7402  -27.5757    0.9527 H   0  0  0  0  0  0  0  0  0  0  0  0
   15.6448  -28.3726   -0.8910 H   0  0  0  0  0  0  0  0  0  0  0  0
   15.6727  -28.3510    0.8628 H   0  0  0  0  0  0  0  0  0  0  0  0
   14.8309  -30.6412    0.9248 H   0  0  0  0  0  0  0  0  0  0  0  0
   14.7917  -30.6640   -0.8624 H   0  0  0  0  0  0  0  0  0  0  0  0
   17.4274  -30.3904    0.8622 H   0  0  0  0  0  0  0  0  0  0  0  0
   17.3863  -30.4140   -0.9238 H   0  0  0  0  0  0  0  0  0  0  0  0
   16.6067  -32.7341   -0.8670 H   0  0  0  0  0  0  0  0  0  0  0  0
   16.6481  -32.7104    0.9027 H   0  0  0  0  0  0  0  0  0  0  0  0
   19.3056  -34.7049    0.8960 H   0  0  0  0  0  0  0  0  0  0  0  0
   19.3056  -34.7049   -0.8960 H   0  0  0  0  0  0  0  0  0  0  0  0
   18.9444  -36.7422    0.8960 H   0  0  0  0  0  0  0  0  0  0  0  0
   18.9444  -36.7422   -0.8960 H   0  0  0  0  0  0  0  0  0  0  0  0
   21.6380  -38.7189   -0.8726 H   0  0  0  0  0  0  0  0  0  0  0  0
   21.6101  -38.7350    0.8968 H   0  0  0  0  0  0  0  0  0  0  0  0
   20.8143  -41.0529    0.8718 H   0  0  0  0  0  0  0  0  0  0  0  0
   20.8425  -41.0366   -0.9151 H   0  0  0  0  0  0  0  0  0  0  0  0
   23.4075  -40.8028    0.9151 H   0  0  0  0  0  0  0  0  0  0  0  0
   23.4357  -40.7865   -0.8718 H   0  0  0  0  0  0  0  0  0  0  0  0
   22.6399  -43.1044   -0.8968 H   0  0  0  0  0  0  0  0  0  0  0  0
   22.6120  -43.1205    0.8726 H   0  0  0  0  0  0  0  0  0  0  0  0
   25.3059  -45.0970    0.8957 H   0  0  0  0  0  0  0  0  0  0  0  0
   25.3053  -45.0974   -0.8963 H   0  0  0  0  0  0  0  0  0  0  0  0
   24.9447  -47.1342    0.8963 H   0  0  0  0  0  0  0  0  0  0  0  0
   24.9438  -47.1347   -0.8956 H   0  0  0  0  0  0  0  0  0  0  0  0
   26.2457  -49.8911    0.6191 H   0  0  0  0  0  0  0  0  0  0  0  0
   27.8144  -48.9855    0.6517 H   0  0  0  0  0  0  0  0  0  0  0  0
   27.5350  -50.2900    0.0000 H   0  0  0  0  0  0  0  0  0  0  0  0
  1  2  1  0  0  0  0
  1 72  1  0  0  0  0
  1 73  1  0  0  0  0
  1 74  1  0  0  0  0
  2  3  1  0  0  0  0
  2 75  1  0  0  0  0
  2 76  1  0  0  0  0
  3  4  1  0  0  0  0
  3 77  1  0  0  0  0
  3 78  1  0  0  0  0
  4  5  1  0  0  0  0
  4 79  1  0  0  0  0
  4 80  1  0  0  0  0
  5  6  1  0  0  0  0
  5 81  1  0  0  0  0
  5 82  1  0  0  0  0
  6  7  1  0  0  0  0
  6 83  1  0  0  0  0
  6 84  1  0  0  0  0
  7  8  1  0  0  0  0
  7 85  1  0  0  0  0
  7 86  1  0  0  0  0
  8  9  1  0  0  0  0
  8 87  1  0  0  0  0
  8 88  1  0  0  0  0
  9 10  2  0  0  0  0
  9 89  1  0  0  0  0
 10 11  1  0  0  0  0
 10 90  1  0  0  0  0
 11 12  1  0  0  0  0
 11 91  1  0  0  0  0
 11 92  1  0  0  0  0
 12 13  1  0  0  0  0
 12 93  1  0  0  0  0
 12 94  1  0  0  0  0
 13 14  1  0  0  0  0
 13 95  1  0  0  0  0
 13 96  1  0  0  0  0
 14 15  1  0  0  0  0
 14 97  1  0  0  0  0
 14 98  1  0  0  0  0
 15 16  1  0  0  0  0
 15 99  1  0  0  0  0
 15100  1  0  0  0  0
 16 17  1  0  0  0  0
 16101  1  0  0  0  0
 16102  1  0  0  0  0
 17 18  1  0  0  0  0
 17103  1  0  0  0  0
 17104  1  0  0  0  0
 18 19  1  0  0  0  0
 18105  1  0  0  0  0
 18106  1  0  0  0  0
 19 20  1  0  0  0  0
 19107  1  0  0  0  0
 19108  1  0  0  0  0
 20 21  2  0  0  0  0
 20 22  1  0  0  0  0
 22 23  1  0  0  0  0
 23 24  1  0  0  0  0
 23 45  1  0  0  0  0
 23109  1  6  0  0  0
 24 25  1  0  0  0  0
 24110  1  0  0  0  0
 24111  1  0  0  0  0
 25 26  1  0  0  0  0
 26 27  2  0  0  0  0
 26 28  1  0  0  0  0
 28 29  1  0  0  0  0
 28112  1  0  0  0  0
 28113  1  0  0  0  0
 29 30  1  0  0  0  0
 29114  1  0  0  0  0
 29115  1  0  0  0  0
 30 31  1  0  0  0  0
 30116  1  0  0  0  0
 30117  1  0  0  0  0
 31 32  1  0  0  0  0
 31118  1  0  0  0  0
 31119  1  0  0  0  0
 32 33  1  0  0  0  0
 33 34  1  0  0  0  0
 33120  1  0  0  0  0
 33121  1  0  0  0  0
 34 35  1  0  0  0  0
 34122  1  0  0  0  0
 34123  1  0  0  0  0
 35 36  1  0  0  0  0
 35124  1  0  0  0  0
 35125  1  0  0  0  0
 36 37  1  0  0  0  0
 36126  1  0  0  0  0
 36127  1  0  0  0  0
 37 38  1  0  0  0  0
 38 39  1  0  0  0  0
 38128  1  0  0  0  0
 38129  1  0  0  0  0
 39 40  1  0  0  0  0
 39130  1  0  0  0  0
 39131  1  0  0  0  0
 40 41  1  0  0  0  0
 41 42  1  0  0  0  0
 41132  1  0  0  0  0
 41133  1  0  0  0  0
 42 43  1  0  0  0  0
 42134  1  0  0  0  0
 42135  1  0  0  0  0
 43 44  1  0  0  0  0
 43136  1  0  0  0  0
 43137  1  0  0  0  0
 44138  1  0  0  0  0
 44139  1  0  0  0  0
 44140  1  0  0  0  0
 45 46  1  0  0  0  0
 46 47  1  0  0  0  0
 47 48  2  0  0  0  0
 47 49  1  0  0  0  0
 49 50  1  0  0  0  0
 50 51  1  0  0  0  0
 50141  1  0  0  0  0
 50142  1  0  0  0  0
 51 52  1  0  0  0  0
 51143  1  0  0  0  0
 51144  1  0  0  0  0
 52 53  1  0  0  0  0
 52145  1  0  0  0  0
 52146  1  0  0  0  0
 53 54  1  0  0  0  0
 53147  1  0  0  0  0
 53148  1  0  0  0  0
 54 55  1  0  0  0  0
 54149  1  0  0  0  0
 54150  1  0  0  0  0
 55 56  1  0  0  0  0
 55151  1  0  0  0  0
 55152  1  0  0  0  0
 56 57  1  0  0  0  0
 56153  1  0  0  0  0
 56154  1  0  0  0  0
 57 58  1  0  0  0  0
 57155  1  0  0  0  0
 57156  1  0  0  0  0
 58 59  1  0  0  0  0
 58157  1  0  0  0  0
 58158  1  0  0  0  0
 59 60  1  0  0  0  0
 60 61  1  0  0  0  0
 60159  1  0  0  0  0
 60160  1  0  0  0  0
 61 62  1  0  0  0  0
 61161  1  0  0  0  0
 61162  1  0  0  0  0
 62 63  1  0  0  0  0
 63 64  1  0  0  0  0
 63163  1  0  0  0  0
 63164  1  0  0  0  0
 64 65  1  0  0  0  0
 64165  1  0  0  0  0
 64166  1  0  0  0  0
 65 66  1  0  0  0  0
 65167  1  0  0  0  0
 65168  1  0  0  0  0
 66 67  1  0  0  0  0
 66169  1  0  0  0  0
 66170  1  0  0  0  0
 67 68  1  0  0  0  0
 68 69  1  0  0  0  0
 68171  1  0  0  0  0
 68172  1  0  0  0  0
 69 70  1  0  0  0  0
 69173  1  0  0  0  0
 69174  1  0  0  0  0
 70 71  1  0  0  0  0
 71175  1  0  0  0  0
 71176  1  0  0  0  0
 71177  1  0  0  0  0
M  END
>  <IDENTIFIER>
CNP0554593.1

>  <Energy>
14555.6

$$$$
