
 OpenBabel09112521283D

167181  0  0  0  0  0  0  0  0999 V2000
    9.3547    0.9224   -3.5665 C   0  0  0  0  0  0  0  0  0  0  0  0
    8.2775    1.4769   -2.7531 N   0  0  0  0  0  0  0  0  0  0  0  0
    7.9851    0.7267   -1.4994 C   0  0  1  0  0  0  0  0  0  0  0  0
    8.9761    1.0245   -0.3155 C   0  0  0  0  0  0  0  0  0  0  0  0
    9.2591   -0.2773    0.4794 C   0  0  0  0  0  0  0  0  0  0  0  0
    8.3437   -0.8513    1.4147 C   0  0  0  0  0  0  0  0  0  0  0  0
    7.1299   -0.2589    1.8428 C   0  0  0  0  0  0  0  0  0  0  0  0
    6.0946    0.1243    2.2919 C   0  0  0  0  0  0  0  0  0  0  0  0
    4.8505    0.4870    2.9044 C   0  0  0  0  0  0  0  0  0  0  0  0
    4.0710    1.5970    2.2017 C   0  0  0  0  0  0  0  0  0  0  0  0
    3.2431    1.4253    0.8285 C   0  0  2  0  0  0  0  0  0  0  0  0
    2.0959    2.4717    1.0971 C   0  0  0  0  0  0  0  0  0  0  0  0
    0.8975    2.2727    0.2507 C   0  0  0  0  0  0  0  0  0  0  0  0
    0.3366    0.8338    0.4264 C   0  0  1  0  0  0  0  0  0  0  0  0
    1.3123   -0.2371    1.1117 C   0  0  1  0  0  0  0  0  0  0  0  0
    1.4728    0.0501    2.4940 O   0  0  0  0  0  0  0  0  0  0  0  0
    0.7273   -1.6795    0.9323 C   0  0  0  0  0  0  0  0  0  0  0  0
   -0.5210   -1.7373    0.0500 C   0  0  1  0  0  0  0  0  0  0  0  0
   -0.9270   -3.2171   -0.0525 C   0  0  0  0  0  0  0  0  0  0  0  0
   -2.3874   -3.6282   -0.3414 C   0  0  1  0  0  0  0  0  0  0  0  0
   -3.2137   -2.9157   -1.4490 C   0  0  0  0  0  0  0  0  0  0  0  0
   -2.6688   -1.5886   -1.9079 C   0  0  0  0  0  0  0  0  0  0  0  0
   -2.4832   -0.4499   -0.8799 C   0  0  1  0  0  0  0  0  0  0  0  0
   -3.7733    0.3358   -0.5651 C   0  0  1  0  0  0  0  0  0  0  0  0
   -4.7040   -0.4663    0.1446 O   0  0  0  0  0  0  0  0  0  0  0  0
   -5.8460    0.3085    0.4637 C   0  0  1  0  0  0  0  0  0  0  0  0
   -7.0125   -0.5928    0.8606 C   0  0  0  0  0  0  0  0  0  0  0  0
   -7.2063   -1.7827   -0.0348 C   0  0  0  0  0  0  0  0  0  0  0  0
   -7.7205   -1.6757   -1.3323 C   0  0  0  0  0  0  0  0  0  0  0  0
   -7.9616   -2.8377   -2.0786 C   0  0  0  0  0  0  0  0  0  0  0  0
   -7.6909   -4.1034   -1.5344 C   0  0  0  0  0  0  0  0  0  0  0  0
   -7.1437   -4.2147   -0.2478 C   0  0  0  0  0  0  0  0  0  0  0  0
   -6.8974   -3.0459    0.4830 C   0  0  0  0  0  0  0  0  0  0  0  0
   -6.8176   -5.5496    0.3975 C   0  0  0  0  0  0  0  0  0  0  0  0
   -5.9221   -6.5084   -0.4436 C   0  0  2  0  0  0  0  0  0  0  0  0
   -5.1932   -7.5257    0.5001 C   0  0  0  0  0  0  0  0  0  0  0  0
   -3.7011   -7.2444    0.3161 C   0  0  0  0  0  0  0  0  0  0  0  0
   -3.7201   -5.7693   -0.0537 C   0  0  2  0  0  0  0  0  0  0  0  0
   -4.7786   -5.7728   -1.1315 C   0  0  0  0  0  0  0  0  0  0  0  0
   -2.3678   -5.1858   -0.4480 C   0  0  1  0  0  0  0  0  0  0  0  0
   -1.7999   -5.6981   -1.8036 C   0  0  0  0  0  0  0  0  0  0  0  0
   -5.4910    1.1598    1.6827 C   0  0  0  0  0  0  0  0  0  0  0  0
   -4.2037    1.9707    1.5045 C   0  0  2  0  0  0  0  0  0  0  0  0
   -4.4464    3.4961    1.5579 C   0  0  0  0  0  0  0  0  0  0  0  0
   -4.2683    4.0535    0.1377 C   0  0  1  0  0  0  0  0  0  0  0  0
   -3.1756    5.1495    0.0521 C   0  0  0  0  0  0  0  0  0  0  0  0
   -3.6039    6.4390    0.7724 C   0  0  0  0  0  0  0  0  0  0  0  0
   -4.9044    6.9756    0.2214 C   0  0  0  0  0  0  0  0  0  0  0  0
   -5.0284    7.2727   -1.1480 C   0  0  0  0  0  0  0  0  0  0  0  0
   -6.2383    7.7423   -1.6613 C   0  0  0  0  0  0  0  0  0  0  0  0
   -7.3317    7.9315   -0.8136 C   0  0  0  0  0  0  0  0  0  0  0  0
   -7.2192    7.6411    0.5489 C   0  0  0  0  0  0  0  0  0  0  0  0
   -6.0129    7.1592    1.0662 C   0  0  0  0  0  0  0  0  0  0  0  0
   -3.9952    2.8432   -0.7354 C   0  0  0  0  0  0  0  0  0  0  0  0
   -3.4584    1.7100    0.1650 C   0  0  2  0  0  0  0  0  0  0  0  0
   -1.9518    1.9174    0.3481 C   0  0  0  0  0  0  0  0  0  0  0  0
   -1.1263    0.7166    0.9510 C   0  0  2  0  0  0  0  0  0  0  0  0
   -1.1372    0.8607    2.4741 C   0  0  0  0  0  0  0  0  0  0  0  0
   -0.7233    1.8812    3.0038 O   0  0  0  0  0  0  0  0  0  0  0  0
   -1.6699   -0.7141    0.4412 C   0  0  2  0  0  0  0  0  0  0  0  0
   -2.5378   -1.2526    1.4144 O   0  0  0  0  0  0  0  0  0  0  0  0
    2.7509   -0.0714    0.5237 C   0  0  2  0  0  0  0  0  0  0  0  0
    3.6708   -0.9705    1.1008 O   0  0  0  0  0  0  0  0  0  0  0  0
    2.8936   -0.2977   -1.0151 C   0  0  0  0  0  0  0  0  0  0  0  0
    4.0568    0.6026   -1.4293 C   0  0  2  0  0  0  0  0  0  0  0  0
    5.4883    0.0008   -1.3535 C   0  0  0  0  0  0  0  0  0  0  0  0
    6.5591    1.0895   -1.0358 C   0  0  2  0  0  0  0  0  0  0  0  0
    6.1182    2.5066   -1.4559 C   0  0  2  0  0  0  0  0  0  0  0  0
    7.0247    3.5100   -1.1658 O   0  0  0  0  0  0  0  0  0  0  0  0
    6.4498    4.3869   -0.3260 C   0  0  0  0  0  0  0  0  0  0  0  0
    7.0084    5.3851    0.0952 O   0  0  0  0  0  0  0  0  0  0  0  0
    5.1240    3.9585    0.0404 C   0  0  0  0  0  0  0  0  0  0  0  0
    4.9494    2.8213   -0.6114 C   0  0  0  0  0  0  0  0  0  0  0  0
    3.8275    1.8554   -0.5662 C   0  0  2  0  0  0  0  0  0  0  0  0
    8.5927   -2.0907    2.0101 C   0  0  0  0  0  0  0  0  0  0  0  0
    9.7333   -2.8015    1.7029 C   0  0  0  0  0  0  0  0  0  0  0  0
   10.6608   -2.2649    0.8258 C   0  0  0  0  0  0  0  0  0  0  0  0
   10.4566   -1.0104    0.2277 C   0  0  0  0  0  0  0  0  0  0  0  0
   11.5517   -0.4965   -0.6698 C   0  0  0  0  0  0  0  0  0  0  0  0
   12.3718    0.4210    0.0104 O   0  0  0  0  0  0  0  0  0  0  0  0
    9.3762    1.4586   -4.5411 H   0  0  0  0  0  0  0  0  0  0  0  0
    9.1764   -0.1553   -3.7778 H   0  0  0  0  0  0  0  0  0  0  0  0
   10.3334    1.1081   -3.1048 H   0  0  0  0  0  0  0  0  0  0  0  0
    7.4479    1.3892   -3.3852 H   0  0  0  0  0  0  0  0  0  0  0  0
    8.0518   -0.3640   -1.7170 H   0  0  0  0  0  0  0  0  0  0  0  0
    8.6599    1.8698    0.3407 H   0  0  0  0  0  0  0  0  0  0  0  0
    9.8976    1.4202   -0.7607 H   0  0  0  0  0  0  0  0  0  0  0  0
    5.1338    0.8065    3.9296 H   0  0  0  0  0  0  0  0  0  0  0  0
    4.2942   -0.4130    3.2545 H   0  0  0  0  0  0  0  0  0  0  0  0
    4.6493    2.5373    2.1996 H   0  0  0  0  0  0  0  0  0  0  0  0
    3.3406    1.7235    3.0292 H   0  0  0  0  0  0  0  0  0  0  0  0
    2.4681    3.5092    0.9970 H   0  0  0  0  0  0  0  0  0  0  0  0
    1.6635    2.4120    2.1157 H   0  0  0  0  0  0  0  0  0  0  0  0
    1.0732    2.4724   -0.8258 H   0  0  0  0  0  0  0  0  0  0  0  0
    0.2173    3.0915    0.5154 H   0  0  0  0  0  0  0  0  0  0  0  0
    0.2242    0.5785   -0.6415 H   0  0  0  0  0  0  0  0  0  0  0  0
    0.9448   -0.5414    3.0847 H   0  0  0  0  0  0  0  0  0  0  0  0
    0.4786   -2.1378    1.9119 H   0  0  0  0  0  0  0  0  0  0  0  0
    1.4553   -2.3712    0.4651 H   0  0  0  0  0  0  0  0  0  0  0  0
   -0.1484   -1.4507   -0.9534 H   0  0  0  0  0  0  0  0  0  0  0  0
   -0.7620   -3.6676    0.9574 H   0  0  0  0  0  0  0  0  0  0  0  0
   -0.1880   -3.7007   -0.7166 H   0  0  0  0  0  0  0  0  0  0  0  0
   -2.9118   -3.3526    0.5939 H   0  0  0  0  0  0  0  0  0  0  0  0
   -4.2693   -2.8023   -1.1203 H   0  0  0  0  0  0  0  0  0  0  0  0
   -3.2276   -3.5062   -2.3792 H   0  0  0  0  0  0  0  0  0  0  0  0
   -3.2965   -1.2107   -2.7462 H   0  0  0  0  0  0  0  0  0  0  0  0
   -1.6910   -1.8180   -2.3830 H   0  0  0  0  0  0  0  0  0  0  0  0
   -1.8688    0.2151   -1.5236 H   0  0  0  0  0  0  0  0  0  0  0  0
   -4.2029    0.5331   -1.5749 H   0  0  0  0  0  0  0  0  0  0  0  0
   -6.1879    0.9052   -0.4084 H   0  0  0  0  0  0  0  0  0  0  0  0
   -7.9502    0.0020    0.9322 H   0  0  0  0  0  0  0  0  0  0  0  0
   -6.8184   -0.9793    1.8836 H   0  0  0  0  0  0  0  0  0  0  0  0
   -7.9604   -0.7051   -1.7500 H   0  0  0  0  0  0  0  0  0  0  0  0
   -8.3760   -2.7585   -3.0744 H   0  0  0  0  0  0  0  0  0  0  0  0
   -7.8915   -4.9914   -2.1167 H   0  0  0  0  0  0  0  0  0  0  0  0
   -6.4758   -3.1163    1.4799 H   0  0  0  0  0  0  0  0  0  0  0  0
   -7.7535   -6.0880    0.6436 H   0  0  0  0  0  0  0  0  0  0  0  0
   -6.3201   -5.3191    1.3656 H   0  0  0  0  0  0  0  0  0  0  0  0
   -6.5382   -6.9781   -1.2387 H   0  0  0  0  0  0  0  0  0  0  0  0
   -5.4575   -8.5941    0.3798 H   0  0  0  0  0  0  0  0  0  0  0  0
   -5.3973   -7.2603    1.5625 H   0  0  0  0  0  0  0  0  0  0  0  0
   -3.3153   -7.8337   -0.5440 H   0  0  0  0  0  0  0  0  0  0  0  0
   -3.0815   -7.4816    1.2102 H   0  0  0  0  0  0  0  0  0  0  0  0
   -4.0701   -5.2109    0.8464 H   0  0  0  0  0  0  0  0  0  0  0  0
   -4.4173   -6.4070   -1.9754 H   0  0  0  0  0  0  0  0  0  0  0  0
   -5.0601   -4.8119   -1.5877 H   0  0  0  0  0  0  0  0  0  0  0  0
   -1.6873   -5.5529    0.3528 H   0  0  0  0  0  0  0  0  0  0  0  0
   -2.4455   -5.4413   -2.6657 H   0  0  0  0  0  0  0  0  0  0  0  0
   -1.6869   -6.7968   -1.7972 H   0  0  0  0  0  0  0  0  0  0  0  0
   -0.8027   -5.2708   -2.0247 H   0  0  0  0  0  0  0  0  0  0  0  0
   -5.2485    0.4224    2.4891 H   0  0  0  0  0  0  0  0  0  0  0  0
   -6.3362    1.7537    2.0874 H   0  0  0  0  0  0  0  0  0  0  0  0
   -3.5927    1.7058    2.3970 H   0  0  0  0  0  0  0  0  0  0  0  0
   -3.6433    3.9174    2.1997 H   0  0  0  0  0  0  0  0  0  0  0  0
   -5.4032    3.8052    2.0309 H   0  0  0  0  0  0  0  0  0  0  0  0
   -5.2119    4.4887   -0.2565 H   0  0  0  0  0  0  0  0  0  0  0  0
   -2.9856    5.3828   -1.0158 H   0  0  0  0  0  0  0  0  0  0  0  0
   -2.2070    4.8248    0.4733 H   0  0  0  0  0  0  0  0  0  0  0  0
   -2.8089    7.2016    0.6393 H   0  0  0  0  0  0  0  0  0  0  0  0
   -3.6980    6.2401    1.8626 H   0  0  0  0  0  0  0  0  0  0  0  0
   -4.1949    7.1291   -1.8228 H   0  0  0  0  0  0  0  0  0  0  0  0
   -6.3262    7.9579   -2.7180 H   0  0  0  0  0  0  0  0  0  0  0  0
   -8.2662    8.3011   -1.2137 H   0  0  0  0  0  0  0  0  0  0  0  0
   -8.0683    7.7865    1.2038 H   0  0  0  0  0  0  0  0  0  0  0  0
   -5.9456    6.9298    2.1227 H   0  0  0  0  0  0  0  0  0  0  0  0
   -3.4093    3.0462   -1.6621 H   0  0  0  0  0  0  0  0  0  0  0  0
   -4.9942    2.5413   -1.1024 H   0  0  0  0  0  0  0  0  0  0  0  0
   -1.7722    2.8329    0.9304 H   0  0  0  0  0  0  0  0  0  0  0  0
   -1.5602    2.1152   -0.6734 H   0  0  0  0  0  0  0  0  0  0  0  0
   -1.4832    0.0727    3.1282 H   0  0  0  0  0  0  0  0  0  0  0  0
   -2.0000   -1.7632    2.0733 H   0  0  0  0  0  0  0  0  0  0  0  0
    3.3322   -1.8969    1.1103 H   0  0  0  0  0  0  0  0  0  0  0  0
    2.0201    0.0969   -1.5540 H   0  0  0  0  0  0  0  0  0  0  0  0
    2.9970   -1.3643   -1.3289 H   0  0  0  0  0  0  0  0  0  0  0  0
    3.9628    0.8905   -2.5051 H   0  0  0  0  0  0  0  0  0  0  0  0
    5.6802   -0.4667   -2.3491 H   0  0  0  0  0  0  0  0  0  0  0  0
    5.5910   -0.8138   -0.6073 H   0  0  0  0  0  0  0  0  0  0  0  0
    6.5495    1.1533    0.0475 H   0  0  0  0  0  0  0  0  0  0  0  0
    5.8337    2.5452   -2.5312 H   0  0  0  0  0  0  0  0  0  0  0  0
    4.4559    4.4342    0.7410 H   0  0  0  0  0  0  0  0  0  0  0  0
    3.0494    2.3613   -1.1517 H   0  0  0  0  0  0  0  0  0  0  0  0
    7.8816   -2.5200    2.7116 H   0  0  0  0  0  0  0  0  0  0  0  0
    9.9007   -3.7667    2.1579 H   0  0  0  0  0  0  0  0  0  0  0  0
   11.5560   -2.8315    0.6185 H   0  0  0  0  0  0  0  0  0  0  0  0
   11.1615   -0.0812   -1.6033 H   0  0  0  0  0  0  0  0  0  0  0  0
   12.1929   -1.3339   -1.0028 H   0  0  0  0  0  0  0  0  0  0  0  0
   11.7963    1.0940    0.4583 H   0  0  0  0  0  0  0  0  0  0  0  0
  1  2  1  0  0  0  0
  1 81  1  0  0  0  0
  1 82  1  0  0  0  0
  1 83  1  0  0  0  0
  2 84  1  0  0  0  0
  3  2  1  0  0  0  0
  3  4  1  0  0  0  0
  3 85  1  6  0  0  0
  4  5  1  0  0  0  0
  4 86  1  0  0  0  0
  4 87  1  0  0  0  0
  5  6  2  0  0  0  0
  6  7  1  0  0  0  0
  6 75  1  0  0  0  0
  7  8  3  0  0  0  0
  8  9  1  0  0  0  0
  9 10  1  0  0  0  0
  9 88  1  0  0  0  0
  9 89  1  0  0  0  0
 10 90  1  0  0  0  0
 10 91  1  0  0  0  0
 11 10  1  1  0  0  0
 11 12  1  0  0  0  0
 12 13  1  0  0  0  0
 12 92  1  0  0  0  0
 12 93  1  0  0  0  0
 13 94  1  0  0  0  0
 13 95  1  0  0  0  0
 14 13  1  0  0  0  0
 14 15  1  0  0  0  0
 14 96  1  6  0  0  0
 15 16  1  1  0  0  0
 15 17  1  0  0  0  0
 15 62  1  0  0  0  0
 16 97  1  0  0  0  0
 17 98  1  0  0  0  0
 17 99  1  0  0  0  0
 18 17  1  0  0  0  0
 18 19  1  0  0  0  0
 18100  1  6  0  0  0
 19101  1  0  0  0  0
 19102  1  0  0  0  0
 20 19  1  0  0  0  0
 20 21  1  0  0  0  0
 20103  1  1  0  0  0
 21 22  1  0  0  0  0
 21104  1  0  0  0  0
 21105  1  0  0  0  0
 22106  1  0  0  0  0
 22107  1  0  0  0  0
 23 22  1  0  0  0  0
 23 24  1  0  0  0  0
 23108  1  6  0  0  0
 24 25  1  0  0  0  0
 24109  1  6  0  0  0
 25 26  1  0  0  0  0
 26 27  1  0  0  0  0
 26 42  1  0  0  0  0
 26110  1  6  0  0  0
 27 28  1  0  0  0  0
 27111  1  0  0  0  0
 27112  1  0  0  0  0
 28 29  2  0  0  0  0
 29 30  1  0  0  0  0
 29113  1  0  0  0  0
 30 31  2  0  0  0  0
 30114  1  0  0  0  0
 31 32  1  0  0  0  0
 31115  1  0  0  0  0
 32 33  2  0  0  0  0
 32 34  1  0  0  0  0
 33 28  1  0  0  0  0
 33116  1  0  0  0  0
 34117  1  0  0  0  0
 34118  1  0  0  0  0
 35 34  1  0  0  0  0
 35 36  1  0  0  0  0
 35119  1  6  0  0  0
 36 37  1  0  0  0  0
 36120  1  0  0  0  0
 36121  1  0  0  0  0
 37122  1  0  0  0  0
 37123  1  0  0  0  0
 38 37  1  0  0  0  0
 38 39  1  0  0  0  0
 38 40  1  0  0  0  0
 38124  1  1  0  0  0
 39 35  1  0  0  0  0
 39125  1  0  0  0  0
 39126  1  0  0  0  0
 40 41  1  0  0  0  0
 40 20  1  0  0  0  0
 40127  1  1  0  0  0
 41128  1  0  0  0  0
 41129  1  0  0  0  0
 41130  1  0  0  0  0
 42131  1  0  0  0  0
 42132  1  0  0  0  0
 43 42  1  0  0  0  0
 43 44  1  0  0  0  0
 43133  1  1  0  0  0
 44 45  1  0  0  0  0
 44134  1  0  0  0  0
 44135  1  0  0  0  0
 45 46  1  0  0  0  0
 45 54  1  0  0  0  0
 45136  1  6  0  0  0
 46 47  1  0  0  0  0
 46137  1  0  0  0  0
 46138  1  0  0  0  0
 47 48  1  0  0  0  0
 47139  1  0  0  0  0
 47140  1  0  0  0  0
 48 49  2  0  0  0  0
 49 50  1  0  0  0  0
 49141  1  0  0  0  0
 50 51  2  0  0  0  0
 50142  1  0  0  0  0
 51 52  1  0  0  0  0
 51143  1  0  0  0  0
 52 53  2  0  0  0  0
 52144  1  0  0  0  0
 53 48  1  0  0  0  0
 53145  1  0  0  0  0
 54146  1  0  0  0  0
 54147  1  0  0  0  0
 55 54  1  6  0  0  0
 55 56  1  0  0  0  0
 55 43  1  0  0  0  0
 55 24  1  0  0  0  0
 56 57  1  0  0  0  0
 56148  1  0  0  0  0
 56149  1  0  0  0  0
 57 58  1  1  0  0  0
 57 60  1  0  0  0  0
 57 14  1  0  0  0  0
 58 59  2  0  0  0  0
 58150  1  0  0  0  0
 60 61  1  1  0  0  0
 60 18  1  0  0  0  0
 60 23  1  0  0  0  0
 61151  1  0  0  0  0
 62 63  1  1  0  0  0
 62 64  1  0  0  0  0
 62 11  1  0  0  0  0
 63152  1  0  0  0  0
 64153  1  0  0  0  0
 64154  1  0  0  0  0
 65 64  1  0  0  0  0
 65 66  1  0  0  0  0
 65155  1  6  0  0  0
 66156  1  0  0  0  0
 66157  1  0  0  0  0
 67 66  1  0  0  0  0
 67 68  1  0  0  0  0
 67  3  1  0  0  0  0
 67158  1  1  0  0  0
 68 69  1  0  0  0  0
 68159  1  6  0  0  0
 69 70  1  0  0  0  0
 70 71  2  0  0  0  0
 70 72  1  0  0  0  0
 72 73  2  0  0  0  0
 72160  1  0  0  0  0
 73 68  1  0  0  0  0
 74 73  1  0  0  0  0
 74 65  1  0  0  0  0
 74 11  1  0  0  0  0
 74161  1  6  0  0  0
 75 76  2  0  0  0  0
 75162  1  0  0  0  0
 76 77  1  0  0  0  0
 76163  1  0  0  0  0
 77 78  2  0  0  0  0
 77164  1  0  0  0  0
 78 79  1  0  0  0  0
 78  5  1  0  0  0  0
 79 80  1  0  0  0  0
 79165  1  0  0  0  0
 79166  1  0  0  0  0
 80167  1  0  0  0  0
M  END
>  <IDENTIFIER>
CNP0100647.1

>  <Energy>
3465.07

$$$$
