
 OpenBabel09072516403D

 76 80  0  0  0  0  0  0  0  0999 V2000
    6.4601   -0.2599   -2.9348 C   0  0  0  0  0  0  0  0  0  0  0  0
    5.6533   -0.4916   -1.6411 C   0  0  0  0  0  0  0  0  0  0  0  0
    6.4639   -1.4647   -0.7596 C   0  0  0  0  0  0  0  0  0  0  0  0
    5.3258    0.8529   -0.8990 C   0  0  1  0  0  0  0  0  0  0  0  0
    4.5377    1.8238   -1.8055 C   0  0  0  0  0  0  0  0  0  0  0  0
    4.6045    0.5889    0.4247 C   0  0  0  0  0  0  0  0  0  0  0  0
    3.3959    1.0685    0.7841 C   0  0  0  0  0  0  0  0  0  0  0  0
    2.7868    0.7333    2.1283 C   0  0  1  0  0  0  0  0  0  0  0  0
    2.6964    2.0058    2.9865 C   0  0  0  0  0  0  0  0  0  0  0  0
    1.4754   -0.1057    1.9612 C   0  0  1  0  0  0  0  0  0  0  0  0
    0.9351   -0.7155    3.2892 C   0  0  0  0  0  0  0  0  0  0  0  0
   -0.5814   -0.9526    3.0832 C   0  0  0  0  0  0  0  0  0  0  0  0
   -0.8011   -0.8296    1.5714 C   0  0  1  0  0  0  0  0  0  0  0  0
   -0.4341   -2.2141    0.9173 C   0  0  0  0  0  0  0  0  0  0  0  0
   -2.2523   -0.4197    1.1422 C   0  0  2  0  0  0  0  0  0  0  0  0
   -3.2999   -1.5292    1.3172 C   0  0  0  0  0  0  0  0  0  0  0  0
   -4.6957   -0.9426    1.1237 C   0  0  0  0  0  0  0  0  0  0  0  0
   -4.9154   -0.2814   -0.2606 C   0  0  2  0  0  0  0  0  0  0  0  0
   -5.8248   -1.0512   -1.2488 C   0  0  0  0  0  0  0  0  0  0  0  0
   -6.2339   -0.2696   -2.5162 C   0  0  2  0  0  0  0  0  0  0  0  0
   -6.8287   -1.1392   -3.4452 O   0  0  0  0  0  0  0  0  0  0  0  0
   -5.0832    0.5378   -3.1568 C   0  0  0  0  0  0  0  0  0  0  0  0
   -3.7062    0.1874   -2.5780 C   0  0  0  0  0  0  0  0  0  0  0  0
   -3.6553    0.2247   -1.0114 C   0  0  1  0  0  0  0  0  0  0  0  0
   -4.5841    1.2376   -0.3423 C   0  0  0  0  0  0  0  0  0  0  0  0
   -2.2909    0.0949   -0.3059 C   0  0  0  0  0  0  0  0  0  0  0  0
   -1.1352    0.4350   -0.9601 C   0  0  0  0  0  0  0  0  0  0  0  0
    0.2554    0.4194   -0.3369 C   0  0  0  0  0  0  0  0  0  0  0  0
    0.1806    0.3384    1.2059 C   0  0  2  0  0  0  0  0  0  0  0  0
   -0.2876    1.7425    1.7218 C   0  0  0  0  0  0  0  0  0  0  0  0
    6.6926   -1.2315   -3.4217 H   0  0  0  0  0  0  0  0  0  0  0  0
    7.4166    0.2602   -2.7108 H   0  0  0  0  0  0  0  0  0  0  0  0
    5.8890    0.3274   -3.6792 H   0  0  0  0  0  0  0  0  0  0  0  0
    4.7012   -0.9976   -1.9159 H   0  0  0  0  0  0  0  0  0  0  0  0
    7.4187   -0.9977   -0.4351 H   0  0  0  0  0  0  0  0  0  0  0  0
    6.6970   -2.3926   -1.3248 H   0  0  0  0  0  0  0  0  0  0  0  0
    5.8923   -1.7878    0.1320 H   0  0  0  0  0  0  0  0  0  0  0  0
    6.2854    1.3525   -0.6414 H   0  0  0  0  0  0  0  0  0  0  0  0
    3.5756    1.3678   -2.1256 H   0  0  0  0  0  0  0  0  0  0  0  0
    5.1165    2.1077   -2.7055 H   0  0  0  0  0  0  0  0  0  0  0  0
    4.3361    2.7738   -1.2669 H   0  0  0  0  0  0  0  0  0  0  0  0
    5.1265   -0.0289    1.1467 H   0  0  0  0  0  0  0  0  0  0  0  0
    2.8319    1.7125    0.1260 H   0  0  0  0  0  0  0  0  0  0  0  0
    3.4866    0.0641    2.6819 H   0  0  0  0  0  0  0  0  0  0  0  0
    2.1057    2.8104    2.5229 H   0  0  0  0  0  0  0  0  0  0  0  0
    3.7183    2.4197    3.1264 H   0  0  0  0  0  0  0  0  0  0  0  0
    2.2905    1.7892    3.9940 H   0  0  0  0  0  0  0  0  0  0  0  0
    1.8367   -0.9717    1.3728 H   0  0  0  0  0  0  0  0  0  0  0  0
    1.0459   -0.0574    4.1755 H   0  0  0  0  0  0  0  0  0  0  0  0
    1.4889   -1.6588    3.4885 H   0  0  0  0  0  0  0  0  0  0  0  0
   -1.1050   -0.0963    3.5594 H   0  0  0  0  0  0  0  0  0  0  0  0
   -0.9897   -1.8574    3.5818 H   0  0  0  0  0  0  0  0  0  0  0  0
   -1.1081   -3.0097    1.2938 H   0  0  0  0  0  0  0  0  0  0  0  0
    0.5734   -2.5934    1.1643 H   0  0  0  0  0  0  0  0  0  0  0  0
   -0.5353   -2.1928   -0.1865 H   0  0  0  0  0  0  0  0  0  0  0  0
   -2.5869    0.4071    1.8028 H   0  0  0  0  0  0  0  0  0  0  0  0
   -3.2446   -1.9468    2.3457 H   0  0  0  0  0  0  0  0  0  0  0  0
   -3.1414   -2.3498    0.5841 H   0  0  0  0  0  0  0  0  0  0  0  0
   -4.8890   -0.1955    1.9239 H   0  0  0  0  0  0  0  0  0  0  0  0
   -5.4449   -1.7489    1.2764 H   0  0  0  0  0  0  0  0  0  0  0  0
   -6.7533   -1.3894   -0.7402 H   0  0  0  0  0  0  0  0  0  0  0  0
   -5.2607   -1.9643   -1.5425 H   0  0  0  0  0  0  0  0  0  0  0  0
   -7.0117    0.4740   -2.2335 H   0  0  0  0  0  0  0  0  0  0  0  0
   -6.1210   -1.7561   -3.7691 H   0  0  0  0  0  0  0  0  0  0  0  0
   -5.2504    1.6154   -2.9424 H   0  0  0  0  0  0  0  0  0  0  0  0
   -5.0994    0.4659   -4.2658 H   0  0  0  0  0  0  0  0  0  0  0  0
   -3.0001    0.9152   -3.0230 H   0  0  0  0  0  0  0  0  0  0  0  0
   -3.4144   -0.8333   -2.9052 H   0  0  0  0  0  0  0  0  0  0  0  0
   -5.5102    1.6834   -0.7522 H   0  0  0  0  0  0  0  0  0  0  0  0
   -4.2588    1.6070    0.6524 H   0  0  0  0  0  0  0  0  0  0  0  0
   -1.1540    0.7509   -1.9920 H   0  0  0  0  0  0  0  0  0  0  0  0
    0.7908    1.3433   -0.6320 H   0  0  0  0  0  0  0  0  0  0  0  0
    0.8163   -0.4290   -0.7816 H   0  0  0  0  0  0  0  0  0  0  0  0
    0.3995    2.5253    1.3571 H   0  0  0  0  0  0  0  0  0  0  0  0
   -0.3392    1.8116    2.8263 H   0  0  0  0  0  0  0  0  0  0  0  0
   -1.2655    2.0553    1.3081 H   0  0  0  0  0  0  0  0  0  0  0  0
  1  2  1  0  0  0  0
  1 31  1  0  0  0  0
  1 32  1  0  0  0  0
  1 33  1  0  0  0  0
  2  3  1  0  0  0  0
  2  4  1  0  0  0  0
  2 34  1  0  0  0  0
  3 35  1  0  0  0  0
  3 36  1  0  0  0  0
  3 37  1  0  0  0  0
  4  5  1  0  0  0  0
  4  6  1  0  0  0  0
  4 38  1  1  0  0  0
  5 39  1  0  0  0  0
  5 40  1  0  0  0  0
  5 41  1  0  0  0  0
  6  7  2  0  0  0  0
  6 42  1  0  0  0  0
  7  8  1  0  0  0  0
  7 43  1  0  0  0  0
  8  9  1  0  0  0  0
  8 10  1  0  0  0  0
  8 44  1  1  0  0  0
  9 45  1  0  0  0  0
  9 46  1  0  0  0  0
  9 47  1  0  0  0  0
 10 11  1  0  0  0  0
 10 48  1  6  0  0  0
 11 12  1  0  0  0  0
 11 49  1  0  0  0  0
 11 50  1  0  0  0  0
 12 13  1  0  0  0  0
 12 51  1  0  0  0  0
 12 52  1  0  0  0  0
 13 14  1  6  0  0  0
 13 15  1  0  0  0  0
 14 53  1  0  0  0  0
 14 54  1  0  0  0  0
 14 55  1  0  0  0  0
 15 16  1  0  0  0  0
 15 56  1  1  0  0  0
 16 17  1  0  0  0  0
 16 57  1  0  0  0  0
 16 58  1  0  0  0  0
 17 59  1  0  0  0  0
 17 60  1  0  0  0  0
 18 17  1  1  0  0  0
 18 19  1  0  0  0  0
 19 20  1  0  0  0  0
 19 61  1  0  0  0  0
 19 62  1  0  0  0  0
 20 21  1  0  0  0  0
 20 22  1  0  0  0  0
 20 63  1  1  0  0  0
 21 64  1  0  0  0  0
 22 23  1  0  0  0  0
 22 65  1  0  0  0  0
 22 66  1  0  0  0  0
 23 67  1  0  0  0  0
 23 68  1  0  0  0  0
 24 23  1  0  0  0  0
 24 25  1  0  0  0  0
 24 26  1  1  0  0  0
 24 18  1  0  0  0  0
 25 18  1  0  0  0  0
 25 69  1  0  0  0  0
 25 70  1  0  0  0  0
 26 27  2  0  0  0  0
 26 15  1  0  0  0  0
 27 28  1  0  0  0  0
 27 71  1  0  0  0  0
 28 29  1  0  0  0  0
 28 72  1  0  0  0  0
 28 73  1  0  0  0  0
 29 30  1  1  0  0  0
 29 10  1  0  0  0  0
 29 13  1  0  0  0  0
 30 74  1  0  0  0  0
 30 75  1  0  0  0  0
 30 76  1  0  0  0  0
M  END
>  <IDENTIFIER>
CNP0144949.3

>  <Energy>
2185.98

$$$$
