
 OpenBabel09102515112D

164163  0  0  0  0  0  0  0  0999 V2000
   23.5836   10.1519    0.0000 C   0  0  0  0  0  0  0  0  0  0  0  0
   22.8336   11.4510    0.0000 C   0  0  0  0  0  0  0  0  0  0  0  0
   22.0836   12.7500    0.0000 C   0  0  3  0  0  3  0  0  0  0  0  0
   21.3336   14.0490    0.0000 C   0  0  0  0  0  0  0  0  0  0  0  0
   20.7846   12.0000    0.0000 C   0  0  0  0  0  2  0  0  0  0  0  0
   19.4856   11.2500    0.0000 C   0  0  0  0  0  0  0  0  0  0  0  0
   18.1865   10.5000    0.0000 C   0  0  0  0  0  0  0  0  0  0  0  0
   16.8875    9.7500    0.0000 C   0  0  0  0  0  2  0  0  0  0  0  0
   15.5885    9.0000    0.0000 C   0  0  0  0  0  0  0  0  0  0  0  0
   13.9472    8.6483   -0.0882 C   0  0  0  0  0  0  0  0  0  0  0  0
   13.3379    7.0698    0.0916 C   0  0  0  0  0  0  0  0  0  0  0  0
   11.6913    6.7500    0.0000 C   0  0  0  0  0  0  0  0  0  0  0  0
   10.3923    6.0000    0.0000 C   0  0  0  0  0  0  0  0  0  0  0  0
    9.0933    5.2500    0.0000 C   0  0  0  0  0  0  0  0  0  0  0  0
    7.7942    4.5000    0.0000 C   0  0  0  0  0  0  0  0  0  0  0  0
    6.4952    3.7500    0.0000 C   0  0  0  0  0  0  0  0  0  0  0  0
    5.1962    3.0000    0.0000 C   0  0  0  0  0  0  0  0  0  0  0  0
    3.5418    3.0860   -0.1823 C   0  0  0  0  0  0  0  0  0  0  0  0
    2.6552    1.6525   -0.1817 C   0  0  0  0  0  0  0  0  0  0  0  0
    0.9941    1.5510   -0.3726 C   0  0  0  0  0  0  0  0  0  0  0  0
    0.1940    0.1399   -0.6580 C   0  0  0  0  0  0  0  0  0  0  0  0
    0.7580   -0.6135   -1.4367 O   0  0  0  0  0  0  0  0  0  0  0  0
   -1.1553   -0.2138   -0.2703 O   0  0  0  0  0  0  0  0  0  0  0  0
   -1.9535   -1.3371   -0.7974 C   0  0  0  0  0  0  0  0  0  0  0  0
   -3.5141   -1.6813   -0.2856 C   0  0  2  0  0  0  0  0  0  0  0  0
   -4.2929   -2.9456   -1.0536 C   0  0  0  0  0  0  0  0  0  0  0  0
   -5.7288   -3.2373   -0.9465 O   0  0  0  0  0  0  0  0  0  0  0  0
   -6.4251   -4.4094   -0.5199 C   0  0  0  0  0  0  0  0  0  0  0  0
   -5.8452   -5.1504    0.2583 O   0  0  0  0  0  0  0  0  0  0  0  0
   -7.8793   -4.9468   -1.0587 C   0  0  0  0  0  0  0  0  0  0  0  0
   -9.0933   -5.2500    0.0000 C   0  0  0  0  0  0  0  0  0  0  0  0
  -10.3923   -6.0000    0.0000 C   0  0  0  0  0  0  0  0  0  0  0  0
  -11.6913   -6.7500    0.0000 C   0  0  0  0  0  0  0  0  0  0  0  0
  -13.3397   -7.0685    0.0551 C   0  0  0  0  0  0  0  0  0  0  0  0
  -13.9440   -8.6555   -0.0462 C   0  0  0  0  0  0  0  0  0  0  0  0
  -15.5885   -9.0000    0.0000 C   0  0  0  0  0  0  0  0  0  0  0  0
  -16.8875   -9.7500    0.0000 C   0  0  0  0  0  2  0  0  0  0  0  0
  -18.1865  -10.5000    0.0000 C   0  0  0  0  0  0  0  0  0  0  0  0
  -19.4856  -11.2500    0.0000 C   0  0  0  0  0  0  0  0  0  0  0  0
  -20.7846  -12.0000    0.0000 C   0  0  0  0  0  2  0  0  0  0  0  0
  -22.0836  -12.7500    0.0000 C   0  0  0  0  0  0  0  0  0  0  0  0
  -23.6454  -13.2385    0.3825 C   0  0  0  0  0  0  0  0  0  0  0  0
  -24.4293  -14.5132   -0.4266 C   0  0  0  0  0  0  0  0  0  0  0  0
  -25.9808  -15.0000    0.0000 C   0  0  0  0  0  0  0  0  0  0  0  0
  -27.2798  -15.7500    0.0000 C   0  0  0  0  0  0  0  0  0  0  0  0
  -28.5788  -16.5000    0.0000 C   0  0  0  0  0  0  0  0  0  0  0  0
  -26.5298  -17.0490    0.0000 C   0  0  0  0  0  0  0  0  0  0  0  0
   -4.2437   -0.5057   -0.3413 O   0  0  0  0  0  0  0  0  0  0  0  0
   -5.4856   -0.2988    0.1865 C   0  0  0  0  0  0  0  0  0  0  0  0
   -6.3122   -1.1870    0.2833 O   0  0  0  0  0  0  0  0  0  0  0  0
   -5.7852    1.0151    0.8080 C   0  0  0  0  0  0  0  0  0  0  0  0
   -6.9022    1.8182    0.1149 C   0  0  0  0  0  0  0  0  0  0  0  0
   -7.0352    3.1185    0.9043 C   0  0  0  0  0  0  0  0  0  0  0  0
   -7.6721    4.3166    0.2126 C   0  0  0  0  0  0  0  0  0  0  0  0
   -9.2319    4.5533    0.1427 C   0  0  0  0  0  0  0  0  0  0  0  0
   -9.3481    6.0933    0.0000 C   0  0  0  0  0  0  0  0  0  0  0  0
  -10.0981    7.3923    0.0000 C   0  0  0  0  0  0  0  0  0  0  0  0
  -10.8481    8.6913    0.0000 C   0  0  0  0  0  0  0  0  0  0  0  0
  -10.7060   10.2834   -0.4783 C   0  0  0  0  0  0  0  0  0  0  0  0
  -12.0938   11.1763   -0.2501 C   0  0  0  0  0  0  0  0  0  0  0  0
  -13.0981   12.5885    0.0000 C   0  0  0  0  0  0  0  0  0  0  0  0
  -13.8481   13.8875    0.0000 C   0  0  0  0  0  0  0  0  0  0  0  0
  -14.3971   11.8385    0.0000 C   0  0  0  0  0  0  0  0  0  0  0  0
   22.9059    9.5985   -0.6934 H   0  0  0  0  0  0  0  0  0  0  0  0
   24.5491   10.4639   -0.4852 H   0  0  0  0  0  0  0  0  0  0  0  0
   24.1186    9.2252    0.0000 H   0  0  0  0  0  0  0  0  0  0  0  0
   23.6303   11.9668    0.5871 H   0  0  0  0  0  0  0  0  0  0  0  0
   22.9819   11.6259   -1.1053 H   0  0  0  0  0  0  0  0  0  0  0  0
   22.1954   14.6378   -0.3774 H   0  0  0  0  0  0  0  0  0  0  0  0
   21.3126   14.1636    1.1104 H   0  0  0  0  0  0  0  0  0  0  0  0
   20.7986   14.9756    0.0000 H   0  0  0  0  0  0  0  0  0  0  0  0
   19.8549   10.6940   -0.8957 H   0  0  0  0  0  0  0  0  0  0  0  0
   19.8546   10.6945    0.8961 H   0  0  0  0  0  0  0  0  0  0  0  0
   17.8177   11.0555   -0.8961 H   0  0  0  0  0  0  0  0  0  0  0  0
   17.8174   11.0559    0.8958 H   0  0  0  0  0  0  0  0  0  0  0  0
   15.7558    8.5146    0.9841 H   0  0  0  0  0  0  0  0  0  0  0  0
   15.9049    8.2565   -0.7611 H   0  0  0  0  0  0  0  0  0  0  0  0
   13.5979    9.0117   -1.0775 H   0  0  0  0  0  0  0  0  0  0  0  0
   13.4478    9.2707    0.6838 H   0  0  0  0  0  0  0  0  0  0  0  0
   13.8311    6.4447   -0.6821 H   0  0  0  0  0  0  0  0  0  0  0  0
   13.6829    6.7023    1.0808 H   0  0  0  0  0  0  0  0  0  0  0  0
   11.4111    7.5316    0.7496 H   0  0  0  0  0  0  0  0  0  0  0  0
   11.5501    7.2834   -0.9750 H   0  0  0  0  0  0  0  0  0  0  0  0
   10.9457    5.3337   -0.7401 H   0  0  0  0  0  0  0  0  0  0  0  0
   10.5873    5.6714    1.0567 H   0  0  0  0  0  0  0  0  0  0  0  0
    8.9639    5.5141   -1.0937 H   0  0  0  0  0  0  0  0  0  0  0  0
    9.5782    4.2158    0.0357 H   0  0  0  0  0  0  0  0  0  0  0  0
    7.3050    5.5313   -0.0374 H   0  0  0  0  0  0  0  0  0  0  0  0
    7.9236    4.2376    1.0945 H   0  0  0  0  0  0  0  0  0  0  0  0
    5.9429    4.4048    0.7481 H   0  0  0  0  0  0  0  0  0  0  0  0
    6.2993    4.0682   -1.0581 H   0  0  0  0  0  0  0  0  0  0  0  0
    5.2548    2.4358    0.9636 H   0  0  0  0  0  0  0  0  0  0  0  0
    5.4106    2.2058   -0.7562 H   0  0  0  0  0  0  0  0  0  0  0  0
    3.3421    3.5868   -1.1526 H   0  0  0  0  0  0  0  0  0  0  0  0
    3.1459    3.7388    0.6229 H   0  0  0  0  0  0  0  0  0  0  0  0
    3.0856    1.0520   -1.0102 H   0  0  0  0  0  0  0  0  0  0  0  0
    2.8936    1.1205    0.7627 H   0  0  0  0  0  0  0  0  0  0  0  0
    0.4837    2.0962    0.4477 H   0  0  0  0  0  0  0  0  0  0  0  0
    0.8075    2.1457   -1.2915 H   0  0  0  0  0  0  0  0  0  0  0  0
   -1.3662   -2.2687   -0.6528 H   0  0  0  0  0  0  0  0  0  0  0  0
   -2.0311   -1.1767   -1.8936 H   0  0  0  0  0  0  0  0  0  0  0  0
   -3.4413   -1.9544    0.7902 H   0  0  0  0  0  0  0  0  0  0  0  0
   -3.7179   -3.8680   -0.8276 H   0  0  0  0  0  0  0  0  0  0  0  0
   -4.1313   -2.7446   -2.1330 H   0  0  0  0  0  0  0  0  0  0  0  0
   -7.6613   -5.9174   -1.5517 H   0  0  0  0  0  0  0  0  0  0  0  0
   -8.2605   -4.2581   -1.8418 H   0  0  0  0  0  0  0  0  0  0  0  0
   -9.2947   -4.2067    0.3613 H   0  0  0  0  0  0  0  0  0  0  0  0
   -8.5398   -5.7539    0.8262 H   0  0  0  0  0  0  0  0  0  0  0  0
  -10.7712   -5.3292   -0.8090 H   0  0  0  0  0  0  0  0  0  0  0  0
  -10.6741   -5.5862    1.0059 H   0  0  0  0  0  0  0  0  0  0  0  0
  -11.5187   -7.3074   -0.9515 H   0  0  0  0  0  0  0  0  0  0  0  0
  -11.4309   -7.4944    0.7934 H   0  0  0  0  0  0  0  0  0  0  0  0
  -13.7181   -6.6428    1.0081 H   0  0  0  0  0  0  0  0  0  0  0  0
  -13.8065   -6.4920   -0.7710 H   0  0  0  0  0  0  0  0  0  0  0  0
  -13.4773   -9.2248    0.7851 H   0  0  0  0  0  0  0  0  0  0  0  0
  -13.5564   -9.0837   -0.9943 H   0  0  0  0  0  0  0  0  0  0  0  0
  -15.8718   -8.3127   -0.8243 H   0  0  0  0  0  0  0  0  0  0  0  0
  -15.7950   -8.4458    0.9393 H   0  0  0  0  0  0  0  0  0  0  0  0
  -17.8175  -11.0555    0.8961 H   0  0  0  0  0  0  0  0  0  0  0  0
  -17.8173  -11.0558   -0.8958 H   0  0  0  0  0  0  0  0  0  0  0  0
  -19.8548  -10.6941    0.8958 H   0  0  0  0  0  0  0  0  0  0  0  0
  -19.8546  -10.6946   -0.8961 H   0  0  0  0  0  0  0  0  0  0  0  0
  -22.2717  -12.6152   -1.0856 H   0  0  0  0  0  0  0  0  0  0  0  0
  -21.6201  -13.7532    0.1037 H   0  0  0  0  0  0  0  0  0  0  0  0
  -23.6379  -13.5025    1.4609 H   0  0  0  0  0  0  0  0  0  0  0  0
  -24.2954  -12.3456    0.2688 H   0  0  0  0  0  0  0  0  0  0  0  0
  -23.7767  -15.4051   -0.3199 H   0  0  0  0  0  0  0  0  0  0  0  0
  -24.4536  -14.2503   -1.5050 H   0  0  0  0  0  0  0  0  0  0  0  0
  -26.4179  -13.9742   -0.0782 H   0  0  0  0  0  0  0  0  0  0  0  0
  -25.7535  -15.0424    1.0961 H   0  0  0  0  0  0  0  0  0  0  0  0
  -27.4492  -15.4733   -1.0772 H   0  0  0  0  0  0  0  0  0  0  0  0
  -29.2453  -15.6061   -0.0832 H   0  0  0  0  0  0  0  0  0  0  0  0
  -28.6037  -16.7570    1.0919 H   0  0  0  0  0  0  0  0  0  0  0  0
  -29.5054  -17.0350    0.0000 H   0  0  0  0  0  0  0  0  0  0  0  0
  -26.1754  -17.1300    1.0631 H   0  0  0  0  0  0  0  0  0  0  0  0
  -25.9236  -17.0594   -0.9551 H   0  0  0  0  0  0  0  0  0  0  0  0
  -25.9948  -17.9756    0.0000 H   0  0  0  0  0  0  0  0  0  0  0  0
   -6.0410    0.8404    1.8767 H   0  0  0  0  0  0  0  0  0  0  0  0
   -4.8446    1.6103    0.7750 H   0  0  0  0  0  0  0  0  0  0  0  0
   -7.8736    1.2802    0.0829 H   0  0  0  0  0  0  0  0  0  0  0  0
   -6.5654    2.0340   -0.9229 H   0  0  0  0  0  0  0  0  0  0  0  0
   -5.9851    3.4667    1.0651 H   0  0  0  0  0  0  0  0  0  0  0  0
   -7.4708    2.9504    1.9133 H   0  0  0  0  0  0  0  0  0  0  0  0
   -7.2083    4.4752   -0.7871 H   0  0  0  0  0  0  0  0  0  0  0  0
   -7.2502    5.1194    0.8602 H   0  0  0  0  0  0  0  0  0  0  0  0
   -9.7052    4.2650    1.1063 H   0  0  0  0  0  0  0  0  0  0  0  0
   -9.6965    3.9846   -0.6888 H   0  0  0  0  0  0  0  0  0  0  0  0
   -8.6240    6.2933   -0.8349 H   0  0  0  0  0  0  0  0  0  0  0  0
   -8.8252    6.3902    0.9418 H   0  0  0  0  0  0  0  0  0  0  0  0
  -10.8562    6.8905    0.6630 H   0  0  0  0  0  0  0  0  0  0  0  0
  -10.4009    7.2300   -1.0672 H   0  0  0  0  0  0  0  0  0  0  0  0
  -10.9559    8.8897    1.0955 H   0  0  0  0  0  0  0  0  0  0  0  0
  -11.8896    8.4493   -0.3465 H   0  0  0  0  0  0  0  0  0  0  0  0
  -10.4127   10.3512   -1.5483 H   0  0  0  0  0  0  0  0  0  0  0  0
   -9.8820   10.7233    0.1236 H   0  0  0  0  0  0  0  0  0  0  0  0
  -12.2860   10.6738    0.7222 H   0  0  0  0  0  0  0  0  0  0  0  0
  -12.6130   10.6513   -1.0823 H   0  0  0  0  0  0  0  0  0  0  0  0
  -12.7513   12.7481    1.0532 H   0  0  0  0  0  0  0  0  0  0  0  0
  -12.9562   14.5547    0.0907 H   0  0  0  0  0  0  0  0  0  0  0  0
  -14.1005   13.9165   -1.0925 H   0  0  0  0  0  0  0  0  0  0  0  0
  -14.3831   14.8141    0.0000 H   0  0  0  0  0  0  0  0  0  0  0  0
  -14.4715   11.5811   -1.0837 H   0  0  0  0  0  0  0  0  0  0  0  0
  -14.2669   11.0701    0.7922 H   0  0  0  0  0  0  0  0  0  0  0  0
  -15.3237   11.3035    0.0000 H   0  0  0  0  0  0  0  0  0  0  0  0
  1  2  1  0  0  0  0
  1 64  1  0  0  0  0
  1 65  1  0  0  0  0
  1 66  1  0  0  0  0
  2  3  1  0  0  0  0
  2 67  1  0  0  0  0
  2 68  1  0  0  0  0
  3  4  1  0  0  0  0
  3  5  1  0  0  0  0
  4 69  1  0  0  0  0
  4 70  1  0  0  0  0
  4 71  1  0  0  0  0
  5  6  1  0  0  0  0
  6  7  1  0  0  0  0
  6 72  1  0  0  0  0
  6 73  1  0  0  0  0
  7  8  1  0  0  0  0
  7 74  1  0  0  0  0
  7 75  1  0  0  0  0
  8  9  1  0  0  0  0
  9 10  1  0  0  0  0
  9 76  1  0  0  0  0
  9 77  1  0  0  0  0
 10 11  1  0  0  0  0
 10 78  1  0  0  0  0
 10 79  1  0  0  0  0
 11 12  1  0  0  0  0
 11 80  1  0  0  0  0
 11 81  1  0  0  0  0
 12 13  1  0  0  0  0
 12 82  1  0  0  0  0
 12 83  1  0  0  0  0
 13 14  1  0  0  0  0
 13 84  1  0  0  0  0
 13 85  1  0  0  0  0
 14 15  1  0  0  0  0
 14 86  1  0  0  0  0
 14 87  1  0  0  0  0
 15 16  1  0  0  0  0
 15 88  1  0  0  0  0
 15 89  1  0  0  0  0
 16 17  1  0  0  0  0
 16 90  1  0  0  0  0
 16 91  1  0  0  0  0
 17 18  1  0  0  0  0
 17 92  1  0  0  0  0
 17 93  1  0  0  0  0
 18 19  1  0  0  0  0
 18 94  1  0  0  0  0
 18 95  1  0  0  0  0
 19 20  1  0  0  0  0
 19 96  1  0  0  0  0
 19 97  1  0  0  0  0
 20 21  1  0  0  0  0
 20 98  1  0  0  0  0
 20 99  1  0  0  0  0
 21 22  2  0  0  0  0
 21 23  1  0  0  0  0
 23 24  1  0  0  0  0
 24100  1  0  0  0  0
 24101  1  0  0  0  0
 25 24  1  0  0  0  0
 25 26  1  0  0  0  0
 25 48  1  0  0  0  0
 25102  1  1  0  0  0
 26 27  1  0  0  0  0
 26103  1  0  0  0  0
 26104  1  0  0  0  0
 27 28  1  0  0  0  0
 28 29  2  0  0  0  0
 28 30  1  0  0  0  0
 30 31  1  0  0  0  0
 30105  1  0  0  0  0
 30106  1  0  0  0  0
 31 32  1  0  0  0  0
 31107  1  0  0  0  0
 31108  1  0  0  0  0
 32 33  1  0  0  0  0
 32109  1  0  0  0  0
 32110  1  0  0  0  0
 33 34  1  0  0  0  0
 33111  1  0  0  0  0
 33112  1  0  0  0  0
 34 35  1  0  0  0  0
 34113  1  0  0  0  0
 34114  1  0  0  0  0
 35 36  1  0  0  0  0
 35115  1  0  0  0  0
 35116  1  0  0  0  0
 36 37  1  0  0  0  0
 36117  1  0  0  0  0
 36118  1  0  0  0  0
 37 38  1  0  0  0  0
 38 39  1  0  0  0  0
 38119  1  0  0  0  0
 38120  1  0  0  0  0
 39 40  1  0  0  0  0
 39121  1  0  0  0  0
 39122  1  0  0  0  0
 40 41  1  0  0  0  0
 41 42  1  0  0  0  0
 41123  1  0  0  0  0
 41124  1  0  0  0  0
 42 43  1  0  0  0  0
 42125  1  0  0  0  0
 42126  1  0  0  0  0
 43 44  1  0  0  0  0
 43127  1  0  0  0  0
 43128  1  0  0  0  0
 44 45  1  0  0  0  0
 44129  1  0  0  0  0
 44130  1  0  0  0  0
 45 46  1  0  0  0  0
 45 47  1  0  0  0  0
 45131  1  0  0  0  0
 46132  1  0  0  0  0
 46133  1  0  0  0  0
 46134  1  0  0  0  0
 47135  1  0  0  0  0
 47136  1  0  0  0  0
 47137  1  0  0  0  0
 48 49  1  0  0  0  0
 49 50  2  0  0  0  0
 49 51  1  0  0  0  0
 51 52  1  0  0  0  0
 51138  1  0  0  0  0
 51139  1  0  0  0  0
 52 53  1  0  0  0  0
 52140  1  0  0  0  0
 52141  1  0  0  0  0
 53 54  1  0  0  0  0
 53142  1  0  0  0  0
 53143  1  0  0  0  0
 54 55  1  0  0  0  0
 54144  1  0  0  0  0
 54145  1  0  0  0  0
 55 56  1  0  0  0  0
 55146  1  0  0  0  0
 55147  1  0  0  0  0
 56 57  1  0  0  0  0
 56148  1  0  0  0  0
 56149  1  0  0  0  0
 57 58  1  0  0  0  0
 57150  1  0  0  0  0
 57151  1  0  0  0  0
 58 59  1  0  0  0  0
 58152  1  0  0  0  0
 58153  1  0  0  0  0
 59 60  1  0  0  0  0
 59154  1  0  0  0  0
 59155  1  0  0  0  0
 60 61  1  0  0  0  0
 60156  1  0  0  0  0
 60157  1  0  0  0  0
 61 62  1  0  0  0  0
 61 63  1  0  0  0  0
 61158  1  0  0  0  0
 62159  1  0  0  0  0
 62160  1  0  0  0  0
 62161  1  0  0  0  0
 63162  1  0  0  0  0
 63163  1  0  0  0  0
 63164  1  0  0  0  0
M  END
>  <IDENTIFIER>
CNP0544664.2

>  <Energy>
12503.9

$$$$
