
 OpenBabel09052523493D

 52 53  0  0  0  0  0  0  0  0999 V2000
   -4.2745    0.4090    1.5433 C   0  0  0  0  0  0  0  0  0  0  0  0
   -3.4370   -0.0918    0.3915 C   0  0  0  0  0  0  0  0  0  0  0  0
   -2.9868   -1.3764    0.4063 C   0  0  0  0  0  0  0  0  0  0  0  0
   -2.1846   -2.0078   -0.7078 C   0  0  0  0  0  0  0  0  0  0  0  0
   -0.6871   -1.5889   -0.7579 C   0  0  0  0  0  0  0  0  0  0  0  0
    0.2111   -2.4114    0.1592 C   0  0  0  0  0  0  0  0  0  0  0  0
    0.1750   -3.9177    0.0151 C   0  0  0  0  0  0  0  0  0  0  0  0
    1.1091   -1.9319    1.0612 C   0  0  0  0  0  0  0  0  0  0  0  0
    1.5363   -0.5178    1.4357 C   0  0  2  0  0  0  0  0  0  0  0  0
    2.2859    0.7124    0.7930 C   0  0  2  0  0  0  0  0  0  0  0  0
    1.7167    1.1715   -0.5569 C   0  0  0  0  0  0  0  0  0  0  0  0
    0.7039    2.2848   -0.2275 C   0  0  0  0  0  0  0  0  0  0  0  0
   -0.1643    2.7421   -1.3895 C   0  0  0  0  0  0  0  0  0  0  0  0
    0.5159    3.3290   -2.5989 C   0  0  0  0  0  0  0  0  0  0  0  0
   -1.5264    2.6711   -1.3932 C   0  0  0  0  0  0  0  0  0  0  0  0
   -2.3944    2.1087   -0.2786 C   0  0  0  0  0  0  0  0  0  0  0  0
   -3.1392    0.8649   -0.7632 C   0  0  0  0  0  0  0  0  0  0  0  0
    3.0575   -0.5239    1.0686 C   0  0  0  0  0  0  0  0  0  0  0  0
    3.5916   -1.2455   -0.1855 C   0  0  0  0  0  0  0  0  0  0  0  0
    4.0280   -0.4469    2.2575 C   0  0  0  0  0  0  0  0  0  0  0  0
   -4.4291   -0.3713    2.3190 H   0  0  0  0  0  0  0  0  0  0  0  0
   -5.2666    0.7325    1.1682 H   0  0  0  0  0  0  0  0  0  0  0  0
   -3.7730    1.2712    2.0301 H   0  0  0  0  0  0  0  0  0  0  0  0
   -3.2661   -2.0270    1.2307 H   0  0  0  0  0  0  0  0  0  0  0  0
   -2.6912   -1.7614   -1.6645 H   0  0  0  0  0  0  0  0  0  0  0  0
   -2.2881   -3.1066   -0.6467 H   0  0  0  0  0  0  0  0  0  0  0  0
   -0.6023   -0.5024   -0.5895 H   0  0  0  0  0  0  0  0  0  0  0  0
   -0.3272   -1.8168   -1.7847 H   0  0  0  0  0  0  0  0  0  0  0  0
   -0.4892   -4.2601   -0.8023 H   0  0  0  0  0  0  0  0  0  0  0  0
   -0.1561   -4.3832    0.9675 H   0  0  0  0  0  0  0  0  0  0  0  0
    1.1911   -4.2899   -0.2354 H   0  0  0  0  0  0  0  0  0  0  0  0
    1.6599   -2.6841    1.6260 H   0  0  0  0  0  0  0  0  0  0  0  0
    1.3695   -0.3146    2.5153 H   0  0  0  0  0  0  0  0  0  0  0  0
    2.5250    1.5273    1.5138 H   0  0  0  0  0  0  0  0  0  0  0  0
    1.2638    0.3344   -1.1105 H   0  0  0  0  0  0  0  0  0  0  0  0
    2.5262    1.5891   -1.1910 H   0  0  0  0  0  0  0  0  0  0  0  0
    1.2580    3.1669    0.1665 H   0  0  0  0  0  0  0  0  0  0  0  0
    0.1237    1.9183    0.6194 H   0  0  0  0  0  0  0  0  0  0  0  0
    1.6181    3.3545   -2.4722 H   0  0  0  0  0  0  0  0  0  0  0  0
    0.1652    4.3701   -2.7587 H   0  0  0  0  0  0  0  0  0  0  0  0
    0.2791    2.7203   -3.4971 H   0  0  0  0  0  0  0  0  0  0  0  0
   -2.0577    3.0246   -2.2736 H   0  0  0  0  0  0  0  0  0  0  0  0
   -3.1137    2.8678    0.0966 H   0  0  0  0  0  0  0  0  0  0  0  0
   -1.8228    1.8102    0.6007 H   0  0  0  0  0  0  0  0  0  0  0  0
   -2.5062    0.3674   -1.5170 H   0  0  0  0  0  0  0  0  0  0  0  0
   -4.0653    1.1693   -1.2976 H   0  0  0  0  0  0  0  0  0  0  0  0
    4.4990   -0.7258   -0.5579 H   0  0  0  0  0  0  0  0  0  0  0  0
    2.8475   -1.2977   -1.0055 H   0  0  0  0  0  0  0  0  0  0  0  0
    3.8681   -2.2865    0.0853 H   0  0  0  0  0  0  0  0  0  0  0  0
    4.9667    0.0521    1.9347 H   0  0  0  0  0  0  0  0  0  0  0  0
    4.2683   -1.4697    2.6129 H   0  0  0  0  0  0  0  0  0  0  0  0
    3.6073    0.1311    3.1089 H   0  0  0  0  0  0  0  0  0  0  0  0
  1  2  1  0  0  0  0
  1 21  1  0  0  0  0
  1 22  1  0  0  0  0
  1 23  1  0  0  0  0
  2  3  2  0  0  0  0
  3  4  1  0  0  0  0
  3 24  1  0  0  0  0
  4  5  1  0  0  0  0
  4 25  1  0  0  0  0
  4 26  1  0  0  0  0
  5  6  1  0  0  0  0
  5 27  1  0  0  0  0
  5 28  1  0  0  0  0
  6  7  1  0  0  0  0
  6  8  2  0  0  0  0
  7 29  1  0  0  0  0
  7 30  1  0  0  0  0
  7 31  1  0  0  0  0
  8  9  1  0  0  0  0
  8 32  1  0  0  0  0
  9 10  1  0  0  0  0
  9 18  1  0  0  0  0
  9 33  1  1  0  0  0
 10 11  1  0  0  0  0
 10 18  1  0  0  0  0
 10 34  1  1  0  0  0
 11 12  1  0  0  0  0
 11 35  1  0  0  0  0
 11 36  1  0  0  0  0
 12 13  1  0  0  0  0
 12 37  1  0  0  0  0
 12 38  1  0  0  0  0
 13 14  1  0  0  0  0
 13 15  2  0  0  0  0
 14 39  1  0  0  0  0
 14 40  1  0  0  0  0
 14 41  1  0  0  0  0
 15 16  1  0  0  0  0
 15 42  1  0  0  0  0
 16 17  1  0  0  0  0
 16 43  1  0  0  0  0
 16 44  1  0  0  0  0
 17  2  1  0  0  0  0
 17 45  1  0  0  0  0
 17 46  1  0  0  0  0
 18 19  1  0  0  0  0
 18 20  1  0  0  0  0
 19 47  1  0  0  0  0
 19 48  1  0  0  0  0
 19 49  1  0  0  0  0
 20 50  1  0  0  0  0
 20 51  1  0  0  0  0
 20 52  1  0  0  0  0
M  END
>  <IDENTIFIER>
CNP0150449.2

>  <Energy>
1737.66

$$$$
