
 OpenBabel09072517373D

 72 76  0  0  0  0  0  0  0  0999 V2000
   -5.4237    2.8847    0.7576 C   0  0  0  0  0  0  0  0  0  0  0  0
   -4.3244    2.3356    0.2294 C   0  0  0  0  0  0  0  0  0  0  0  0
   -3.0814    2.0451    1.0076 C   0  0  0  0  0  0  0  0  0  0  0  0
   -2.3540    1.0715    0.0247 C   0  0  2  0  0  0  0  0  0  0  0  0
   -2.6439    1.7735   -1.3168 C   0  0  0  0  0  0  0  0  0  0  0  0
   -4.1761    1.9236   -1.2174 C   0  0  1  0  0  0  0  0  0  0  0  0
   -4.8862    0.5549   -1.4527 C   0  0  0  0  0  0  0  0  0  0  0  0
   -3.9730   -0.6461   -1.0974 C   0  0  0  0  0  0  0  0  0  0  0  0
   -3.1094   -0.3271    0.1394 C   0  0  1  0  0  0  0  0  0  0  0  0
   -2.0465   -1.3699    0.5981 C   0  0  2  0  0  0  0  0  0  0  0  0
   -1.4259   -2.1237   -0.6239 C   0  0  0  0  0  0  0  0  0  0  0  0
   -2.6375   -2.4259    1.6085 C   0  0  0  0  0  0  0  0  0  0  0  0
   -1.8270   -2.5357    2.9265 C   0  0  0  0  0  0  0  0  0  0  0  0
   -0.3357   -2.5960    2.5931 C   0  0  0  0  0  0  0  0  0  0  0  0
    0.2128   -1.2550    1.9400 C   0  0  1  0  0  0  0  0  0  0  0  0
    0.8379   -0.4095    3.0785 C   0  0  0  0  0  0  0  0  0  0  0  0
    1.3350   -1.6034    0.9479 C   0  0  0  0  0  0  0  0  0  0  0  0
    1.6667   -2.7746    0.8010 O   0  0  0  0  0  0  0  0  0  0  0  0
    2.0086   -0.6375    0.2552 O   0  0  0  0  0  0  0  0  0  0  0  0
    3.1667   -0.8807   -0.4821 C   0  0  2  0  0  0  0  0  0  0  0  0
    4.2127   -0.0615    0.0574 O   0  0  0  0  0  0  0  0  0  0  0  0
    5.2214    0.1889   -0.8981 C   0  0  2  0  0  0  0  0  0  0  0  0
    6.4775    0.7280   -0.2057 C   0  0  0  0  0  0  0  0  0  0  0  0
    7.5191    0.9169   -1.1260 O   0  0  0  0  0  0  0  0  0  0  0  0
    4.6782    1.1651   -1.9876 C   0  0  1  0  0  0  0  0  0  0  0  0
    5.5160    1.1743   -3.1202 O   0  0  0  0  0  0  0  0  0  0  0  0
    3.2003    0.8119   -2.3675 C   0  0  2  0  0  0  0  0  0  0  0  0
    2.2792    1.6490   -1.7075 O   0  0  0  0  0  0  0  0  0  0  0  0
    2.8994   -0.6660   -2.0184 C   0  0  1  0  0  0  0  0  0  0  0  0
    3.7393   -1.5312   -2.7435 O   0  0  0  0  0  0  0  0  0  0  0  0
   -1.0109   -0.4535    1.3175 C   0  0  1  0  0  0  0  0  0  0  0  0
   -0.8565    0.7419    0.3407 C   0  0  2  0  0  0  0  0  0  0  0  0
    0.0372    1.8870    0.7695 C   0  0  0  0  0  0  0  0  0  0  0  0
   -0.3465    3.0427    0.8235 O   0  0  0  0  0  0  0  0  0  0  0  0
   -5.4548    3.1500    1.8100 H   0  0  0  0  0  0  0  0  0  0  0  0
   -6.2985    3.0684    0.1425 H   0  0  0  0  0  0  0  0  0  0  0  0
   -3.2667    1.5744    1.9978 H   0  0  0  0  0  0  0  0  0  0  0  0
   -2.6063    3.0257    1.1868 H   0  0  0  0  0  0  0  0  0  0  0  0
   -2.3075    1.2368   -2.2286 H   0  0  0  0  0  0  0  0  0  0  0  0
   -2.1543    2.7747   -1.3153 H   0  0  0  0  0  0  0  0  0  0  0  0
   -4.5669    2.7088   -1.9001 H   0  0  0  0  0  0  0  0  0  0  0  0
   -5.1537    0.4345   -2.5247 H   0  0  0  0  0  0  0  0  0  0  0  0
   -5.8362    0.5374   -0.8747 H   0  0  0  0  0  0  0  0  0  0  0  0
   -3.2810   -0.7850   -1.9541 H   0  0  0  0  0  0  0  0  0  0  0  0
   -4.5590   -1.5842   -0.9951 H   0  0  0  0  0  0  0  0  0  0  0  0
   -3.8367   -0.2487    0.9769 H   0  0  0  0  0  0  0  0  0  0  0  0
   -2.2023   -2.7413   -1.1218 H   0  0  0  0  0  0  0  0  0  0  0  0
   -0.6342   -2.8286   -0.3165 H   0  0  0  0  0  0  0  0  0  0  0  0
   -1.0108   -1.4598   -1.4047 H   0  0  0  0  0  0  0  0  0  0  0  0
   -2.6570   -3.4253    1.1193 H   0  0  0  0  0  0  0  0  0  0  0  0
   -3.6931   -2.2229    1.8853 H   0  0  0  0  0  0  0  0  0  0  0  0
   -2.1550   -3.4500    3.4675 H   0  0  0  0  0  0  0  0  0  0  0  0
   -2.0182   -1.6715    3.5977 H   0  0  0  0  0  0  0  0  0  0  0  0
   -0.2737   -3.4575    1.8937 H   0  0  0  0  0  0  0  0  0  0  0  0
    0.2756   -2.8855    3.4754 H   0  0  0  0  0  0  0  0  0  0  0  0
    1.6584   -0.9726    3.5725 H   0  0  0  0  0  0  0  0  0  0  0  0
    0.0812   -0.1658    3.8550 H   0  0  0  0  0  0  0  0  0  0  0  0
    1.2803    0.5350    2.7278 H   0  0  0  0  0  0  0  0  0  0  0  0
    3.4701   -1.9455   -0.3567 H   0  0  0  0  0  0  0  0  0  0  0  0
    5.5277   -0.7844   -1.3470 H   0  0  0  0  0  0  0  0  0  0  0  0
    6.8021    0.0221    0.5921 H   0  0  0  0  0  0  0  0  0  0  0  0
    6.2515    1.6961    0.2862 H   0  0  0  0  0  0  0  0  0  0  0  0
    7.8934    0.0181   -1.3216 H   0  0  0  0  0  0  0  0  0  0  0  0
    4.6710    2.2067   -1.5991 H   0  0  0  0  0  0  0  0  0  0  0  0
    5.6726    0.2372   -3.4034 H   0  0  0  0  0  0  0  0  0  0  0  0
    3.0523    1.0054   -3.4522 H   0  0  0  0  0  0  0  0  0  0  0  0
    2.5867    1.7905   -0.7762 H   0  0  0  0  0  0  0  0  0  0  0  0
    1.8506   -0.9466   -2.2553 H   0  0  0  0  0  0  0  0  0  0  0  0
    3.7927   -1.2087   -3.6798 H   0  0  0  0  0  0  0  0  0  0  0  0
   -1.5464   -0.0246    2.1971 H   0  0  0  0  0  0  0  0  0  0  0  0
   -0.3790    0.3594   -0.5786 H   0  0  0  0  0  0  0  0  0  0  0  0
    1.0812    1.6989    0.9621 H   0  0  0  0  0  0  0  0  0  0  0  0
  1  2  2  0  0  0  0
  1 35  1  0  0  0  0
  1 36  1  0  0  0  0
  2  3  1  0  0  0  0
  3 37  1  0  0  0  0
  3 38  1  0  0  0  0
  4  3  1  1  0  0  0
  4  5  1  0  0  0  0
  5  6  1  0  0  0  0
  5 39  1  0  0  0  0
  5 40  1  0  0  0  0
  6  7  1  0  0  0  0
  6  2  1  0  0  0  0
  6 41  1  6  0  0  0
  7  8  1  0  0  0  0
  7 42  1  0  0  0  0
  7 43  1  0  0  0  0
  8 44  1  0  0  0  0
  8 45  1  0  0  0  0
  9  8  1  0  0  0  0
  9 10  1  0  0  0  0
  9  4  1  0  0  0  0
  9 46  1  1  0  0  0
 10 11  1  6  0  0  0
 10 12  1  0  0  0  0
 11 47  1  0  0  0  0
 11 48  1  0  0  0  0
 11 49  1  0  0  0  0
 12 13  1  0  0  0  0
 12 50  1  0  0  0  0
 12 51  1  0  0  0  0
 13 14  1  0  0  0  0
 13 52  1  0  0  0  0
 13 53  1  0  0  0  0
 14 15  1  0  0  0  0
 14 54  1  0  0  0  0
 14 55  1  0  0  0  0
 15 16  1  0  0  0  0
 15 17  1  6  0  0  0
 16 56  1  0  0  0  0
 16 57  1  0  0  0  0
 16 58  1  0  0  0  0
 17 18  2  0  0  0  0
 17 19  1  0  0  0  0
 20 19  1  0  0  0  0
 20 21  1  0  0  0  0
 20 59  1  1  0  0  0
 21 22  1  0  0  0  0
 22 23  1  0  0  0  0
 22 25  1  0  0  0  0
 22 60  1  6  0  0  0
 23 24  1  0  0  0  0
 23 61  1  0  0  0  0
 23 62  1  0  0  0  0
 24 63  1  0  0  0  0
 25 26  1  0  0  0  0
 25 27  1  0  0  0  0
 25 64  1  1  0  0  0
 26 65  1  0  0  0  0
 27 28  1  0  0  0  0
 27 29  1  0  0  0  0
 27 66  1  6  0  0  0
 28 67  1  0  0  0  0
 29 30  1  0  0  0  0
 29 20  1  0  0  0  0
 29 68  1  6  0  0  0
 30 69  1  0  0  0  0
 31 15  1  0  0  0  0
 31 32  1  0  0  0  0
 31 10  1  0  0  0  0
 31 70  1  1  0  0  0
 32 33  1  0  0  0  0
 32  4  1  0  0  0  0
 32 71  1  6  0  0  0
 33 34  2  0  0  0  0
 33 72  1  0  0  0  0
M  END
>  <IDENTIFIER>
CNP0106975.4

>  <Energy>
1195.84

$$$$
