
 OpenBabel09062501313D

 35 36  0  0  0  0  0  0  0  0999 V2000
    3.5319   -1.2168   -0.4348 C   0  0  0  0  0  0  0  0  0  0  0  0
    3.5624    0.2192    0.0890 C   0  0  0  0  0  0  0  0  0  0  0  0
    2.1683    0.8569    0.1891 C   0  0  0  0  0  0  0  0  0  0  0  0
    1.2679    0.1636    1.2263 C   0  0  0  0  0  0  0  0  0  0  0  0
   -0.0090    0.8651    1.4491 N   0  0  0  0  0  0  0  0  0  0  0  0
   -1.1178    0.8559    0.4545 C   0  0  1  0  0  0  0  0  0  0  0  0
   -1.4856   -0.6251    0.0835 C   0  0  0  0  0  0  0  0  0  0  0  0
   -0.6197   -1.4060   -0.7253 C   0  0  0  0  0  0  0  0  0  0  0  0
   -0.9201   -2.7283   -1.0596 C   0  0  0  0  0  0  0  0  0  0  0  0
   -2.0903   -3.3189   -0.5962 C   0  0  0  0  0  0  0  0  0  0  0  0
   -2.9646   -2.5861    0.2006 C   0  0  0  0  0  0  0  0  0  0  0  0
   -2.6741   -1.2601    0.5363 C   0  0  0  0  0  0  0  0  0  0  0  0
   -2.5328    1.6423    1.3707 S   0  0  0  0  0  0  0  0  0  0  0  0
   -4.0345    1.8735   -0.1522 S   0  0  0  0  0  0  0  0  0  0  0  0
   -3.1914    3.5332   -1.2280 S   0  0  0  0  0  0  0  0  0  0  0  0
   -2.9356    4.9153    0.3833 S   0  0  0  0  0  0  0  0  0  0  0  0
   -1.0190    4.2553    1.1482 S   0  0  0  0  0  0  0  0  0  0  0  0
   -0.0847    3.4824   -0.6274 S   0  0  0  0  0  0  0  0  0  0  0  0
   -0.7567    1.7748   -0.7549 C   0  0  0  0  0  0  0  0  0  0  0  0
   -0.8856    1.3050   -2.1146 S   0  0  0  0  0  0  0  0  0  0  0  0
    4.5714   -1.5966   -0.5238 H   0  0  0  0  0  0  0  0  0  0  0  0
    3.0538   -1.2506   -1.4369 H   0  0  0  0  0  0  0  0  0  0  0  0
    2.9836   -1.8877    0.2570 H   0  0  0  0  0  0  0  0  0  0  0  0
    4.1702    0.8276   -0.6149 H   0  0  0  0  0  0  0  0  0  0  0  0
    4.0595    0.2421    1.0832 H   0  0  0  0  0  0  0  0  0  0  0  0
    1.7033    0.8484   -0.8149 H   0  0  0  0  0  0  0  0  0  0  0  0
    2.3049    1.9154    0.5021 H   0  0  0  0  0  0  0  0  0  0  0  0
    1.8124    0.1733    2.1954 H   0  0  0  0  0  0  0  0  0  0  0  0
    1.0991   -0.9038    1.0111 H   0  0  0  0  0  0  0  0  0  0  0  0
    0.1899    1.8326    1.7933 H   0  0  0  0  0  0  0  0  0  0  0  0
    0.2997   -0.9961   -1.1147 H   0  0  0  0  0  0  0  0  0  0  0  0
   -0.2390   -3.2960   -1.6817 H   0  0  0  0  0  0  0  0  0  0  0  0
   -2.3193   -4.3453   -0.8535 H   0  0  0  0  0  0  0  0  0  0  0  0
   -3.8734   -3.0489    0.5644 H   0  0  0  0  0  0  0  0  0  0  0  0
   -3.3960   -0.7649    1.1647 H   0  0  0  0  0  0  0  0  0  0  0  0
  1  2  1  0  0  0  0
  1 21  1  0  0  0  0
  1 22  1  0  0  0  0
  1 23  1  0  0  0  0
  2  3  1  0  0  0  0
  2 24  1  0  0  0  0
  2 25  1  0  0  0  0
  3  4  1  0  0  0  0
  3 26  1  0  0  0  0
  3 27  1  0  0  0  0
  4  5  1  0  0  0  0
  4 28  1  0  0  0  0
  4 29  1  0  0  0  0
  5 30  1  0  0  0  0
  6  5  1  1  0  0  0
  6  7  1  0  0  0  0
  6 13  1  0  0  0  0
  7  8  2  0  0  0  0
  8  9  1  0  0  0  0
  8 31  1  0  0  0  0
  9 10  2  0  0  0  0
  9 32  1  0  0  0  0
 10 11  1  0  0  0  0
 10 33  1  0  0  0  0
 11 12  2  0  0  0  0
 11 34  1  0  0  0  0
 12  7  1  0  0  0  0
 12 35  1  0  0  0  0
 13 14  1  0  0  0  0
 14 15  1  0  0  0  0
 15 16  1  0  0  0  0
 16 17  1  0  0  0  0
 17 18  1  0  0  0  0
 18 19  1  0  0  0  0
 19 20  2  0  0  0  0
 19  6  1  0  0  0  0
M  END
>  <IDENTIFIER>
CNP0403629.1

>  <Energy>
412.989

$$$$
