
 OpenBabel09052522073D

 36 37  0  0  0  0  0  0  0  0999 V2000
    6.9969   -0.2647    0.1196 O   0  0  0  0  0  0  0  0  0  0  0  0
    6.0583   -0.8439    0.6434 C   0  0  0  0  0  0  0  0  0  0  0  0
    4.6624   -0.4770    0.3272 C   0  0  0  0  0  0  0  0  0  0  0  0
    4.3664    0.5482   -0.5849 C   0  0  0  0  0  0  0  0  0  0  0  0
    3.0382    0.8748   -0.8712 C   0  0  0  0  0  0  0  0  0  0  0  0
    1.9804    0.1907   -0.2582 C   0  0  0  0  0  0  0  0  0  0  0  0
    0.7153    0.5628   -0.5990 O   0  0  0  0  0  0  0  0  0  0  0  0
   -0.4992    0.0767   -0.1420 C   0  0  1  0  0  0  0  0  0  0  0  0
   -1.2408    1.1626    0.3979 O   0  0  0  0  0  0  0  0  0  0  0  0
   -2.4736    0.7089    0.9440 C   0  0  1  0  0  0  0  0  0  0  0  0
   -3.1587    1.8682    1.6799 C   0  0  0  0  0  0  0  0  0  0  0  0
   -2.3271    2.3663    2.6927 O   0  0  0  0  0  0  0  0  0  0  0  0
   -3.3876    0.1419   -0.1757 C   0  0  1  0  0  0  0  0  0  0  0  0
   -3.7657    1.1343   -1.1045 O   0  0  0  0  0  0  0  0  0  0  0  0
   -2.6458   -1.0200   -0.8668 C   0  0  1  0  0  0  0  0  0  0  0  0
   -3.4025   -1.5682   -1.9173 O   0  0  0  0  0  0  0  0  0  0  0  0
   -1.2537   -0.5517   -1.3375 C   0  0  2  0  0  0  0  0  0  0  0  0
   -0.5262   -1.6170   -1.8973 O   0  0  0  0  0  0  0  0  0  0  0  0
    2.2814   -0.8401    0.6601 C   0  0  0  0  0  0  0  0  0  0  0  0
    3.6108   -1.1654    0.9456 C   0  0  0  0  0  0  0  0  0  0  0  0
    6.2618   -1.6425    1.3505 H   0  0  0  0  0  0  0  0  0  0  0  0
    5.1597    1.0958   -1.0781 H   0  0  0  0  0  0  0  0  0  0  0  0
    2.8283    1.6669   -1.5793 H   0  0  0  0  0  0  0  0  0  0  0  0
   -0.3574   -0.6914    0.6420 H   0  0  0  0  0  0  0  0  0  0  0  0
   -2.2868   -0.0850    1.7055 H   0  0  0  0  0  0  0  0  0  0  0  0
   -4.1321    1.5418    2.1126 H   0  0  0  0  0  0  0  0  0  0  0  0
   -3.3753    2.6956    0.9713 H   0  0  0  0  0  0  0  0  0  0  0  0
   -2.3436    1.6989    3.4275 H   0  0  0  0  0  0  0  0  0  0  0  0
   -4.3202   -0.2535    0.2824 H   0  0  0  0  0  0  0  0  0  0  0  0
   -2.9685    1.6728   -1.3446 H   0  0  0  0  0  0  0  0  0  0  0  0
   -2.4935   -1.8208   -0.1087 H   0  0  0  0  0  0  0  0  0  0  0  0
   -3.4650   -0.8848   -2.6340 H   0  0  0  0  0  0  0  0  0  0  0  0
   -1.3703    0.2264   -2.1227 H   0  0  0  0  0  0  0  0  0  0  0  0
   -0.3525   -2.2765   -1.1757 H   0  0  0  0  0  0  0  0  0  0  0  0
    1.5210   -1.4109    1.1665 H   0  0  0  0  0  0  0  0  0  0  0  0
    3.8182   -1.9605    1.6519 H   0  0  0  0  0  0  0  0  0  0  0  0
  1  2  2  0  0  0  0
  2  3  1  0  0  0  0
  2 21  1  0  0  0  0
  3  4  2  0  0  0  0
  4  5  1  0  0  0  0
  4 22  1  0  0  0  0
  5  6  2  0  0  0  0
  5 23  1  0  0  0  0
  6  7  1  0  0  0  0
  6 19  1  0  0  0  0
  8  7  1  0  0  0  0
  8  9  1  0  0  0  0
  8 24  1  1  0  0  0
  9 10  1  0  0  0  0
 10 11  1  0  0  0  0
 10 13  1  0  0  0  0
 10 25  1  1  0  0  0
 11 12  1  0  0  0  0
 11 26  1  0  0  0  0
 11 27  1  0  0  0  0
 12 28  1  0  0  0  0
 13 14  1  0  0  0  0
 13 15  1  0  0  0  0
 13 29  1  1  0  0  0
 14 30  1  0  0  0  0
 15 16  1  0  0  0  0
 15 17  1  0  0  0  0
 15 31  1  1  0  0  0
 16 32  1  0  0  0  0
 17 18  1  0  0  0  0
 17  8  1  0  0  0  0
 17 33  1  6  0  0  0
 18 34  1  0  0  0  0
 19 20  2  0  0  0  0
 19 35  1  0  0  0  0
 20  3  1  0  0  0  0
 20 36  1  0  0  0  0
M  END
>  <IDENTIFIER>
CNP0269098.6

>  <Energy>
261.708

$$$$
