
 OpenBabel09062521023D

 60 64  0  0  0  0  0  0  0  0999 V2000
   -0.7407    2.4551   -1.7769 O   0  0  0  0  0  0  0  0  0  0  0  0
   -0.7673    2.0956   -0.6082 C   0  0  0  0  0  0  0  0  0  0  0  0
    0.3275    2.6285    0.2991 C   0  0  0  0  0  0  0  0  0  0  0  0
    1.4787    1.3317    0.9081 S   0  0  0  0  0  0  0  0  0  0  0  0
    2.4503    1.0432   -0.6163 C   0  0  0  0  0  0  0  0  0  0  0  0
    2.2386    1.8882   -1.6592 N   0  0  0  0  0  0  0  0  0  0  0  0
    2.8383    1.7346   -2.8582 C   0  0  0  0  0  0  0  0  0  0  0  0
    2.5954    2.6031   -3.8561 O   0  0  0  0  0  0  0  0  0  0  0  0
    3.6931    0.6680   -3.0512 C   0  0  0  0  0  0  0  0  0  0  0  0
    3.9210   -0.2186   -1.9991 C   0  0  0  0  0  0  0  0  0  0  0  0
    4.6541   -1.1562   -2.2233 O   0  0  0  0  0  0  0  0  0  0  0  0
    3.3305   -0.0279   -0.7516 N   0  0  0  0  0  0  0  0  0  0  0  0
    3.5367   -0.9187    0.4455 C   0  0  0  0  0  0  0  0  0  0  0  0
    4.0959   -2.3646    0.2465 C   0  0  0  0  0  0  0  0  0  0  0  0
    5.6360   -2.4957    0.1349 C   0  0  0  0  0  0  0  0  0  0  0  0
    6.3341   -1.7372    1.2600 C   0  0  0  0  0  0  0  0  0  0  0  0
    5.8831   -0.2700    1.2591 C   0  0  0  0  0  0  0  0  0  0  0  0
    4.3724   -0.1990    1.5432 C   0  0  0  0  0  0  0  0  0  0  0  0
   -1.7916    1.2868   -0.1660 N   0  0  0  0  0  0  0  0  0  0  0  0
   -1.9067    0.8931    1.2652 C   0  0  0  0  0  0  0  0  0  0  0  0
   -3.3796    0.4849    1.6600 C   0  0  2  0  0  0  0  0  0  0  0  0
   -4.2003    1.5827    0.9521 C   0  0  0  0  0  0  0  0  0  0  0  0
   -4.2854    1.1453   -0.5160 C   0  0  1  0  0  0  0  0  0  0  0  0
   -2.8575    0.8541   -1.0947 C   0  0  0  0  0  0  0  0  0  0  0  0
   -5.1414   -0.1175   -0.5389 C   0  0  0  0  0  0  0  0  0  0  0  0
   -5.8916   -0.4074   -1.6866 C   0  0  0  0  0  0  0  0  0  0  0  0
   -6.7295   -1.5186   -1.7052 C   0  0  0  0  0  0  0  0  0  0  0  0
   -6.8254   -2.3341   -0.5828 C   0  0  0  0  0  0  0  0  0  0  0  0
   -6.0685   -2.0418    0.5549 C   0  0  0  0  0  0  0  0  0  0  0  0
   -6.1669   -2.7683    1.5307 O   0  0  0  0  0  0  0  0  0  0  0  0
   -5.2194   -0.9464    0.5744 N   0  0  0  0  0  0  0  0  0  0  0  0
   -4.4255   -0.6752    1.8187 C   0  0  0  0  0  0  0  0  0  0  0  0
   -0.1130    3.1700    1.1603 H   0  0  0  0  0  0  0  0  0  0  0  0
    0.9283    3.4051   -0.2181 H   0  0  0  0  0  0  0  0  0  0  0  0
    1.9860    3.3448   -3.7389 H   0  0  0  0  0  0  0  0  0  0  0  0
    4.1693    0.5248   -4.0138 H   0  0  0  0  0  0  0  0  0  0  0  0
    2.5152   -1.1114    0.8366 H   0  0  0  0  0  0  0  0  0  0  0  0
    3.5714   -2.8850   -0.5827 H   0  0  0  0  0  0  0  0  0  0  0  0
    3.8380   -2.9181    1.1784 H   0  0  0  0  0  0  0  0  0  0  0  0
    6.0522   -2.1141   -0.8063 H   0  0  0  0  0  0  0  0  0  0  0  0
    5.9138   -3.5717    0.1765 H   0  0  0  0  0  0  0  0  0  0  0  0
    7.4348   -1.8050    1.1168 H   0  0  0  0  0  0  0  0  0  0  0  0
    6.0869   -2.2004    2.2409 H   0  0  0  0  0  0  0  0  0  0  0  0
    6.1248    0.2137    0.2866 H   0  0  0  0  0  0  0  0  0  0  0  0
    6.4323    0.2676    2.0617 H   0  0  0  0  0  0  0  0  0  0  0  0
    4.0673    0.8601    1.6577 H   0  0  0  0  0  0  0  0  0  0  0  0
    4.1970   -0.6996    2.5206 H   0  0  0  0  0  0  0  0  0  0  0  0
   -1.7367    1.8037    1.8772 H   0  0  0  0  0  0  0  0  0  0  0  0
   -1.1012    0.1821    1.5797 H   0  0  0  0  0  0  0  0  0  0  0  0
   -3.0235   -0.3202    0.9881 H   0  0  0  0  0  0  0  0  0  0  0  0
   -3.7181    2.5854    1.0248 H   0  0  0  0  0  0  0  0  0  0  0  0
   -5.2155    1.7212    1.3914 H   0  0  0  0  0  0  0  0  0  0  0  0
   -4.7822    1.9832   -1.0534 H   0  0  0  0  0  0  0  0  0  0  0  0
   -2.7657    1.2480   -2.1291 H   0  0  0  0  0  0  0  0  0  0  0  0
   -2.7341   -0.2466   -1.2066 H   0  0  0  0  0  0  0  0  0  0  0  0
   -5.8381    0.2347   -2.5573 H   0  0  0  0  0  0  0  0  0  0  0  0
   -7.3156   -1.7413   -2.5872 H   0  0  0  0  0  0  0  0  0  0  0  0
   -7.4876   -3.1917   -0.5979 H   0  0  0  0  0  0  0  0  0  0  0  0
   -3.9519   -1.6147    2.2187 H   0  0  0  0  0  0  0  0  0  0  0  0
   -5.1532   -0.3771    2.6056 H   0  0  0  0  0  0  0  0  0  0  0  0
  1  2  2  0  0  0  0
  2  3  1  0  0  0  0
  2 19  1  0  0  0  0
  3  4  1  0  0  0  0
  3 33  1  0  0  0  0
  3 34  1  0  0  0  0
  4  5  1  0  0  0  0
  5  6  2  0  0  0  0
  6  7  1  0  0  0  0
  7  8  1  0  0  0  0
  7  9  2  0  0  0  0
  8 35  1  0  0  0  0
  9 10  1  0  0  0  0
  9 36  1  0  0  0  0
 10 11  2  0  0  0  0
 10 12  1  0  0  0  0
 12 13  1  0  0  0  0
 12  5  1  0  0  0  0
 13 14  1  0  0  0  0
 13 37  1  0  0  0  0
 14 15  1  0  0  0  0
 14 38  1  0  0  0  0
 14 39  1  0  0  0  0
 15 16  1  0  0  0  0
 15 40  1  0  0  0  0
 15 41  1  0  0  0  0
 16 17  1  0  0  0  0
 16 42  1  0  0  0  0
 16 43  1  0  0  0  0
 17 18  1  0  0  0  0
 17 44  1  0  0  0  0
 17 45  1  0  0  0  0
 18 13  1  0  0  0  0
 18 46  1  0  0  0  0
 18 47  1  0  0  0  0
 19 20  1  0  0  0  0
 20 48  1  0  0  0  0
 20 49  1  0  0  0  0
 21 20  1  0  0  0  0
 21 22  1  0  0  0  0
 21 50  1  6  0  0  0
 22 23  1  0  0  0  0
 22 51  1  0  0  0  0
 22 52  1  0  0  0  0
 23 24  1  0  0  0  0
 23 25  1  0  0  0  0
 23 53  1  6  0  0  0
 24 19  1  0  0  0  0
 24 54  1  0  0  0  0
 24 55  1  0  0  0  0
 25 26  2  0  0  0  0
 26 27  1  0  0  0  0
 26 56  1  0  0  0  0
 27 28  2  0  0  0  0
 27 57  1  0  0  0  0
 28 29  1  0  0  0  0
 28 58  1  0  0  0  0
 29 30  2  0  0  0  0
 29 31  1  0  0  0  0
 31 32  1  0  0  0  0
 31 25  1  0  0  0  0
 32 21  1  0  0  0  0
 32 59  1  0  0  0  0
 32 60  1  0  0  0  0
M  END
>  <IDENTIFIER>
CNP0383779.1

>  <Energy>
1084.92

$$$$
