
 OpenBabel09102520283D

 94 99  0  0  0  0  0  0  0  0999 V2000
    7.1121   -2.5262    0.7204 C   0  0  0  0  0  0  0  0  0  0  0  0
    5.7588   -2.5789    0.9780 O   0  0  0  0  0  0  0  0  0  0  0  0
    4.9089   -1.5399    0.7713 C   0  0  0  0  0  0  0  0  0  0  0  0
    5.3200   -0.4876    0.3018 O   0  0  0  0  0  0  0  0  0  0  0  0
    3.4539   -1.6803    1.1599 C   0  0  1  0  0  0  0  0  0  0  0  0
    3.2046   -2.9878    1.6740 O   0  0  0  0  0  0  0  0  0  0  0  0
    1.9235   -3.3841    1.1828 C   0  0  0  0  0  0  0  0  0  0  0  0
    1.2711   -2.1301    0.5588 C   0  0  2  0  0  0  0  0  0  0  0  0
    0.6572   -1.1021    1.6229 C   0  0  2  0  0  0  0  0  0  0  0  0
    1.6528   -0.9166    2.8195 C   0  0  1  0  0  0  0  0  0  0  0  0
    1.6624   -2.0652    3.6303 O   0  0  0  0  0  0  0  0  0  0  0  0
    3.0919   -0.6608    2.2925 C   0  0  2  0  0  0  0  0  0  0  0  0
    3.2259    0.6590    1.8344 O   0  0  0  0  0  0  0  0  0  0  0  0
   -0.9055   -1.3138    1.9646 C   0  0  2  0  0  0  0  0  0  0  0  0
   -1.1675   -1.2194    3.5047 C   0  0  0  0  0  0  0  0  0  0  0  0
   -1.3853   -2.7129    1.4472 C   0  0  2  0  0  0  0  0  0  0  0  0
   -1.0318   -3.0471   -0.0349 C   0  0  0  0  0  0  0  0  0  0  0  0
    0.2771   -2.4360   -0.5656 C   0  0  1  0  0  0  0  0  0  0  0  0
    0.0219   -1.2839   -1.2956 O   0  0  0  0  0  0  0  0  0  0  0  0
    0.9405   -0.3166   -1.5806 C   0  0  0  0  0  0  0  0  0  0  0  0
    0.6137    0.6056   -2.3106 O   0  0  0  0  0  0  0  0  0  0  0  0
    2.2769   -0.2493   -0.8609 C   0  0  2  0  0  0  0  0  0  0  0  0
    3.2909   -0.0481   -1.7838 O   0  0  0  0  0  0  0  0  0  0  0  0
    3.9949    1.1042   -1.9342 C   0  0  0  0  0  0  0  0  0  0  0  0
    3.7649    2.0706   -1.2200 O   0  0  0  0  0  0  0  0  0  0  0  0
    5.0332    1.1703   -3.0294 C   0  0  0  0  0  0  0  0  0  0  0  0
    5.7571    2.5268   -3.2333 C   0  0  0  0  0  0  0  0  0  0  0  0
    6.5886    2.9411   -2.0101 C   0  0  0  0  0  0  0  0  0  0  0  0
    4.7874    3.6449   -3.6503 C   0  0  0  0  0  0  0  0  0  0  0  0
    2.5199   -1.5680   -0.0681 C   0  0  1  0  0  0  0  0  0  0  0  0
   -2.8867   -2.9206    1.5959 C   0  0  0  0  0  0  0  0  0  0  0  0
   -3.4442   -4.3168    1.6630 C   0  0  0  0  0  0  0  0  0  0  0  0
   -3.7426   -1.8757    1.6300 C   0  0  0  0  0  0  0  0  0  0  0  0
   -3.3174   -0.4257    1.5346 C   0  0  2  0  0  0  0  0  0  0  0  0
   -4.0610    0.1821    0.4923 O   0  0  0  0  0  0  0  0  0  0  0  0
   -4.5845    1.4583    0.8227 C   0  0  1  0  0  0  0  0  0  0  0  0
   -3.8124    2.4903    0.1953 O   0  0  0  0  0  0  0  0  0  0  0  0
   -4.3466    2.9802   -1.0247 C   0  0  1  0  0  0  0  0  0  0  0  0
   -4.1450    1.9402   -2.1506 C   0  0  0  0  0  0  0  0  0  0  0  0
   -4.4802    2.4907   -3.3983 O   0  0  0  0  0  0  0  0  0  0  0  0
   -5.8107    3.5235   -0.8673 C   0  0  2  0  0  0  0  0  0  0  0  0
   -5.8424    4.9259   -0.7774 O   0  0  0  0  0  0  0  0  0  0  0  0
   -6.5497    2.9104    0.3445 C   0  0  1  0  0  0  0  0  0  0  0  0
   -7.9427    3.0417    0.2062 O   0  0  0  0  0  0  0  0  0  0  0  0
   -6.1043    1.4597    0.4932 C   0  0  2  0  0  0  0  0  0  0  0  0
   -6.8292    0.7680    1.4809 O   0  0  0  0  0  0  0  0  0  0  0  0
   -1.8041   -0.2558    1.2300 C   0  0  1  0  0  0  0  0  0  0  0  0
   -1.3994    1.0710    1.4731 O   0  0  0  0  0  0  0  0  0  0  0  0
    7.5705   -3.5027    0.9789 H   0  0  0  0  0  0  0  0  0  0  0  0
    7.5872   -1.7350    1.3399 H   0  0  0  0  0  0  0  0  0  0  0  0
    7.2911   -2.3179   -0.3560 H   0  0  0  0  0  0  0  0  0  0  0  0
    1.3039   -3.8650    1.9627 H   0  0  0  0  0  0  0  0  0  0  0  0
    2.1114   -4.1505    0.3966 H   0  0  0  0  0  0  0  0  0  0  0  0
    0.6682   -0.1062    1.1532 H   0  0  0  0  0  0  0  0  0  0  0  0
    1.3382   -0.0507    3.4461 H   0  0  0  0  0  0  0  0  0  0  0  0
    2.0482   -1.8022    4.5068 H   0  0  0  0  0  0  0  0  0  0  0  0
    3.8064   -0.8024    3.1389 H   0  0  0  0  0  0  0  0  0  0  0  0
    3.2588    1.2435    2.6362 H   0  0  0  0  0  0  0  0  0  0  0  0
   -0.6392   -2.0194    4.0556 H   0  0  0  0  0  0  0  0  0  0  0  0
   -2.2301   -1.3668    3.7738 H   0  0  0  0  0  0  0  0  0  0  0  0
   -0.8624   -0.2367    3.9156 H   0  0  0  0  0  0  0  0  0  0  0  0
   -0.8522   -3.4369    2.0975 H   0  0  0  0  0  0  0  0  0  0  0  0
   -1.8361   -2.7423   -0.7430 H   0  0  0  0  0  0  0  0  0  0  0  0
   -0.9808   -4.1571   -0.0920 H   0  0  0  0  0  0  0  0  0  0  0  0
    0.7098   -3.1539   -1.2993 H   0  0  0  0  0  0  0  0  0  0  0  0
    2.1659    0.6289   -0.2048 H   0  0  0  0  0  0  0  0  0  0  0  0
    4.5281    0.9086   -3.9846 H   0  0  0  0  0  0  0  0  0  0  0  0
    5.7934    0.3854   -2.8266 H   0  0  0  0  0  0  0  0  0  0  0  0
    6.4686    2.3834   -4.0767 H   0  0  0  0  0  0  0  0  0  0  0  0
    5.9558    3.1362   -1.1218 H   0  0  0  0  0  0  0  0  0  0  0  0
    7.1542    3.8702   -2.2362 H   0  0  0  0  0  0  0  0  0  0  0  0
    7.3194    2.1434   -1.7595 H   0  0  0  0  0  0  0  0  0  0  0  0
    4.0512    3.8759   -2.8547 H   0  0  0  0  0  0  0  0  0  0  0  0
    4.2361    3.3484   -4.5681 H   0  0  0  0  0  0  0  0  0  0  0  0
    5.3528    4.5745   -3.8735 H   0  0  0  0  0  0  0  0  0  0  0  0
    2.8717   -2.3046   -0.8374 H   0  0  0  0  0  0  0  0  0  0  0  0
   -2.6344   -5.0740    1.6112 H   0  0  0  0  0  0  0  0  0  0  0  0
   -4.1385   -4.4842    0.8122 H   0  0  0  0  0  0  0  0  0  0  0  0
   -3.9956   -4.4551    2.6168 H   0  0  0  0  0  0  0  0  0  0  0  0
   -4.8057   -2.0682    1.7514 H   0  0  0  0  0  0  0  0  0  0  0  0
   -3.5615   -0.0258    2.5437 H   0  0  0  0  0  0  0  0  0  0  0  0
   -4.5284    1.7108    1.9061 H   0  0  0  0  0  0  0  0  0  0  0  0
   -3.7157    3.8380   -1.3481 H   0  0  0  0  0  0  0  0  0  0  0  0
   -4.7008    0.9962   -1.9709 H   0  0  0  0  0  0  0  0  0  0  0  0
   -3.0710    1.6563   -2.1849 H   0  0  0  0  0  0  0  0  0  0  0  0
   -5.3644    2.1212   -3.6560 H   0  0  0  0  0  0  0  0  0  0  0  0
   -6.3499    3.2544   -1.8002 H   0  0  0  0  0  0  0  0  0  0  0  0
   -5.2759    5.1871   -0.0056 H   0  0  0  0  0  0  0  0  0  0  0  0
   -6.2462    3.4336    1.2796 H   0  0  0  0  0  0  0  0  0  0  0  0
   -8.2272    2.4551   -0.5430 H   0  0  0  0  0  0  0  0  0  0  0  0
   -6.3062    0.9577   -0.4756 H   0  0  0  0  0  0  0  0  0  0  0  0
   -6.7733    1.2922    2.3225 H   0  0  0  0  0  0  0  0  0  0  0  0
   -1.6864   -0.4258    0.1443 H   0  0  0  0  0  0  0  0  0  0  0  0
   -1.6265    1.2961    2.4112 H   0  0  0  0  0  0  0  0  0  0  0  0
  1  2  1  0  0  0  0
  1 49  1  0  0  0  0
  1 50  1  0  0  0  0
  1 51  1  0  0  0  0
  2  3  1  0  0  0  0
  3  4  2  0  0  0  0
  5  3  1  6  0  0  0
  5  6  1  0  0  0  0
  6  7  1  0  0  0  0
  7 52  1  0  0  0  0
  7 53  1  0  0  0  0
  8  7  1  1  0  0  0
  8  9  1  0  0  0  0
  9 10  1  0  0  0  0
  9 14  1  0  0  0  0
  9 54  1  6  0  0  0
 10 11  1  0  0  0  0
 10 12  1  0  0  0  0
 10 55  1  1  0  0  0
 11 56  1  0  0  0  0
 12 13  1  0  0  0  0
 12  5  1  0  0  0  0
 12 57  1  1  0  0  0
 13 58  1  0  0  0  0
 14 15  1  1  0  0  0
 14 16  1  0  0  0  0
 15 59  1  0  0  0  0
 15 60  1  0  0  0  0
 15 61  1  0  0  0  0
 16 17  1  0  0  0  0
 16 31  1  0  0  0  0
 16 62  1  1  0  0  0
 17 63  1  0  0  0  0
 17 64  1  0  0  0  0
 18 17  1  0  0  0  0
 18 19  1  0  0  0  0
 18  8  1  0  0  0  0
 18 65  1  6  0  0  0
 19 20  1  0  0  0  0
 20 21  2  0  0  0  0
 20 22  1  0  0  0  0
 22 23  1  0  0  0  0
 22 66  1  1  0  0  0
 23 24  1  0  0  0  0
 24 25  2  0  0  0  0
 24 26  1  0  0  0  0
 26 27  1  0  0  0  0
 26 67  1  0  0  0  0
 26 68  1  0  0  0  0
 27 28  1  0  0  0  0
 27 29  1  0  0  0  0
 27 69  1  0  0  0  0
 28 70  1  0  0  0  0
 28 71  1  0  0  0  0
 28 72  1  0  0  0  0
 29 73  1  0  0  0  0
 29 74  1  0  0  0  0
 29 75  1  0  0  0  0
 30 22  1  0  0  0  0
 30  5  1  0  0  0  0
 30  8  1  0  0  0  0
 30 76  1  6  0  0  0
 31 32  1  0  0  0  0
 31 33  2  0  0  0  0
 32 77  1  0  0  0  0
 32 78  1  0  0  0  0
 32 79  1  0  0  0  0
 33 34  1  0  0  0  0
 33 80  1  0  0  0  0
 34 35  1  0  0  0  0
 34 47  1  0  0  0  0
 34 81  1  1  0  0  0
 36 35  1  0  0  0  0
 36 37  1  0  0  0  0
 36 82  1  1  0  0  0
 37 38  1  0  0  0  0
 38 39  1  0  0  0  0
 38 41  1  0  0  0  0
 38 83  1  6  0  0  0
 39 40  1  0  0  0  0
 39 84  1  0  0  0  0
 39 85  1  0  0  0  0
 40 86  1  0  0  0  0
 41 42  1  0  0  0  0
 41 43  1  0  0  0  0
 41 87  1  6  0  0  0
 42 88  1  0  0  0  0
 43 44  1  0  0  0  0
 43 45  1  0  0  0  0
 43 89  1  1  0  0  0
 44 90  1  0  0  0  0
 45 46  1  0  0  0  0
 45 36  1  0  0  0  0
 45 91  1  6  0  0  0
 46 92  1  0  0  0  0
 47 48  1  0  0  0  0
 47 14  1  0  0  0  0
 47 93  1  6  0  0  0
 48 94  1  0  0  0  0
M  END
>  <IDENTIFIER>
CNP0286506.2

>  <Energy>
1246.96

$$$$
