
 OpenBabel09102513163D

 81 85  0  0  0  0  0  0  0  0999 V2000
    6.0683   -0.8642   -2.1245 C   0  0  0  0  0  0  0  0  0  0  0  0
    5.1495   -1.1635   -0.9221 C   0  0  1  0  0  0  0  0  0  0  0  0
    5.9986   -1.3797    0.3563 C   0  0  1  0  0  0  0  0  0  0  0  0
    6.6833   -0.2126    0.7350 O   0  0  0  0  0  0  0  0  0  0  0  0
    5.0988   -1.8500    1.4997 C   0  0  0  0  0  0  0  0  0  0  0  0
    3.9799   -0.8450    1.7695 C   0  0  0  0  0  0  0  0  0  0  0  0
    3.0959   -0.6152    0.5040 C   0  0  2  0  0  0  0  0  0  0  0  0
    3.9530   -0.1370   -0.7159 C   0  0  1  0  0  0  0  0  0  0  0  0
    4.4616    1.3244   -0.5709 C   0  0  0  0  0  0  0  0  0  0  0  0
    3.0398   -0.1972   -1.9604 C   0  0  0  0  0  0  0  0  0  0  0  0
    1.6595    0.3689   -1.7644 C   0  0  0  0  0  0  0  0  0  0  0  0
    1.0395    0.5998   -0.5650 C   0  0  0  0  0  0  0  0  0  0  0  0
    1.7691    0.2327    0.7824 C   0  0  2  0  0  0  0  0  0  0  0  0
    2.0888    1.4746    1.6846 C   0  0  0  0  0  0  0  0  0  0  0  0
    0.8057   -0.6951    1.5955 C   0  0  0  0  0  0  0  0  0  0  0  0
   -0.6671   -0.2263    1.6302 C   0  0  0  0  0  0  0  0  0  0  0  0
   -1.2951   -0.0363    0.1990 C   0  0  1  0  0  0  0  0  0  0  0  0
   -1.1275   -1.4067   -0.5776 C   0  0  0  0  0  0  0  0  0  0  0  0
   -2.8560    0.3461    0.3485 C   0  0  2  0  0  0  0  0  0  0  0  0
   -3.6665   -0.9688    0.7319 C   0  0  0  0  0  0  0  0  0  0  0  0
   -5.2060   -0.9169    0.6990 C   0  0  0  0  0  0  0  0  0  0  0  0
   -5.7560   -2.3657    0.7898 C   0  0  0  0  0  0  0  0  0  0  0  0
   -5.7251   -0.1647    1.9452 C   0  0  0  0  0  0  0  0  0  0  0  0
   -5.6925   -0.2967   -0.6602 C   0  0  0  0  0  0  0  0  0  0  0  0
   -4.5438    0.1615   -1.6119 C   0  0  0  0  0  0  0  0  0  0  0  0
   -3.5466    1.1126   -0.8931 C   0  0  1  0  0  0  0  0  0  0  0  0
   -4.3881    2.3344   -0.3778 C   0  0  0  0  0  0  0  0  0  0  0  0
   -2.5488    1.7648   -1.9288 C   0  0  0  0  0  0  0  0  0  0  0  0
   -1.1148    1.2237   -1.9821 C   0  0  0  0  0  0  0  0  0  0  0  0
   -0.4658    1.0831   -0.5539 C   0  0  2  0  0  0  0  0  0  0  0  0
   -0.5449    2.4991    0.1034 C   0  0  0  0  0  0  0  0  0  0  0  0
    6.8139   -1.6814   -2.2337 H   0  0  0  0  0  0  0  0  0  0  0  0
    6.6258    0.0836   -1.9953 H   0  0  0  0  0  0  0  0  0  0  0  0
    5.4904   -0.8247   -3.0690 H   0  0  0  0  0  0  0  0  0  0  0  0
    4.6901   -2.1556   -1.1405 H   0  0  0  0  0  0  0  0  0  0  0  0
    6.7365   -2.2005    0.1833 H   0  0  0  0  0  0  0  0  0  0  0  0
    7.5596   -0.2214    0.2694 H   0  0  0  0  0  0  0  0  0  0  0  0
    5.7053   -1.9931    2.4217 H   0  0  0  0  0  0  0  0  0  0  0  0
    4.6441   -2.8303    1.2366 H   0  0  0  0  0  0  0  0  0  0  0  0
    4.4517    0.0996    2.1098 H   0  0  0  0  0  0  0  0  0  0  0  0
    3.3704   -1.2491    2.6031 H   0  0  0  0  0  0  0  0  0  0  0  0
    2.7484   -1.6283    0.1917 H   0  0  0  0  0  0  0  0  0  0  0  0
    3.6278    2.0445   -0.6275 H   0  0  0  0  0  0  0  0  0  0  0  0
    5.1082    1.6061   -1.4252 H   0  0  0  0  0  0  0  0  0  0  0  0
    5.0265    1.4970    0.3629 H   0  0  0  0  0  0  0  0  0  0  0  0
    2.8729   -1.2470   -2.2852 H   0  0  0  0  0  0  0  0  0  0  0  0
    3.5316    0.3269   -2.8091 H   0  0  0  0  0  0  0  0  0  0  0  0
    1.1454    0.5185   -2.7004 H   0  0  0  0  0  0  0  0  0  0  0  0
    1.2314    1.9072    2.1947 H   0  0  0  0  0  0  0  0  0  0  0  0
    2.6338    2.2861    1.1805 H   0  0  0  0  0  0  0  0  0  0  0  0
    2.6684    1.1874    2.5796 H   0  0  0  0  0  0  0  0  0  0  0  0
    1.1689   -0.8328    2.6358 H   0  0  0  0  0  0  0  0  0  0  0  0
    0.7936   -1.7117    1.1545 H   0  0  0  0  0  0  0  0  0  0  0  0
   -0.7512    0.7081    2.2181 H   0  0  0  0  0  0  0  0  0  0  0  0
   -1.2264   -0.9924    2.2012 H   0  0  0  0  0  0  0  0  0  0  0  0
   -1.4383   -2.2684    0.0493 H   0  0  0  0  0  0  0  0  0  0  0  0
   -0.0826   -1.6412   -0.8554 H   0  0  0  0  0  0  0  0  0  0  0  0
   -1.7180   -1.4504   -1.5117 H   0  0  0  0  0  0  0  0  0  0  0  0
   -2.9019    1.0701    1.1906 H   0  0  0  0  0  0  0  0  0  0  0  0
   -3.3153   -1.4044    1.6888 H   0  0  0  0  0  0  0  0  0  0  0  0
   -3.4716   -1.7214   -0.0500 H   0  0  0  0  0  0  0  0  0  0  0  0
   -5.4029   -2.8744    1.7122 H   0  0  0  0  0  0  0  0  0  0  0  0
   -5.4201   -2.9713   -0.0822 H   0  0  0  0  0  0  0  0  0  0  0  0
   -6.8675   -2.3658    0.7901 H   0  0  0  0  0  0  0  0  0  0  0  0
   -5.4107   -0.7024    2.8676 H   0  0  0  0  0  0  0  0  0  0  0  0
   -6.8349   -0.1188    1.9403 H   0  0  0  0  0  0  0  0  0  0  0  0
   -5.3205    0.8552    2.0388 H   0  0  0  0  0  0  0  0  0  0  0  0
   -6.3916    0.5395   -0.4535 H   0  0  0  0  0  0  0  0  0  0  0  0
   -6.3258   -1.0089   -1.2334 H   0  0  0  0  0  0  0  0  0  0  0  0
   -5.0167    0.6708   -2.4810 H   0  0  0  0  0  0  0  0  0  0  0  0
   -3.9960   -0.7167   -2.0112 H   0  0  0  0  0  0  0  0  0  0  0  0
   -4.8957    2.8479   -1.2232 H   0  0  0  0  0  0  0  0  0  0  0  0
   -3.7497    3.0845    0.1306 H   0  0  0  0  0  0  0  0  0  0  0  0
   -5.1603    2.0921    0.3585 H   0  0  0  0  0  0  0  0  0  0  0  0
   -2.4187    2.8443   -1.7098 H   0  0  0  0  0  0  0  0  0  0  0  0
   -2.9963    1.8104   -2.9457 H   0  0  0  0  0  0  0  0  0  0  0  0
   -0.5322    1.9387   -2.6047 H   0  0  0  0  0  0  0  0  0  0  0  0
   -1.1149    0.2721   -2.5412 H   0  0  0  0  0  0  0  0  0  0  0  0
    0.0748    3.2196   -0.4702 H   0  0  0  0  0  0  0  0  0  0  0  0
   -0.2730    2.5657    1.1429 H   0  0  0  0  0  0  0  0  0  0  0  0
   -1.5604    2.8998    0.1756 H   0  0  0  0  0  0  0  0  0  0  0  0
  1 32  1  0  0  0  0
  1 33  1  0  0  0  0
  1 34  1  0  0  0  0
  2  1  1  0  0  0  0
  2  3  1  0  0  0  0
  2 35  1  6  0  0  0
  3  4  1  0  0  0  0
  3  5  1  0  0  0  0
  3 36  1  6  0  0  0
  4 37  1  0  0  0  0
  5  6  1  0  0  0  0
  5 38  1  0  0  0  0
  5 39  1  0  0  0  0
  6 40  1  0  0  0  0
  6 41  1  0  0  0  0
  7  6  1  0  0  0  0
  7  8  1  0  0  0  0
  7 42  1  6  0  0  0
  8  9  1  1  0  0  0
  8 10  1  0  0  0  0
  8  2  1  0  0  0  0
  9 43  1  0  0  0  0
  9 44  1  0  0  0  0
  9 45  1  0  0  0  0
 10 11  1  0  0  0  0
 10 46  1  0  0  0  0
 10 47  1  0  0  0  0
 11 12  2  0  0  0  0
 11 48  1  0  0  0  0
 12 13  1  0  0  0  0
 13 14  1  1  0  0  0
 13 15  1  0  0  0  0
 13  7  1  0  0  0  0
 14 49  1  0  0  0  0
 14 50  1  0  0  0  0
 14 51  1  0  0  0  0
 15 16  1  0  0  0  0
 15 52  1  0  0  0  0
 15 53  1  0  0  0  0
 16 17  1  0  0  0  0
 16 54  1  0  0  0  0
 16 55  1  0  0  0  0
 17 18  1  6  0  0  0
 17 19  1  0  0  0  0
 18 56  1  0  0  0  0
 18 57  1  0  0  0  0
 18 58  1  0  0  0  0
 19 20  1  0  0  0  0
 19 59  1  1  0  0  0
 20 21  1  0  0  0  0
 20 60  1  0  0  0  0
 20 61  1  0  0  0  0
 21 22  1  0  0  0  0
 21 23  1  0  0  0  0
 21 24  1  0  0  0  0
 22 62  1  0  0  0  0
 22 63  1  0  0  0  0
 22 64  1  0  0  0  0
 23 65  1  0  0  0  0
 23 66  1  0  0  0  0
 23 67  1  0  0  0  0
 24 25  1  0  0  0  0
 24 68  1  0  0  0  0
 24 69  1  0  0  0  0
 25 26  1  0  0  0  0
 25 70  1  0  0  0  0
 25 71  1  0  0  0  0
 26 27  1  1  0  0  0
 26 28  1  0  0  0  0
 26 19  1  0  0  0  0
 27 72  1  0  0  0  0
 27 73  1  0  0  0  0
 27 74  1  0  0  0  0
 28 29  1  0  0  0  0
 28 75  1  0  0  0  0
 28 76  1  0  0  0  0
 29 30  1  0  0  0  0
 29 77  1  0  0  0  0
 29 78  1  0  0  0  0
 30 31  1  1  0  0  0
 30 12  1  0  0  0  0
 30 17  1  0  0  0  0
 31 79  1  0  0  0  0
 31 80  1  0  0  0  0
 31 81  1  0  0  0  0
M  END
>  <IDENTIFIER>
CNP0218689.1

>  <Energy>
1019.12

$$$$
