
 OpenBabel09132507493D

 37 39  0  0  0  0  0  0  0  0999 V2000
    3.6328   -1.4681   -0.7453 C   0  0  0  0  0  0  0  0  0  0  0  0
    2.9992   -0.3548   -0.3546 C   0  0  0  0  0  0  0  0  0  0  0  0
    3.6048    0.7744    0.3079 C   0  0  0  0  0  0  0  0  0  0  0  0
    4.7786    0.8612    0.6310 O   0  0  0  0  0  0  0  0  0  0  0  0
    2.7102    1.7432    0.5250 O   0  0  0  0  0  0  0  0  0  0  0  0
    1.4825    1.4334   -0.0346 C   0  0  2  0  0  0  0  0  0  0  0  0
    0.3409    1.8763    0.8924 C   0  0  0  0  0  0  0  0  0  0  0  0
   -1.0774    1.5881    0.3611 C   0  0  1  0  0  0  0  0  0  0  0  0
   -1.2211    1.9978   -1.1261 C   0  0  0  0  0  0  0  0  0  0  0  0
   -1.5977    0.1593    0.7795 C   0  0  1  0  0  0  0  0  0  0  0  0
   -2.9912   -0.0710    0.1464 C   0  0  0  0  0  0  0  0  0  0  0  0
   -2.6233   -0.7307   -1.1487 C   0  0  0  0  0  0  0  0  0  0  0  0
   -1.3503   -1.2752   -1.0780 C   0  0  0  0  0  0  0  0  0  0  0  0
   -0.7985   -1.0865    0.2996 C   0  0  2  0  0  0  0  0  0  0  0  0
   -1.2343   -2.3275    1.1377 C   0  0  0  0  0  0  0  0  0  0  0  0
    0.7560   -1.0573    0.4037 C   0  0  0  0  0  0  0  0  0  0  0  0
    1.5310   -0.0622   -0.4798 C   0  0  2  0  0  0  0  0  0  0  0  0
    4.7012   -1.5805   -0.5890 H   0  0  0  0  0  0  0  0  0  0  0  0
    3.0886   -2.2738   -1.2269 H   0  0  0  0  0  0  0  0  0  0  0  0
    1.4330    2.0450   -0.9631 H   0  0  0  0  0  0  0  0  0  0  0  0
    0.4536    2.9797    0.9866 H   0  0  0  0  0  0  0  0  0  0  0  0
    0.4554    1.4551    1.9148 H   0  0  0  0  0  0  0  0  0  0  0  0
   -1.7471    2.2812    0.9205 H   0  0  0  0  0  0  0  0  0  0  0  0
   -0.6356    1.3379   -1.7955 H   0  0  0  0  0  0  0  0  0  0  0  0
   -0.8732    3.0440   -1.2626 H   0  0  0  0  0  0  0  0  0  0  0  0
   -2.2772    1.9731   -1.4596 H   0  0  0  0  0  0  0  0  0  0  0  0
   -1.6416    0.1935    1.8919 H   0  0  0  0  0  0  0  0  0  0  0  0
   -3.5706    0.8713    0.0501 H   0  0  0  0  0  0  0  0  0  0  0  0
   -3.6202   -0.7859    0.7150 H   0  0  0  0  0  0  0  0  0  0  0  0
   -3.2777   -0.8365   -2.0033 H   0  0  0  0  0  0  0  0  0  0  0  0
   -0.8989   -1.8605   -1.8683 H   0  0  0  0  0  0  0  0  0  0  0  0
   -0.7601   -3.2551    0.7486 H   0  0  0  0  0  0  0  0  0  0  0  0
   -2.3267   -2.5110    1.1224 H   0  0  0  0  0  0  0  0  0  0  0  0
   -0.9306   -2.2027    2.1996 H   0  0  0  0  0  0  0  0  0  0  0  0
    1.0936   -2.0679    0.0817 H   0  0  0  0  0  0  0  0  0  0  0  0
    1.0647   -0.9302    1.4656 H   0  0  0  0  0  0  0  0  0  0  0  0
    1.2057   -0.1651   -1.5379 H   0  0  0  0  0  0  0  0  0  0  0  0
  1  2  2  0  0  0  0
  1 18  1  0  0  0  0
  1 19  1  0  0  0  0
  2  3  1  0  0  0  0
  3  4  2  0  0  0  0
  3  5  1  0  0  0  0
  5  6  1  0  0  0  0
  6  7  1  0  0  0  0
  6 20  1  6  0  0  0
  7  8  1  0  0  0  0
  7 21  1  0  0  0  0
  7 22  1  0  0  0  0
  8  9  1  0  0  0  0
  8 10  1  0  0  0  0
  8 23  1  1  0  0  0
  9 24  1  0  0  0  0
  9 25  1  0  0  0  0
  9 26  1  0  0  0  0
 10 11  1  0  0  0  0
 10 27  1  1  0  0  0
 11 12  1  0  0  0  0
 11 28  1  0  0  0  0
 11 29  1  0  0  0  0
 12 13  2  0  0  0  0
 12 30  1  0  0  0  0
 13 14  1  0  0  0  0
 13 31  1  0  0  0  0
 14 15  1  1  0  0  0
 14 16  1  0  0  0  0
 14 10  1  0  0  0  0
 15 32  1  0  0  0  0
 15 33  1  0  0  0  0
 15 34  1  0  0  0  0
 16 35  1  0  0  0  0
 16 36  1  0  0  0  0
 17 16  1  0  0  0  0
 17  2  1  0  0  0  0
 17  6  1  0  0  0  0
 17 37  1  6  0  0  0
M  END
>  <IDENTIFIER>
CNP0528254.0

>  <Energy>
507.107

$$$$
