
 OpenBabel09102514583D

 62 63  0  0  0  0  0  0  0  0999 V2000
    1.1822    2.5691   -0.4709 C   0  0  0  0  0  0  0  0  0  0  0  0
    1.1502    1.4366    0.5569 C   0  0  1  0  0  0  0  0  0  0  0  0
   -0.1416    0.6361    0.5909 C   0  0  0  0  0  0  0  0  0  0  0  0
   -1.1312    0.7181   -0.3286 C   0  0  0  0  0  0  0  0  0  0  0  0
   -2.4768   -0.0209   -0.2923 C   0  0  2  0  0  0  0  0  0  0  0  0
   -3.6579    1.0536   -0.1458 C   0  0  0  0  0  0  0  0  0  0  0  0
   -4.0262    1.5571   -1.5658 C   0  0  0  0  0  0  0  0  0  0  0  0
   -3.2589    2.2979    0.6957 C   0  0  0  0  0  0  0  0  0  0  0  0
   -4.9249    0.4605    0.5624 C   0  0  0  0  0  0  0  0  0  0  0  0
   -5.2079   -0.9553    0.0890 C   0  0  2  0  0  0  0  0  0  0  0  0
   -6.4384   -1.4384    0.5684 O   0  0  0  0  0  0  0  0  0  0  0  0
   -4.0500   -1.9159    0.4754 C   0  0  1  0  0  0  0  0  0  0  0  0
   -4.0099   -2.9584   -0.4718 O   0  0  0  0  0  0  0  0  0  0  0  0
   -2.6384   -1.2193    0.7061 C   0  0  1  0  0  0  0  0  0  0  0  0
   -1.5375   -2.3100    0.5321 C   0  0  0  0  0  0  0  0  0  0  0  0
   -2.5743   -0.6877    2.0124 O   0  0  0  0  0  0  0  0  0  0  0  0
    2.2207    0.5521    0.2685 O   0  0  0  0  0  0  0  0  0  0  0  0
    3.0914    0.3009    1.3642 C   0  0  2  0  0  0  0  0  0  0  0  0
    4.3689    0.9004    1.0996 O   0  0  0  0  0  0  0  0  0  0  0  0
    5.3499    0.0374    0.5029 C   0  0  2  0  0  0  0  0  0  0  0  0
    6.3621    0.9120   -0.2532 C   0  0  0  0  0  0  0  0  0  0  0  0
    5.7354    1.6521   -1.2670 O   0  0  0  0  0  0  0  0  0  0  0  0
    4.7058   -1.0196   -0.4311 C   0  0  1  0  0  0  0  0  0  0  0  0
    5.6476   -1.7807   -1.1452 O   0  0  0  0  0  0  0  0  0  0  0  0
    3.7492   -1.9407    0.3674 C   0  0  2  0  0  0  0  0  0  0  0  0
    2.7378   -2.4353   -0.4759 O   0  0  0  0  0  0  0  0  0  0  0  0
    3.1859   -1.2201    1.6191 C   0  0  1  0  0  0  0  0  0  0  0  0
    4.0685   -1.4354    2.6954 O   0  0  0  0  0  0  0  0  0  0  0  0
    0.3471    3.2787   -0.2820 H   0  0  0  0  0  0  0  0  0  0  0  0
    1.1135    2.1731   -1.5052 H   0  0  0  0  0  0  0  0  0  0  0  0
    2.1381    3.1268   -0.3734 H   0  0  0  0  0  0  0  0  0  0  0  0
    1.2303    1.9568    1.5393 H   0  0  0  0  0  0  0  0  0  0  0  0
   -0.2371   -0.0153    1.4461 H   0  0  0  0  0  0  0  0  0  0  0  0
   -1.0147    1.3986   -1.1620 H   0  0  0  0  0  0  0  0  0  0  0  0
   -2.5730   -0.5275   -1.2782 H   0  0  0  0  0  0  0  0  0  0  0  0
   -3.1530    2.0381   -2.0549 H   0  0  0  0  0  0  0  0  0  0  0  0
   -4.8490    2.3025   -1.5236 H   0  0  0  0  0  0  0  0  0  0  0  0
   -4.3561    0.7266   -2.2235 H   0  0  0  0  0  0  0  0  0  0  0  0
   -2.4254    2.8638    0.2282 H   0  0  0  0  0  0  0  0  0  0  0  0
   -2.9503    2.0018    1.7200 H   0  0  0  0  0  0  0  0  0  0  0  0
   -4.1135    3.0048    0.7761 H   0  0  0  0  0  0  0  0  0  0  0  0
   -5.7988    1.1275    0.3912 H   0  0  0  0  0  0  0  0  0  0  0  0
   -4.7788    0.4070    1.6637 H   0  0  0  0  0  0  0  0  0  0  0  0
   -5.2925   -0.8893   -1.0145 H   0  0  0  0  0  0  0  0  0  0  0  0
   -6.4191   -1.3758    1.5599 H   0  0  0  0  0  0  0  0  0  0  0  0
   -4.2899   -2.4000    1.4465 H   0  0  0  0  0  0  0  0  0  0  0  0
   -3.7619   -2.5611   -1.3469 H   0  0  0  0  0  0  0  0  0  0  0  0
   -1.7251   -3.1513    1.2334 H   0  0  0  0  0  0  0  0  0  0  0  0
   -0.5101   -1.9645    0.7204 H   0  0  0  0  0  0  0  0  0  0  0  0
   -1.5400   -2.7144   -0.5015 H   0  0  0  0  0  0  0  0  0  0  0  0
   -2.6342   -1.4388    2.6585 H   0  0  0  0  0  0  0  0  0  0  0  0
    2.7255    0.7290    2.3235 H   0  0  0  0  0  0  0  0  0  0  0  0
    5.9212   -0.4802    1.3043 H   0  0  0  0  0  0  0  0  0  0  0  0
    7.1923    0.2913   -0.6647 H   0  0  0  0  0  0  0  0  0  0  0  0
    6.8340    1.6237    0.4580 H   0  0  0  0  0  0  0  0  0  0  0  0
    5.8350    1.1325   -2.1073 H   0  0  0  0  0  0  0  0  0  0  0  0
    4.1141   -0.4336   -1.1676 H   0  0  0  0  0  0  0  0  0  0  0  0
    6.2527   -2.2001   -0.4788 H   0  0  0  0  0  0  0  0  0  0  0  0
    4.2950   -2.8283    0.7560 H   0  0  0  0  0  0  0  0  0  0  0  0
    2.1530   -1.6792   -0.7387 H   0  0  0  0  0  0  0  0  0  0  0  0
    2.2047   -1.6763    1.8860 H   0  0  0  0  0  0  0  0  0  0  0  0
    3.6372   -1.0693    3.5110 H   0  0  0  0  0  0  0  0  0  0  0  0
  1 29  1  0  0  0  0
  1 30  1  0  0  0  0
  1 31  1  0  0  0  0
  2  1  1  0  0  0  0
  2  3  1  0  0  0  0
  2 17  1  0  0  0  0
  2 32  1  1  0  0  0
  3  4  2  0  0  0  0
  3 33  1  0  0  0  0
  4 34  1  0  0  0  0
  5  4  1  0  0  0  0
  5  6  1  0  0  0  0
  5 35  1  6  0  0  0
  6  7  1  0  0  0  0
  6  8  1  0  0  0  0
  6  9  1  0  0  0  0
  7 36  1  0  0  0  0
  7 37  1  0  0  0  0
  7 38  1  0  0  0  0
  8 39  1  0  0  0  0
  8 40  1  0  0  0  0
  8 41  1  0  0  0  0
  9 10  1  0  0  0  0
  9 42  1  0  0  0  0
  9 43  1  0  0  0  0
 10 11  1  0  0  0  0
 10 12  1  0  0  0  0
 10 44  1  6  0  0  0
 11 45  1  0  0  0  0
 12 13  1  0  0  0  0
 12 14  1  0  0  0  0
 12 46  1  1  0  0  0
 13 47  1  0  0  0  0
 14 15  1  0  0  0  0
 14 16  1  1  0  0  0
 14  5  1  0  0  0  0
 15 48  1  0  0  0  0
 15 49  1  0  0  0  0
 15 50  1  0  0  0  0
 16 51  1  0  0  0  0
 18 17  1  0  0  0  0
 18 19  1  0  0  0  0
 18 52  1  1  0  0  0
 19 20  1  0  0  0  0
 20 21  1  0  0  0  0
 20 23  1  0  0  0  0
 20 53  1  1  0  0  0
 21 22  1  0  0  0  0
 21 54  1  0  0  0  0
 21 55  1  0  0  0  0
 22 56  1  0  0  0  0
 23 24  1  0  0  0  0
 23 25  1  0  0  0  0
 23 57  1  6  0  0  0
 24 58  1  0  0  0  0
 25 26  1  0  0  0  0
 25 27  1  0  0  0  0
 25 59  1  1  0  0  0
 26 60  1  0  0  0  0
 27 28  1  0  0  0  0
 27 18  1  0  0  0  0
 27 61  1  1  0  0  0
 28 62  1  0  0  0  0
M  END
>  <IDENTIFIER>
CNP0302798.4

>  <Energy>
762.757

$$$$
