
 OpenBabel09092506113D

 58 60  0  0  0  0  0  0  0  0999 V2000
    1.4874   -3.9622    0.3231 C   0  0  0  0  0  0  0  0  0  0  0  0
    1.6355   -2.7041    0.7570 C   0  0  0  0  0  0  0  0  0  0  0  0
    2.2784   -2.3011    1.9782 C   0  0  0  0  0  0  0  0  0  0  0  0
    2.7676   -3.0575    2.8018 O   0  0  0  0  0  0  0  0  0  0  0  0
    2.3193   -0.9685    2.0938 O   0  0  0  0  0  0  0  0  0  0  0  0
    1.6341   -0.2990    1.0870 C   0  0  2  0  0  0  0  0  0  0  0  0
    1.2647   -1.4467    0.0404 C   0  0  2  0  0  0  0  0  0  0  0  0
   -0.1462   -1.4163   -0.5647 C   0  0  0  0  0  0  0  0  0  0  0  0
   -1.3439   -1.6556    0.4030 C   0  0  2  0  0  0  0  0  0  0  0  0
   -1.3814   -2.9651    0.9111 O   0  0  0  0  0  0  0  0  0  0  0  0
   -2.6973   -1.2462   -0.2706 C   0  0  1  0  0  0  0  0  0  0  0  0
   -3.0943   -2.1237   -1.4721 C   0  0  0  0  0  0  0  0  0  0  0  0
   -3.8808   -1.1679    0.7381 C   0  0  0  0  0  0  0  0  0  0  0  0
   -4.4255    0.2283    0.4664 C   0  0  0  0  0  0  0  0  0  0  0  0
   -3.0940    0.8940    0.2063 C   0  0  1  0  0  0  0  0  0  0  0  0
   -2.5010    0.0636   -0.7443 O   0  0  0  0  0  0  0  0  0  0  0  0
   -2.9464    2.3126   -0.2602 C   0  0  0  0  0  0  0  0  0  0  0  0
   -3.9831    3.1598   -0.3354 C   0  0  0  0  0  0  0  0  0  0  0  0
   -1.5303    2.7405   -0.6522 C   0  0  0  0  0  0  0  0  0  0  0  0
   -0.4868    2.4201    0.4466 C   0  0  0  0  0  0  0  0  0  0  0  0
    0.8841    2.8870    0.0518 C   0  0  0  0  0  0  0  0  0  0  0  0
    2.1043    2.2628    0.0728 C   0  0  0  0  0  0  0  0  0  0  0  0
    3.2756    3.1344   -0.3643 C   0  0  0  0  0  0  0  0  0  0  0  0
    2.5632    0.8492    0.5374 C   0  0  2  0  0  0  0  0  0  0  0  0
    3.3656    0.3140   -0.4590 O   0  0  0  0  0  0  0  0  0  0  0  0
    4.6922    0.0447   -0.3945 C   0  0  0  0  0  0  0  0  0  0  0  0
    5.3700   -0.5390   -1.5922 C   0  0  0  0  0  0  0  0  0  0  0  0
    5.3375    0.2664    0.6207 O   0  0  0  0  0  0  0  0  0  0  0  0
    1.8320   -4.7973    0.9243 H   0  0  0  0  0  0  0  0  0  0  0  0
    1.0234   -4.1650   -0.6358 H   0  0  0  0  0  0  0  0  0  0  0  0
    0.7806    0.1011    1.6528 H   0  0  0  0  0  0  0  0  0  0  0  0
    1.9552   -1.4359   -0.8270 H   0  0  0  0  0  0  0  0  0  0  0  0
   -0.2000   -2.1685   -1.3798 H   0  0  0  0  0  0  0  0  0  0  0  0
   -0.2175   -0.4179   -1.0429 H   0  0  0  0  0  0  0  0  0  0  0  0
   -1.1881   -0.9743    1.2625 H   0  0  0  0  0  0  0  0  0  0  0  0
   -1.3816   -3.5870    0.1391 H   0  0  0  0  0  0  0  0  0  0  0  0
   -3.2776   -3.1708   -1.1528 H   0  0  0  0  0  0  0  0  0  0  0  0
   -2.3048   -2.1190   -2.2510 H   0  0  0  0  0  0  0  0  0  0  0  0
   -4.0249   -1.7360   -1.9390 H   0  0  0  0  0  0  0  0  0  0  0  0
   -3.4751   -1.1469    1.7762 H   0  0  0  0  0  0  0  0  0  0  0  0
   -4.6258   -1.9914    0.6963 H   0  0  0  0  0  0  0  0  0  0  0  0
   -5.0215    0.6490    1.3036 H   0  0  0  0  0  0  0  0  0  0  0  0
   -5.0206    0.2353   -0.4744 H   0  0  0  0  0  0  0  0  0  0  0  0
   -2.5194    0.8716    1.1623 H   0  0  0  0  0  0  0  0  0  0  0  0
   -4.9846    2.8501   -0.0567 H   0  0  0  0  0  0  0  0  0  0  0  0
   -3.8427    4.1800   -0.6783 H   0  0  0  0  0  0  0  0  0  0  0  0
   -1.5105    3.8254   -0.8977 H   0  0  0  0  0  0  0  0  0  0  0  0
   -1.2346    2.1830   -1.5674 H   0  0  0  0  0  0  0  0  0  0  0  0
   -0.4770    1.3506    0.6471 H   0  0  0  0  0  0  0  0  0  0  0  0
   -0.7841    2.9691    1.3658 H   0  0  0  0  0  0  0  0  0  0  0  0
    0.8657    3.9276   -0.2636 H   0  0  0  0  0  0  0  0  0  0  0  0
    2.9866    4.1659   -0.6597 H   0  0  0  0  0  0  0  0  0  0  0  0
    3.7846    2.6821   -1.2402 H   0  0  0  0  0  0  0  0  0  0  0  0
    4.0049    3.2245    0.4685 H   0  0  0  0  0  0  0  0  0  0  0  0
    3.1875    1.1258    1.4181 H   0  0  0  0  0  0  0  0  0  0  0  0
    4.6376   -0.6739   -2.4162 H   0  0  0  0  0  0  0  0  0  0  0  0
    5.8035   -1.5281   -1.3349 H   0  0  0  0  0  0  0  0  0  0  0  0
    6.1765    0.1406   -1.9386 H   0  0  0  0  0  0  0  0  0  0  0  0
  1  2  2  0  0  0  0
  1 29  1  0  0  0  0
  1 30  1  0  0  0  0
  2  3  1  0  0  0  0
  3  4  2  0  0  0  0
  3  5  1  0  0  0  0
  6  5  1  0  0  0  0
  6  7  1  0  0  0  0
  6 31  1  1  0  0  0
  7  8  1  0  0  0  0
  7  2  1  0  0  0  0
  7 32  1  6  0  0  0
  8  9  1  0  0  0  0
  8 33  1  0  0  0  0
  8 34  1  0  0  0  0
  9 10  1  0  0  0  0
  9 11  1  0  0  0  0
  9 35  1  1  0  0  0
 10 36  1  0  0  0  0
 11 12  1  6  0  0  0
 11 13  1  0  0  0  0
 12 37  1  0  0  0  0
 12 38  1  0  0  0  0
 12 39  1  0  0  0  0
 13 14  1  0  0  0  0
 13 40  1  0  0  0  0
 13 41  1  0  0  0  0
 14 42  1  0  0  0  0
 14 43  1  0  0  0  0
 15 14  1  0  0  0  0
 15 16  1  0  0  0  0
 15 17  1  0  0  0  0
 15 44  1  1  0  0  0
 16 11  1  0  0  0  0
 17 18  2  0  0  0  0
 17 19  1  0  0  0  0
 18 45  1  0  0  0  0
 18 46  1  0  0  0  0
 19 20  1  0  0  0  0
 19 47  1  0  0  0  0
 19 48  1  0  0  0  0
 20 21  1  0  0  0  0
 20 49  1  0  0  0  0
 20 50  1  0  0  0  0
 21 22  2  0  0  0  0
 21 51  1  0  0  0  0
 22 23  1  0  0  0  0
 22 24  1  0  0  0  0
 23 52  1  0  0  0  0
 23 53  1  0  0  0  0
 23 54  1  0  0  0  0
 24 25  1  0  0  0  0
 24  6  1  0  0  0  0
 24 55  1  1  0  0  0
 25 26  1  0  0  0  0
 26 27  1  0  0  0  0
 26 28  2  0  0  0  0
 27 56  1  0  0  0  0
 27 57  1  0  0  0  0
 27 58  1  0  0  0  0
M  END
>  <IDENTIFIER>
CNP0418325.2

>  <Energy>
736.097

$$$$
