
 OpenBabel09092502163D

162170  0  0  0  0  0  0  0  0999 V2000
    8.0012   -1.9462    2.1009 C   0  0  0  0  0  0  0  0  0  0  0  0
    7.7459   -0.6848    1.2512 C   0  0  2  0  0  0  0  0  0  0  0  0
    6.5549   -0.8386    0.4868 O   0  0  0  0  0  0  0  0  0  0  0  0
    6.6649   -1.3797   -0.8330 C   0  0  1  0  0  0  0  0  0  0  0  0
    6.0826   -0.4148   -1.6978 O   0  0  0  0  0  0  0  0  0  0  0  0
    5.1095   -0.9260   -2.5974 C   0  0  1  0  0  0  0  0  0  0  0  0
    3.7003   -0.3672   -2.1983 C   0  0  2  0  0  0  0  0  0  0  0  0
    3.1329   -1.1609   -1.2210 O   0  0  0  0  0  0  0  0  0  0  0  0
    2.6989   -0.7491   -0.0059 C   0  0  0  0  0  0  0  0  0  0  0  0
    2.9371    0.3961    0.3631 O   0  0  0  0  0  0  0  0  0  0  0  0
    1.9214   -1.7357    0.8950 C   0  0  2  0  0  0  0  0  0  0  0  0
    2.9465   -2.8551    1.3254 C   0  0  0  0  0  0  0  0  0  0  0  0
    3.0123   -3.9782    0.2905 C   0  0  0  0  0  0  0  0  0  0  0  0
    1.6453   -4.7425    0.1834 C   0  0  0  0  0  0  0  0  0  0  0  0
    1.5968   -5.4122   -1.2061 C   0  0  0  0  0  0  0  0  0  0  0  0
    1.5582   -5.8543    1.2548 C   0  0  0  0  0  0  0  0  0  0  0  0
    0.4087   -3.7897    0.3731 C   0  0  0  0  0  0  0  0  0  0  0  0
    0.7439   -2.3346    0.0041 C   0  0  1  0  0  0  0  0  0  0  0  0
   -0.5028   -1.4382   -0.1287 C   0  0  0  0  0  0  0  0  0  0  0  0
   -1.2394   -1.5362   -1.2715 C   0  0  0  0  0  0  0  0  0  0  0  0
   -2.5123   -0.7617   -1.5792 C   0  0  0  0  0  0  0  0  0  0  0  0
   -3.0606    0.0564   -0.3826 C   0  0  2  0  0  0  0  0  0  0  0  0
   -4.3495    0.9698   -0.6846 C   0  0  1  0  0  0  0  0  0  0  0  0
   -4.0944    2.0118   -1.8223 C   0  0  0  0  0  0  0  0  0  0  0  0
   -5.5177    0.0410   -1.1652 C   0  0  0  0  0  0  0  0  0  0  0  0
   -6.9263    0.6856   -1.1423 C   0  0  2  0  0  0  0  0  0  0  0  0
   -7.0655    1.6961   -2.1033 O   0  0  0  0  0  0  0  0  0  0  0  0
   -7.2450    1.1857    0.2828 C   0  0  2  0  0  0  0  0  0  0  0  0
   -8.5683    1.7225    0.3272 O   0  0  0  0  0  0  0  0  0  0  0  0
   -9.5213    0.8856    0.9793 C   0  0  2  0  0  0  0  0  0  0  0  0
  -10.3719    0.1742   -0.1158 C   0  0  0  0  0  0  0  0  0  0  0  0
  -11.7113   -0.3096    0.4528 C   0  0  2  0  0  0  0  0  0  0  0  0
  -12.4796   -1.2060   -0.5347 C   0  0  0  0  0  0  0  0  0  0  0  0
  -12.7701   -0.5200   -1.7259 O   0  0  0  0  0  0  0  0  0  0  0  0
  -12.5809    0.9086    0.9141 C   0  0  1  0  0  0  0  0  0  0  0  0
  -13.4985    0.4967    1.8973 O   0  0  0  0  0  0  0  0  0  0  0  0
  -11.7519    2.1539    1.3676 C   0  0  2  0  0  0  0  0  0  0  0  0
  -11.5965    3.0430    0.2775 O   0  0  0  0  0  0  0  0  0  0  0  0
  -10.3923    1.7408    1.9786 C   0  0  1  0  0  0  0  0  0  0  0  0
  -10.6044    1.0842    3.2108 O   0  0  0  0  0  0  0  0  0  0  0  0
   -6.2132    2.2272    0.8678 C   0  0  0  0  0  0  0  0  0  0  0  0
   -6.6030    2.3400    2.3926 C   0  0  0  0  0  0  0  0  0  0  0  0
   -5.8138    3.2311    3.1324 O   0  0  0  0  0  0  0  0  0  0  0  0
   -6.3904    3.6325    0.2119 C   0  0  0  0  0  0  0  0  0  0  0  0
   -5.5099    4.5820    0.7552 O   0  0  0  0  0  0  0  0  0  0  0  0
   -4.7541    1.6040    0.7158 C   0  0  2  0  0  0  0  0  0  0  0  0
   -3.5695    2.4797    1.2249 C   0  0  0  0  0  0  0  0  0  0  0  0
   -2.3980    1.5706    1.5926 C   0  0  0  0  0  0  0  0  0  0  0  0
   -1.8578    0.6959    0.4241 C   0  0  2  0  0  0  0  0  0  0  0  0
   -0.9946    1.6204   -0.5074 C   0  0  0  0  0  0  0  0  0  0  0  0
   -0.9504   -0.5203    1.0176 C   0  0  1  0  0  0  0  0  0  0  0  0
   -1.7394   -1.4455    2.0156 C   0  0  0  0  0  0  0  0  0  0  0  0
    0.2984    0.0516    1.7830 C   0  0  0  0  0  0  0  0  0  0  0  0
    1.3853   -0.9740    2.1806 C   0  0  1  0  0  0  0  0  0  0  0  0
    0.9122   -1.7571    3.2533 O   0  0  0  0  0  0  0  0  0  0  0  0
    2.7717   -0.2274   -3.2800 O   0  0  0  0  0  0  0  0  0  0  0  0
    2.9856   -1.1994   -4.2699 C   0  0  0  0  0  0  0  0  0  0  0  0
    4.3170   -0.9319   -5.0063 C   0  0  2  0  0  0  0  0  0  0  0  0
    4.7146   -2.0970   -5.6839 O   0  0  0  0  0  0  0  0  0  0  0  0
    5.3980   -0.4094   -4.0152 C   0  0  2  0  0  0  0  0  0  0  0  0
    6.7004   -0.6825   -4.4631 O   0  0  0  0  0  0  0  0  0  0  0  0
    8.1084   -1.6512   -1.3489 C   0  0  2  0  0  0  0  0  0  0  0  0
    8.6934   -2.7785   -0.7556 O   0  0  0  0  0  0  0  0  0  0  0  0
    8.9260   -0.4013   -1.0440 C   0  0  2  0  0  0  0  0  0  0  0  0
   10.2031   -0.4314   -1.6313 O   0  0  0  0  0  0  0  0  0  0  0  0
    9.0076   -0.1666    0.4756 C   0  0  1  0  0  0  0  0  0  0  0  0
    9.1692    1.2340    0.7001 O   0  0  0  0  0  0  0  0  0  0  0  0
   10.4733    1.6112    1.1302 C   0  0  2  0  0  0  0  0  0  0  0  0
   10.3246    2.2244    2.4190 O   0  0  0  0  0  0  0  0  0  0  0  0
   11.2977    3.2204    2.6479 C   0  0  0  0  0  0  0  0  0  0  0  0
   11.0787    4.4398    1.7144 C   0  0  1  0  0  0  0  0  0  0  0  0
   12.2551    5.2095    1.6572 O   0  0  0  0  0  0  0  0  0  0  0  0
   10.6021    3.9859    0.2951 C   0  0  2  0  0  0  0  0  0  0  0  0
    9.1961    4.0338    0.1703 O   0  0  0  0  0  0  0  0  0  0  0  0
   11.0942    2.5533    0.0287 C   0  0  1  0  0  0  0  0  0  0  0  0
   12.5014    2.5541    0.0756 O   0  0  0  0  0  0  0  0  0  0  0  0
    7.1049   -2.1699    2.7165 H   0  0  0  0  0  0  0  0  0  0  0  0
    8.8544   -1.7705    2.7922 H   0  0  0  0  0  0  0  0  0  0  0  0
    8.2250   -2.8454    1.5050 H   0  0  0  0  0  0  0  0  0  0  0  0
    7.5325    0.0857    2.0241 H   0  0  0  0  0  0  0  0  0  0  0  0
    6.1111   -2.3472   -0.8382 H   0  0  0  0  0  0  0  0  0  0  0  0
    5.0990   -2.0389   -2.6758 H   0  0  0  0  0  0  0  0  0  0  0  0
    3.8632    0.6759   -1.8447 H   0  0  0  0  0  0  0  0  0  0  0  0
    2.6822   -3.3636    2.2674 H   0  0  0  0  0  0  0  0  0  0  0  0
    3.9454   -2.4023    1.5150 H   0  0  0  0  0  0  0  0  0  0  0  0
    3.8341   -4.6941    0.5100 H   0  0  0  0  0  0  0  0  0  0  0  0
    3.2723   -3.5061   -0.6779 H   0  0  0  0  0  0  0  0  0  0  0  0
    2.4574   -6.1038   -1.3366 H   0  0  0  0  0  0  0  0  0  0  0  0
    1.6332   -4.6504   -2.0138 H   0  0  0  0  0  0  0  0  0  0  0  0
    0.6605   -5.9986   -1.3276 H   0  0  0  0  0  0  0  0  0  0  0  0
    2.3981   -6.5735    1.1480 H   0  0  0  0  0  0  0  0  0  0  0  0
    0.6035   -6.4158    1.1585 H   0  0  0  0  0  0  0  0  0  0  0  0
    1.6015   -5.4278    2.2794 H   0  0  0  0  0  0  0  0  0  0  0  0
    0.0841   -3.7995    1.4214 H   0  0  0  0  0  0  0  0  0  0  0  0
   -0.4624   -4.1841   -0.1957 H   0  0  0  0  0  0  0  0  0  0  0  0
    1.1312   -2.4591   -1.0302 H   0  0  0  0  0  0  0  0  0  0  0  0
   -0.8951   -2.1978   -2.0626 H   0  0  0  0  0  0  0  0  0  0  0  0
   -3.2930   -1.4766   -1.9118 H   0  0  0  0  0  0  0  0  0  0  0  0
   -2.2653   -0.1030   -2.4345 H   0  0  0  0  0  0  0  0  0  0  0  0
   -3.4895   -0.6854    0.2972 H   0  0  0  0  0  0  0  0  0  0  0  0
   -3.7574    1.5065   -2.7491 H   0  0  0  0  0  0  0  0  0  0  0  0
   -3.3922    2.8110   -1.5912 H   0  0  0  0  0  0  0  0  0  0  0  0
   -4.9760    2.5737   -2.1283 H   0  0  0  0  0  0  0  0  0  0  0  0
   -5.5806   -0.8323   -0.4794 H   0  0  0  0  0  0  0  0  0  0  0  0
   -5.3123   -0.3649   -2.1799 H   0  0  0  0  0  0  0  0  0  0  0  0
   -7.6388   -0.1292   -1.4072 H   0  0  0  0  0  0  0  0  0  0  0  0
   -8.0376    1.8669   -2.2112 H   0  0  0  0  0  0  0  0  0  0  0  0
   -7.1319    0.2681    0.9061 H   0  0  0  0  0  0  0  0  0  0  0  0
   -9.0421    0.1153    1.6233 H   0  0  0  0  0  0  0  0  0  0  0  0
   -9.7760   -0.6621   -0.5387 H   0  0  0  0  0  0  0  0  0  0  0  0
  -10.6001    0.8722   -0.9498 H   0  0  0  0  0  0  0  0  0  0  0  0
  -11.4581   -0.9467    1.3255 H   0  0  0  0  0  0  0  0  0  0  0  0
  -13.4101   -1.5926   -0.0564 H   0  0  0  0  0  0  0  0  0  0  0  0
  -11.8647   -2.0954   -0.7883 H   0  0  0  0  0  0  0  0  0  0  0  0
  -13.7128   -0.2147   -1.6678 H   0  0  0  0  0  0  0  0  0  0  0  0
  -13.1946    1.2887    0.0702 H   0  0  0  0  0  0  0  0  0  0  0  0
  -12.9904    0.2782    2.7183 H   0  0  0  0  0  0  0  0  0  0  0  0
  -12.3342    2.7269    2.1222 H   0  0  0  0  0  0  0  0  0  0  0  0
  -10.6824    2.9956   -0.0959 H   0  0  0  0  0  0  0  0  0  0  0  0
   -9.8292    2.6574    2.2454 H   0  0  0  0  0  0  0  0  0  0  0  0
  -10.7016    0.1109    3.0673 H   0  0  0  0  0  0  0  0  0  0  0  0
   -6.5837    1.3260    2.8636 H   0  0  0  0  0  0  0  0  0  0  0  0
   -7.6436    2.6919    2.4961 H   0  0  0  0  0  0  0  0  0  0  0  0
   -5.3456    2.7028    3.8327 H   0  0  0  0  0  0  0  0  0  0  0  0
   -7.4436    3.9774    0.3423 H   0  0  0  0  0  0  0  0  0  0  0  0
   -6.2464    3.6324   -0.8726 H   0  0  0  0  0  0  0  0  0  0  0  0
   -6.0175    5.1113    1.4247 H   0  0  0  0  0  0  0  0  0  0  0  0
   -4.8329    0.7369    1.4111 H   0  0  0  0  0  0  0  0  0  0  0  0
   -3.7987    3.0072    2.1572 H   0  0  0  0  0  0  0  0  0  0  0  0
   -3.2825    3.2695    0.5073 H   0  0  0  0  0  0  0  0  0  0  0  0
   -2.8018    0.9396    2.4008 H   0  0  0  0  0  0  0  0  0  0  0  0
   -1.5783    2.1739    2.0393 H   0  0  0  0  0  0  0  0  0  0  0  0
   -0.1994    2.1592    0.0365 H   0  0  0  0  0  0  0  0  0  0  0  0
   -1.5394    2.4480   -0.9515 H   0  0  0  0  0  0  0  0  0  0  0  0
   -0.5127    1.0595   -1.3331 H   0  0  0  0  0  0  0  0  0  0  0  0
   -2.0533   -0.9251    2.9382 H   0  0  0  0  0  0  0  0  0  0  0  0
   -1.1540   -2.2981    2.3618 H   0  0  0  0  0  0  0  0  0  0  0  0
   -2.6112   -1.9612    1.5791 H   0  0  0  0  0  0  0  0  0  0  0  0
   -0.0226    0.6048    2.6909 H   0  0  0  0  0  0  0  0  0  0  0  0
    0.8090    0.7795    1.1530 H   0  0  0  0  0  0  0  0  0  0  0  0
    2.2460   -0.4196    2.6168 H   0  0  0  0  0  0  0  0  0  0  0  0
    0.8814   -2.7098    3.0224 H   0  0  0  0  0  0  0  0  0  0  0  0
    2.1434   -1.2193   -4.9935 H   0  0  0  0  0  0  0  0  0  0  0  0
    2.9823   -2.2035   -3.7815 H   0  0  0  0  0  0  0  0  0  0  0  0
    4.1844   -0.1353   -5.7629 H   0  0  0  0  0  0  0  0  0  0  0  0
    4.8607   -2.8104   -5.0083 H   0  0  0  0  0  0  0  0  0  0  0  0
    5.2981    0.6995   -3.9444 H   0  0  0  0  0  0  0  0  0  0  0  0
    6.8402   -1.6621   -4.3915 H   0  0  0  0  0  0  0  0  0  0  0  0
    8.0848   -1.8154   -2.4481 H   0  0  0  0  0  0  0  0  0  0  0  0
    8.2320   -3.5729   -1.1319 H   0  0  0  0  0  0  0  0  0  0  0  0
    8.3763    0.4490   -1.5062 H   0  0  0  0  0  0  0  0  0  0  0  0
   10.6823   -1.2234   -1.2737 H   0  0  0  0  0  0  0  0  0  0  0  0
    9.8424   -0.7830    0.8781 H   0  0  0  0  0  0  0  0  0  0  0  0
   11.1530    0.7399    1.2396 H   0  0  0  0  0  0  0  0  0  0  0  0
   12.3022    2.7639    2.5007 H   0  0  0  0  0  0  0  0  0  0  0  0
   11.2855    3.5475    3.7082 H   0  0  0  0  0  0  0  0  0  0  0  0
   10.2899    5.1068    2.1257 H   0  0  0  0  0  0  0  0  0  0  0  0
   12.9689    4.6562    1.2419 H   0  0  0  0  0  0  0  0  0  0  0  0
   10.9973    4.7038   -0.4572 H   0  0  0  0  0  0  0  0  0  0  0  0
    8.7772    3.8027    1.0397 H   0  0  0  0  0  0  0  0  0  0  0  0
   10.7964    2.2107   -0.9874 H   0  0  0  0  0  0  0  0  0  0  0  0
   12.8090    1.6120    0.0588 H   0  0  0  0  0  0  0  0  0  0  0  0
  1 77  1  0  0  0  0
  1 78  1  0  0  0  0
  1 79  1  0  0  0  0
  2  1  1  0  0  0  0
  2  3  1  0  0  0  0
  2 80  1  1  0  0  0
  3  4  1  0  0  0  0
  4  5  1  0  0  0  0
  4 62  1  0  0  0  0
  4 81  1  6  0  0  0
  6  5  1  0  0  0  0
  6  7  1  0  0  0  0
  6 82  1  1  0  0  0
  7  8  1  0  0  0  0
  7 56  1  0  0  0  0
  7 83  1  1  0  0  0
  8  9  1  0  0  0  0
  9 10  2  0  0  0  0
 11  9  1  6  0  0  0
 11 12  1  0  0  0  0
 12 13  1  0  0  0  0
 12 84  1  0  0  0  0
 12 85  1  0  0  0  0
 13 14  1  0  0  0  0
 13 86  1  0  0  0  0
 13 87  1  0  0  0  0
 14 15  1  0  0  0  0
 14 16  1  0  0  0  0
 14 17  1  0  0  0  0
 15 88  1  0  0  0  0
 15 89  1  0  0  0  0
 15 90  1  0  0  0  0
 16 91  1  0  0  0  0
 16 92  1  0  0  0  0
 16 93  1  0  0  0  0
 17 94  1  0  0  0  0
 17 95  1  0  0  0  0
 18 17  1  0  0  0  0
 18 19  1  0  0  0  0
 18 11  1  0  0  0  0
 18 96  1  6  0  0  0
 19 20  2  0  0  0  0
 20 21  1  0  0  0  0
 20 97  1  0  0  0  0
 21 98  1  0  0  0  0
 21 99  1  0  0  0  0
 22 21  1  0  0  0  0
 22 23  1  0  0  0  0
 22100  1  1  0  0  0
 23 24  1  6  0  0  0
 23 25  1  0  0  0  0
 24101  1  0  0  0  0
 24102  1  0  0  0  0
 24103  1  0  0  0  0
 25 26  1  0  0  0  0
 25104  1  0  0  0  0
 25105  1  0  0  0  0
 26 27  1  0  0  0  0
 26 28  1  0  0  0  0
 26106  1  6  0  0  0
 27107  1  0  0  0  0
 28 29  1  0  0  0  0
 28 41  1  0  0  0  0
 28108  1  1  0  0  0
 30 29  1  0  0  0  0
 30 31  1  0  0  0  0
 30109  1  1  0  0  0
 31 32  1  0  0  0  0
 31110  1  0  0  0  0
 31111  1  0  0  0  0
 32 33  1  0  0  0  0
 32 35  1  0  0  0  0
 32112  1  1  0  0  0
 33 34  1  0  0  0  0
 33113  1  0  0  0  0
 33114  1  0  0  0  0
 34115  1  0  0  0  0
 35 36  1  0  0  0  0
 35 37  1  0  0  0  0
 35116  1  6  0  0  0
 36117  1  0  0  0  0
 37 38  1  0  0  0  0
 37 39  1  0  0  0  0
 37118  1  1  0  0  0
 38119  1  0  0  0  0
 39 40  1  0  0  0  0
 39 30  1  0  0  0  0
 39120  1  1  0  0  0
 40121  1  0  0  0  0
 41 42  1  0  0  0  0
 41 44  1  0  0  0  0
 41 46  1  0  0  0  0
 42 43  1  0  0  0  0
 42122  1  0  0  0  0
 42123  1  0  0  0  0
 43124  1  0  0  0  0
 44 45  1  0  0  0  0
 44125  1  0  0  0  0
 44126  1  0  0  0  0
 45127  1  0  0  0  0
 46 47  1  0  0  0  0
 46 23  1  0  0  0  0
 46128  1  1  0  0  0
 47 48  1  0  0  0  0
 47129  1  0  0  0  0
 47130  1  0  0  0  0
 48 49  1  0  0  0  0
 48131  1  0  0  0  0
 48132  1  0  0  0  0
 49 50  1  6  0  0  0
 49 51  1  0  0  0  0
 49 22  1  0  0  0  0
 50133  1  0  0  0  0
 50134  1  0  0  0  0
 50135  1  0  0  0  0
 51 52  1  1  0  0  0
 51 53  1  0  0  0  0
 51 19  1  0  0  0  0
 52136  1  0  0  0  0
 52137  1  0  0  0  0
 52138  1  0  0  0  0
 53 54  1  0  0  0  0
 53139  1  0  0  0  0
 53140  1  0  0  0  0
 54 55  1  0  0  0  0
 54 11  1  0  0  0  0
 54141  1  1  0  0  0
 55142  1  0  0  0  0
 56 57  1  0  0  0  0
 57 58  1  0  0  0  0
 57143  1  0  0  0  0
 57144  1  0  0  0  0
 58 59  1  0  0  0  0
 58 60  1  0  0  0  0
 58145  1  6  0  0  0
 59146  1  0  0  0  0
 60 61  1  0  0  0  0
 60  6  1  0  0  0  0
 60147  1  1  0  0  0
 61148  1  0  0  0  0
 62 63  1  0  0  0  0
 62 64  1  0  0  0  0
 62149  1  6  0  0  0
 63150  1  0  0  0  0
 64 65  1  0  0  0  0
 64 66  1  0  0  0  0
 64151  1  6  0  0  0
 65152  1  0  0  0  0
 66 67  1  0  0  0  0
 66  2  1  0  0  0  0
 66153  1  1  0  0  0
 68 67  1  0  0  0  0
 68 69  1  0  0  0  0
 68154  1  1  0  0  0
 69 70  1  0  0  0  0
 70 71  1  0  0  0  0
 70155  1  0  0  0  0
 70156  1  0  0  0  0
 71 72  1  0  0  0  0
 71 73  1  0  0  0  0
 71157  1  1  0  0  0
 72158  1  0  0  0  0
 73 74  1  0  0  0  0
 73 75  1  0  0  0  0
 73159  1  6  0  0  0
 74160  1  0  0  0  0
 75 76  1  0  0  0  0
 75 68  1  0  0  0  0
 75161  1  6  0  0  0
 76162  1  0  0  0  0
M  END
>  <IDENTIFIER>
CNP0410699.1

>  <Energy>
2401.05

$$$$
