
 OpenBabel09062520392D

165164  0  0  0  0  0  0  0  0999 V2000
   23.3827   13.5000    0.0000 C   0  0  0  0  0  0  0  0  0  0  0  0
   22.0836   12.7500    0.0000 C   0  0  0  0  0  0  0  0  0  0  0  0
   20.7846   12.0000    0.0000 C   0  0  0  0  0  2  0  0  0  0  0  0
   19.4856   11.2500    0.0000 C   0  0  0  0  0  0  0  0  0  0  0  0
   18.1865   10.5000    0.0000 C   0  0  0  0  0  0  0  0  0  0  0  0
   16.8875    9.7500    0.0000 C   0  0  0  0  0  2  0  0  0  0  0  0
   15.5885    9.0000    0.0000 C   0  0  0  0  0  0  0  0  0  0  0  0
   13.9437    8.6542    0.0191 C   0  0  0  0  0  0  0  0  0  0  0  0
   13.3416    7.0632   -0.0217 C   0  0  0  0  0  0  0  0  0  0  0  0
   11.6913    6.7500    0.0000 C   0  0  0  0  0  0  0  0  0  0  0  0
   10.3923    6.0000    0.0000 C   0  0  0  0  0  0  0  0  0  0  0  0
    9.0933    5.2500    0.0000 C   0  0  0  0  0  0  0  0  0  0  0  0
    7.7942    4.5000    0.0000 C   0  0  0  0  0  0  0  0  0  0  0  0
    6.4952    3.7500    0.0000 C   0  0  0  0  0  0  0  0  0  0  0  0
    5.1962    3.0000    0.0000 C   0  0  0  0  0  0  0  0  0  0  0  0
    3.5246    2.9898    0.1206 C   0  0  0  0  0  0  0  0  0  0  0  0
    2.6929    1.5228   -0.0288 C   0  0  0  0  0  0  0  0  0  0  0  0
    1.0306    1.2923    0.1377 C   0  0  0  0  0  0  0  0  0  0  0  0
    0.3069   -0.1794   -0.0732 C   0  0  0  0  0  0  0  0  0  0  0  0
    1.0609   -1.0825   -0.4005 O   0  0  0  0  0  0  0  0  0  0  0  0
   -1.0979   -0.5169    0.0914 O   0  0  0  0  0  0  0  0  0  0  0  0
   -1.7309   -1.8238   -0.1839 C   0  0  0  0  0  0  0  0  0  0  0  0
   -3.3351   -2.2428    0.1648 C   0  0  1  0  0  0  0  0  0  0  0  0
   -3.6902   -3.8734   -0.1289 C   0  0  0  0  0  0  0  0  0  0  0  0
   -4.9767   -4.5666    0.1132 O   0  0  0  0  0  0  0  0  0  0  0  0
   -5.1962   -6.0000    0.0000 C   0  0  0  0  0  0  0  0  0  0  0  0
   -4.1798   -6.6743   -0.1680 O   0  0  0  0  0  0  0  0  0  0  0  0
   -6.4952   -6.7500    0.0000 C   0  0  0  0  0  0  0  0  0  0  0  0
   -7.7942   -7.5000    0.0000 C   0  0  0  0  0  0  0  0  0  0  0  0
   -9.0933   -8.2500    0.0000 C   0  0  0  0  0  0  0  0  0  0  0  0
  -10.3923   -9.0000    0.0000 C   0  0  0  0  0  0  0  0  0  0  0  0
  -11.6913   -9.7500    0.0000 C   0  0  0  0  0  0  0  0  0  0  0  0
  -13.3408  -10.0647    0.0451 C   0  0  0  0  0  0  0  0  0  0  0  0
  -13.9444  -11.6531   -0.0443 C   0  0  0  0  0  0  0  0  0  0  0  0
  -15.5885  -12.0000    0.0000 C   0  0  0  0  0  0  0  0  0  0  0  0
  -16.8875  -12.7500    0.0000 C   0  0  0  0  0  2  0  0  0  0  0  0
  -18.1865  -13.5000    0.0000 C   0  0  0  0  0  0  0  0  0  0  0  0
  -19.4856  -14.2500    0.0000 C   0  0  0  0  0  0  0  0  0  0  0  0
  -20.7846  -15.0000    0.0000 C   0  0  0  0  0  2  0  0  0  0  0  0
  -22.0836  -15.7500    0.0000 C   0  0  3  0  0  0  0  0  0  0  0  0
  -23.3827  -16.5000    0.0000 C   0  0  0  0  0  0  0  0  0  0  0  0
  -21.3336  -17.0490    0.0000 C   0  0  0  0  0  0  0  0  0  0  0  0
  -20.5836  -18.3481    0.0000 C   0  0  0  0  0  0  0  0  0  0  0  0
   -4.2520   -1.4015   -0.5125 O   0  0  0  0  0  0  0  0  0  0  0  0
   -4.9233   -0.3079    0.0179 C   0  0  0  0  0  0  0  0  0  0  0  0
   -4.5735    0.1436    1.0992 O   0  0  0  0  0  0  0  0  0  0  0  0
   -6.0994    0.3778   -0.7346 C   0  0  0  0  0  0  0  0  0  0  0  0
   -6.6601    1.6933   -0.0624 C   0  0  0  0  0  0  0  0  0  0  0  0
   -7.9097    2.3827   -0.7534 C   0  0  0  0  0  0  0  0  0  0  0  0
   -8.2311    3.7871   -0.1197 C   0  0  0  0  0  0  0  0  0  0  0  0
   -9.4832    4.6494   -0.6127 C   0  0  0  0  0  0  0  0  0  0  0  0
   -9.3481    6.0933    0.0000 C   0  0  0  0  0  0  0  0  0  0  0  0
  -10.0981    7.3923    0.0000 C   0  0  0  0  0  0  0  0  0  0  0  0
  -10.8481    8.6913    0.0000 C   0  0  0  0  0  0  0  0  0  0  0  0
  -11.5926   10.0940    0.5515 C   0  0  0  0  0  0  0  0  0  0  0  0
  -12.2446   11.2403   -0.5298 C   0  0  0  0  0  0  0  0  0  0  0  0
  -13.0981   12.5885    0.0000 C   0  0  0  0  0  0  0  0  0  0  0  0
  -13.8481   13.8875    0.0000 C   0  0  0  0  0  0  0  0  0  0  0  0
  -14.5981   15.1865    0.0000 C   0  0  0  0  0  0  0  0  0  0  0  0
  -15.3481   16.4856    0.0000 C   0  0  0  0  0  0  0  0  0  0  0  0
  -16.0981   17.7846    0.0000 C   0  0  0  0  0  0  0  0  0  0  0  0
  -16.8481   19.0836    0.0000 C   0  0  0  0  0  0  0  0  0  0  0  0
  -17.3971   17.0346    0.0000 C   0  0  0  0  0  0  0  0  0  0  0  0
   23.7141   13.1761    1.0138 H   0  0  0  0  0  0  0  0  0  0  0  0
   23.0109   14.5601   -0.0301 H   0  0  0  0  0  0  0  0  0  0  0  0
   24.3094   14.0350    0.0000 H   0  0  0  0  0  0  0  0  0  0  0  0
   21.8316   13.1138   -1.0223 H   0  0  0  0  0  0  0  0  0  0  0  0
   21.6122   13.3646    0.8105 H   0  0  0  0  0  0  0  0  0  0  0  0
   19.8547   10.6944   -0.8960 H   0  0  0  0  0  0  0  0  0  0  0  0
   19.8547   10.6944    0.8960 H   0  0  0  0  0  0  0  0  0  0  0  0
   17.8174   11.0556   -0.8960 H   0  0  0  0  0  0  0  0  0  0  0  0
   17.8174   11.0557    0.8960 H   0  0  0  0  0  0  0  0  0  0  0  0
   15.8502    8.3519    0.8623 H   0  0  0  0  0  0  0  0  0  0  0  0
   15.8197    8.4035   -0.9071 H   0  0  0  0  0  0  0  0  0  0  0  0
   13.4991    9.1827   -0.8503 H   0  0  0  0  0  0  0  0  0  0  0  0
   13.5308    9.1265    0.9351 H   0  0  0  0  0  0  0  0  0  0  0  0
   13.7464    6.5916   -0.9416 H   0  0  0  0  0  0  0  0  0  0  0  0
   13.7833    6.5275    0.8447 H   0  0  0  0  0  0  0  0  0  0  0  0
   11.4957    7.3634    0.9136 H   0  0  0  0  0  0  0  0  0  0  0  0
   11.4585    7.4670   -0.8309 H   0  0  0  0  0  0  0  0  0  0  0  0
   10.8165    5.5485   -0.9572 H   0  0  0  0  0  0  0  0  0  0  0  0
   10.7373    5.4227    0.8990 H   0  0  0  0  0  0  0  0  0  0  0  0
    8.8050    5.7867   -0.9542 H   0  0  0  0  0  0  0  0  0  0  0  0
    9.5584    4.2512   -0.3059 H   0  0  0  0  0  0  0  0  0  0  0  0
    7.3299    5.4928    0.3210 H   0  0  0  0  0  0  0  0  0  0  0  0
    8.0883    3.9531    0.9491 H   0  0  0  0  0  0  0  0  0  0  0  0
    6.0939    4.1554    0.9855 H   0  0  0  0  0  0  0  0  0  0  0  0
    6.1243    4.3557   -0.8688 H   0  0  0  0  0  0  0  0  0  0  0  0
    5.4100    2.2189    0.7732 H   0  0  0  0  0  0  0  0  0  0  0  0
    5.2960    2.4263   -0.9530 H   0  0  0  0  0  0  0  0  0  0  0  0
    3.2684    3.4159    1.1130 H   0  0  0  0  0  0  0  0  0  0  0  0
    3.1246    3.6772   -0.6538 H   0  0  0  0  0  0  0  0  0  0  0  0
    3.1576    0.8375    0.7102 H   0  0  0  0  0  0  0  0  0  0  0  0
    2.9534    1.1367   -1.0364 H   0  0  0  0  0  0  0  0  0  0  0  0
    0.7743    1.6283    1.1643 H   0  0  0  0  0  0  0  0  0  0  0  0
    0.5382    1.9871   -0.5736 H   0  0  0  0  0  0  0  0  0  0  0  0
   -1.5831   -2.0359   -1.2636 H   0  0  0  0  0  0  0  0  0  0  0  0
   -1.1278   -2.5766    0.3668 H   0  0  0  0  0  0  0  0  0  0  0  0
   -3.4533   -2.0958    1.2603 H   0  0  0  0  0  0  0  0  0  0  0  0
   -3.4411   -4.0440   -1.1975 H   0  0  0  0  0  0  0  0  0  0  0  0
   -2.9241   -4.4236    0.4581 H   0  0  0  0  0  0  0  0  0  0  0  0
   -6.0394   -7.2854    0.8959 H   0  0  0  0  0  0  0  0  0  0  0  0
   -6.2763   -7.1247   -1.0327 H   0  0  0  0  0  0  0  0  0  0  0  0
   -8.0071   -7.1227    1.0496 H   0  0  0  0  0  0  0  0  0  0  0  0
   -7.2956   -8.5233    0.0911 H   0  0  0  0  0  0  0  0  0  0  0  0
   -9.5779   -7.2199   -0.1106 H   0  0  0  0  0  0  0  0  0  0  0  0
   -8.8970   -8.6320   -1.0475 H   0  0  0  0  0  0  0  0  0  0  0  0
  -10.8978   -8.4160   -0.8382 H   0  0  0  0  0  0  0  0  0  0  0  0
  -10.6517   -8.5640    1.0021 H   0  0  0  0  0  0  0  0  0  0  0  0
  -11.5104  -10.3625   -0.9213 H   0  0  0  0  0  0  0  0  0  0  0  0
  -11.4438  -10.4657    0.8228 H   0  0  0  0  0  0  0  0  0  0  0  0
  -13.7272   -9.6253    0.9887 H   0  0  0  0  0  0  0  0  0  0  0  0
  -13.7995   -9.4995   -0.7932 H   0  0  0  0  0  0  0  0  0  0  0  0
  -13.4788  -12.2169    0.7911 H   0  0  0  0  0  0  0  0  0  0  0  0
  -13.5545  -12.0869   -0.9891 H   0  0  0  0  0  0  0  0  0  0  0  0
  -15.8717  -11.3138   -0.8252 H   0  0  0  0  0  0  0  0  0  0  0  0
  -15.7961  -11.4452    0.9387 H   0  0  0  0  0  0  0  0  0  0  0  0
  -17.8176  -14.0557    0.8960 H   0  0  0  0  0  0  0  0  0  0  0  0
  -17.8174  -14.0559   -0.8958 H   0  0  0  0  0  0  0  0  0  0  0  0
  -19.8547  -13.6947   -0.8961 H   0  0  0  0  0  0  0  0  0  0  0  0
  -19.8548  -13.6946    0.8959 H   0  0  0  0  0  0  0  0  0  0  0  0
  -22.1692  -15.4256   -1.0702 H   0  0  0  0  0  0  0  0  0  0  0  0
  -24.0412  -15.6690   -0.3560 H   0  0  0  0  0  0  0  0  0  0  0  0
  -23.5403  -16.4787    1.1059 H   0  0  0  0  0  0  0  0  0  0  0  0
  -24.3094  -17.0350    0.0000 H   0  0  0  0  0  0  0  0  0  0  0  0
  -21.7375  -17.4965   -0.9831 H   0  0  0  0  0  0  0  0  0  0  0  0
  -21.5950  -17.3078    1.0802 H   0  0  0  0  0  0  0  0  0  0  0  0
  -19.9206  -18.1796   -0.8986 H   0  0  0  0  0  0  0  0  0  0  0  0
  -19.8372  -18.1256    0.8127 H   0  0  0  0  0  0  0  0  0  0  0  0
  -20.0486  -19.2748    0.0000 H   0  0  0  0  0  0  0  0  0  0  0  0
   -5.7504    0.6474   -1.7539 H   0  0  0  0  0  0  0  0  0  0  0  0
   -6.9202   -0.3634   -0.8304 H   0  0  0  0  0  0  0  0  0  0  0  0
   -5.8220    2.4236   -0.0453 H   0  0  0  0  0  0  0  0  0  0  0  0
   -6.9414    1.4701    0.9896 H   0  0  0  0  0  0  0  0  0  0  0  0
   -8.7891    1.7106   -0.6627 H   0  0  0  0  0  0  0  0  0  0  0  0
   -7.6922    2.5390   -1.8316 H   0  0  0  0  0  0  0  0  0  0  0  0
   -8.3379    3.6534    0.9791 H   0  0  0  0  0  0  0  0  0  0  0  0
   -7.3140    4.3908   -0.2943 H   0  0  0  0  0  0  0  0  0  0  0  0
   -9.4731    4.7365   -1.7200 H   0  0  0  0  0  0  0  0  0  0  0  0
  -10.4268    4.1597   -0.2928 H   0  0  0  0  0  0  0  0  0  0  0  0
   -9.1355    5.9213    1.0833 H   0  0  0  0  0  0  0  0  0  0  0  0
   -8.3582    6.4179   -0.4043 H   0  0  0  0  0  0  0  0  0  0  0  0
  -10.1838    7.2508   -1.1148 H   0  0  0  0  0  0  0  0  0  0  0  0
  -10.9380    6.8955    0.5477 H   0  0  0  0  0  0  0  0  0  0  0  0
  -10.1581    9.2535   -0.6762 H   0  0  0  0  0  0  0  0  0  0  0  0
  -11.7609    8.4126   -0.5985 H   0  0  0  0  0  0  0  0  0  0  0  0
  -12.4195    9.7706    1.2186 H   0  0  0  0  0  0  0  0  0  0  0  0
  -10.8565   10.6350    1.1831 H   0  0  0  0  0  0  0  0  0  0  0  0
  -12.9285   10.6900   -1.2102 H   0  0  0  0  0  0  0  0  0  0  0  0
  -11.3982   11.6091   -1.1460 H   0  0  0  0  0  0  0  0  0  0  0  0
  -12.3353   12.8786    0.7636 H   0  0  0  0  0  0  0  0  0  0  0  0
  -13.8274   11.9897    0.6057 H   0  0  0  0  0  0  0  0  0  0  0  0
  -12.9874   14.3634   -0.5426 H   0  0  0  0  0  0  0  0  0  0  0  0
  -14.5340   13.3492   -0.7321 H   0  0  0  0  0  0  0  0  0  0  0  0
  -14.7200   15.2488   -1.1318 H   0  0  0  0  0  0  0  0  0  0  0  0
  -15.4981   14.6674    0.4407 H   0  0  0  0  0  0  0  0  0  0  0  0
  -14.3762   17.0228   -0.2203 H   0  0  0  0  0  0  0  0  0  0  0  0
  -15.2885   16.5403    1.1274 H   0  0  0  0  0  0  0  0  0  0  0  0
  -15.9149   17.9398   -1.1045 H   0  0  0  0  0  0  0  0  0  0  0  0
  -15.9534   19.7460   -0.1054 H   0  0  0  0  0  0  0  0  0  0  0  0
  -17.0867   19.1141    1.0954 H   0  0  0  0  0  0  0  0  0  0  0  0
  -17.3831   20.0102    0.0000 H   0  0  0  0  0  0  0  0  0  0  0  0
  -17.4620   16.6643    1.0597 H   0  0  0  0  0  0  0  0  0  0  0  0
  -17.4076   16.4067   -0.9428 H   0  0  0  0  0  0  0  0  0  0  0  0
  -18.3237   16.4996    0.0000 H   0  0  0  0  0  0  0  0  0  0  0  0
  1  2  1  0  0  0  0
  1 64  1  0  0  0  0
  1 65  1  0  0  0  0
  1 66  1  0  0  0  0
  2  3  1  0  0  0  0
  2 67  1  0  0  0  0
  2 68  1  0  0  0  0
  3  4  1  0  0  0  0
  4  5  1  0  0  0  0
  4 69  1  0  0  0  0
  4 70  1  0  0  0  0
  5  6  1  0  0  0  0
  5 71  1  0  0  0  0
  5 72  1  0  0  0  0
  6  7  1  0  0  0  0
  7  8  1  0  0  0  0
  7 73  1  0  0  0  0
  7 74  1  0  0  0  0
  8  9  1  0  0  0  0
  8 75  1  0  0  0  0
  8 76  1  0  0  0  0
  9 10  1  0  0  0  0
  9 77  1  0  0  0  0
  9 78  1  0  0  0  0
 10 11  1  0  0  0  0
 10 79  1  0  0  0  0
 10 80  1  0  0  0  0
 11 12  1  0  0  0  0
 11 81  1  0  0  0  0
 11 82  1  0  0  0  0
 12 13  1  0  0  0  0
 12 83  1  0  0  0  0
 12 84  1  0  0  0  0
 13 14  1  0  0  0  0
 13 85  1  0  0  0  0
 13 86  1  0  0  0  0
 14 15  1  0  0  0  0
 14 87  1  0  0  0  0
 14 88  1  0  0  0  0
 15 16  1  0  0  0  0
 15 89  1  0  0  0  0
 15 90  1  0  0  0  0
 16 17  1  0  0  0  0
 16 91  1  0  0  0  0
 16 92  1  0  0  0  0
 17 18  1  0  0  0  0
 17 93  1  0  0  0  0
 17 94  1  0  0  0  0
 18 19  1  0  0  0  0
 18 95  1  0  0  0  0
 18 96  1  0  0  0  0
 19 20  2  0  0  0  0
 19 21  1  0  0  0  0
 21 22  1  0  0  0  0
 22 97  1  0  0  0  0
 22 98  1  0  0  0  0
 23 22  1  0  0  0  0
 23 24  1  0  0  0  0
 23 44  1  0  0  0  0
 23 99  1  6  0  0  0
 24 25  1  0  0  0  0
 24100  1  0  0  0  0
 24101  1  0  0  0  0
 25 26  1  0  0  0  0
 26 27  2  0  0  0  0
 26 28  1  0  0  0  0
 28 29  1  0  0  0  0
 28102  1  0  0  0  0
 28103  1  0  0  0  0
 29 30  1  0  0  0  0
 29104  1  0  0  0  0
 29105  1  0  0  0  0
 30 31  1  0  0  0  0
 30106  1  0  0  0  0
 30107  1  0  0  0  0
 31 32  1  0  0  0  0
 31108  1  0  0  0  0
 31109  1  0  0  0  0
 32 33  1  0  0  0  0
 32110  1  0  0  0  0
 32111  1  0  0  0  0
 33 34  1  0  0  0  0
 33112  1  0  0  0  0
 33113  1  0  0  0  0
 34 35  1  0  0  0  0
 34114  1  0  0  0  0
 34115  1  0  0  0  0
 35 36  1  0  0  0  0
 35116  1  0  0  0  0
 35117  1  0  0  0  0
 36 37  1  0  0  0  0
 37 38  1  0  0  0  0
 37118  1  0  0  0  0
 37119  1  0  0  0  0
 38 39  1  0  0  0  0
 38120  1  0  0  0  0
 38121  1  0  0  0  0
 39 40  1  0  0  0  0
 40 41  1  0  0  0  0
 40 42  1  0  0  0  0
 40122  1  0  0  0  0
 41123  1  0  0  0  0
 41124  1  0  0  0  0
 41125  1  0  0  0  0
 42 43  1  0  0  0  0
 42126  1  0  0  0  0
 42127  1  0  0  0  0
 43128  1  0  0  0  0
 43129  1  0  0  0  0
 43130  1  0  0  0  0
 44 45  1  0  0  0  0
 45 46  2  0  0  0  0
 45 47  1  0  0  0  0
 47 48  1  0  0  0  0
 47131  1  0  0  0  0
 47132  1  0  0  0  0
 48 49  1  0  0  0  0
 48133  1  0  0  0  0
 48134  1  0  0  0  0
 49 50  1  0  0  0  0
 49135  1  0  0  0  0
 49136  1  0  0  0  0
 50 51  1  0  0  0  0
 50137  1  0  0  0  0
 50138  1  0  0  0  0
 51 52  1  0  0  0  0
 51139  1  0  0  0  0
 51140  1  0  0  0  0
 52 53  1  0  0  0  0
 52141  1  0  0  0  0
 52142  1  0  0  0  0
 53 54  1  0  0  0  0
 53143  1  0  0  0  0
 53144  1  0  0  0  0
 54 55  1  0  0  0  0
 54145  1  0  0  0  0
 54146  1  0  0  0  0
 55 56  1  0  0  0  0
 55147  1  0  0  0  0
 55148  1  0  0  0  0
 56 57  1  0  0  0  0
 56149  1  0  0  0  0
 56150  1  0  0  0  0
 57 58  1  0  0  0  0
 57151  1  0  0  0  0
 57152  1  0  0  0  0
 58 59  1  0  0  0  0
 58153  1  0  0  0  0
 58154  1  0  0  0  0
 59 60  1  0  0  0  0
 59155  1  0  0  0  0
 59156  1  0  0  0  0
 60 61  1  0  0  0  0
 60157  1  0  0  0  0
 60158  1  0  0  0  0
 61 62  1  0  0  0  0
 61 63  1  0  0  0  0
 61159  1  0  0  0  0
 62160  1  0  0  0  0
 62161  1  0  0  0  0
 62162  1  0  0  0  0
 63163  1  0  0  0  0
 63164  1  0  0  0  0
 63165  1  0  0  0  0
M  END
>  <IDENTIFIER>
CNP0555768.1

>  <Energy>
14046.1

$$$$
