
 OpenBabel09112520513D

 84 88  0  0  0  0  0  0  0  0999 V2000
    6.2900    4.3391   -2.0915 C   0  0  0  0  0  0  0  0  0  0  0  0
    5.6364    3.4041   -3.0051 N   0  0  0  0  0  0  0  0  0  0  0  0
    4.9491    2.3135   -2.3031 C   0  0  0  0  0  0  0  0  0  0  0  0
    5.9009    1.3828   -1.7078 N   0  0  0  0  0  0  0  0  0  0  0  0
    5.8622    0.8730   -0.3714 C   0  0  0  0  0  0  0  0  0  0  0  0
    4.9380    1.3111    0.5995 C   0  0  0  0  0  0  0  0  0  0  0  0
    4.9091    0.7024    1.8657 C   0  0  0  0  0  0  0  0  0  0  0  0
    3.8979    1.1362    2.9045 C   0  0  0  0  0  0  0  0  0  0  0  0
    2.4447    0.9308    2.4195 C   0  0  0  0  0  0  0  0  0  0  0  0
    2.1305   -0.5431    2.1536 C   0  0  0  0  0  0  0  0  0  0  0  0
    2.1376   -1.3942    3.4151 C   0  0  0  0  0  0  0  0  0  0  0  0
    1.8524   -1.1250    0.9220 C   0  0  0  0  0  0  0  0  0  0  0  0
    1.8345   -0.4537   -0.4610 C   0  0  0  0  0  0  0  0  0  0  0  0
    2.0560    0.9218   -0.4902 O   0  0  0  0  0  0  0  0  0  0  0  0
    1.6051   -2.6321    0.8186 C   0  0  0  0  0  0  0  0  0  0  0  0
    0.1778   -3.1373    0.4474 C   0  0  1  0  0  0  0  0  0  0  0  0
   -0.6309   -2.8734    1.5801 O   0  0  0  0  0  0  0  0  0  0  0  0
   -1.1351   -2.3719    0.3761 C   0  0  1  0  0  0  0  0  0  0  0  0
   -1.2507   -0.8648    0.4284 C   0  0  0  0  0  0  0  0  0  0  0  0
   -0.9478   -0.2376    1.4337 O   0  0  0  0  0  0  0  0  0  0  0  0
   -1.7167   -0.2320   -0.6826 O   0  0  0  0  0  0  0  0  0  0  0  0
   -1.9846    1.1183   -0.8396 C   0  0  0  0  0  0  0  0  0  0  0  0
   -3.2915    1.5783   -0.1593 C   0  0  2  0  0  0  0  0  0  0  0  0
   -3.1719    1.5363    1.2419 O   0  0  0  0  0  0  0  0  0  0  0  0
   -4.5256    0.7831   -0.6571 C   0  0  0  0  0  0  0  0  0  0  0  0
   -5.8454    1.2978   -0.0558 C   0  0  0  0  0  0  0  0  0  0  0  0
   -6.2013    2.6793   -0.5472 C   0  0  0  0  0  0  0  0  0  0  0  0
   -6.4937    2.8906   -1.9066 C   0  0  0  0  0  0  0  0  0  0  0  0
   -6.8378    4.1651   -2.3653 C   0  0  0  0  0  0  0  0  0  0  0  0
   -6.8893    5.2392   -1.4737 C   0  0  0  0  0  0  0  0  0  0  0  0
   -6.6001    5.0393   -0.1210 C   0  0  0  0  0  0  0  0  0  0  0  0
   -6.2609    3.7641    0.3439 C   0  0  0  0  0  0  0  0  0  0  0  0
   -2.3980   -3.1277    0.0325 C   0  0  0  0  0  0  0  0  0  0  0  0
   -3.4555   -2.5210   -0.0414 O   0  0  0  0  0  0  0  0  0  0  0  0
   -2.3806   -4.5874   -0.2221 C   0  0  0  0  0  0  0  0  0  0  0  0
   -3.5780   -5.2622   -0.5335 C   0  0  0  0  0  0  0  0  0  0  0  0
   -3.5761   -6.6352   -0.7795 C   0  0  0  0  0  0  0  0  0  0  0  0
   -2.3834   -7.3524   -0.7195 C   0  0  0  0  0  0  0  0  0  0  0  0
   -1.1889   -6.6986   -0.4130 C   0  0  0  0  0  0  0  0  0  0  0  0
   -1.1723   -5.3118   -0.1612 C   0  0  0  0  0  0  0  0  0  0  0  0
    0.1087   -4.6306    0.1660 C   0  0  0  0  0  0  0  0  0  0  0  0
    1.1366   -5.2928    0.2128 O   0  0  0  0  0  0  0  0  0  0  0  0
    5.8223   -0.3213    2.1529 C   0  0  0  0  0  0  0  0  0  0  0  0
    6.7384   -0.7165    1.1807 C   0  0  0  0  0  0  0  0  0  0  0  0
    6.7339   -0.1241   -0.0390 N   0  0  0  0  0  0  0  0  0  0  0  0
    6.7602    5.1526   -2.6849 H   0  0  0  0  0  0  0  0  0  0  0  0
    7.0797    3.8298   -1.4998 H   0  0  0  0  0  0  0  0  0  0  0  0
    5.5413    4.8008   -1.4133 H   0  0  0  0  0  0  0  0  0  0  0  0
    6.3415    3.0100   -3.6710 H   0  0  0  0  0  0  0  0  0  0  0  0
    4.3607    1.7511   -3.0579 H   0  0  0  0  0  0  0  0  0  0  0  0
    4.2178    2.7272   -1.5869 H   0  0  0  0  0  0  0  0  0  0  0  0
    6.5986    0.9686   -2.3441 H   0  0  0  0  0  0  0  0  0  0  0  0
    4.2316    2.0973    0.4007 H   0  0  0  0  0  0  0  0  0  0  0  0
    4.0580    2.2118    3.1317 H   0  0  0  0  0  0  0  0  0  0  0  0
    4.0594    0.5795    3.8520 H   0  0  0  0  0  0  0  0  0  0  0  0
    2.2873    1.6083    1.5809 H   0  0  0  0  0  0  0  0  0  0  0  0
    1.7424    1.2987    3.1988 H   0  0  0  0  0  0  0  0  0  0  0  0
    2.3184   -0.7956    4.3316 H   0  0  0  0  0  0  0  0  0  0  0  0
    2.9414   -2.1585    3.3643 H   0  0  0  0  0  0  0  0  0  0  0  0
    1.1488   -1.8818    3.5489 H   0  0  0  0  0  0  0  0  0  0  0  0
    0.8936   -0.6851   -1.0026 H   0  0  0  0  0  0  0  0  0  0  0  0
    2.6308   -0.9216   -1.0777 H   0  0  0  0  0  0  0  0  0  0  0  0
    1.1698    1.3572   -0.3980 H   0  0  0  0  0  0  0  0  0  0  0  0
    1.8753   -3.1806    1.7386 H   0  0  0  0  0  0  0  0  0  0  0  0
    2.3266   -3.0185    0.0663 H   0  0  0  0  0  0  0  0  0  0  0  0
   -2.1012    1.3035   -1.9292 H   0  0  0  0  0  0  0  0  0  0  0  0
   -1.1257    1.7299   -0.4944 H   0  0  0  0  0  0  0  0  0  0  0  0
   -3.4371    2.6430   -0.4444 H   0  0  0  0  0  0  0  0  0  0  0  0
   -3.3467    0.6071    1.5417 H   0  0  0  0  0  0  0  0  0  0  0  0
   -4.4080   -0.2758   -0.3605 H   0  0  0  0  0  0  0  0  0  0  0  0
   -4.5821    0.8134   -1.7665 H   0  0  0  0  0  0  0  0  0  0  0  0
   -5.7647    1.2757    1.0528 H   0  0  0  0  0  0  0  0  0  0  0  0
   -6.6727    0.6114   -0.3381 H   0  0  0  0  0  0  0  0  0  0  0  0
   -6.4644    2.0672   -2.6093 H   0  0  0  0  0  0  0  0  0  0  0  0
   -7.0666    4.3189   -3.4121 H   0  0  0  0  0  0  0  0  0  0  0  0
   -7.1553    6.2255   -1.8311 H   0  0  0  0  0  0  0  0  0  0  0  0
   -6.6406    5.8728    0.5680 H   0  0  0  0  0  0  0  0  0  0  0  0
   -6.0409    3.6255    1.3949 H   0  0  0  0  0  0  0  0  0  0  0  0
   -4.5186   -4.7281   -0.5872 H   0  0  0  0  0  0  0  0  0  0  0  0
   -4.5018   -7.1436   -1.0174 H   0  0  0  0  0  0  0  0  0  0  0  0
   -2.3839   -8.4176   -0.9108 H   0  0  0  0  0  0  0  0  0  0  0  0
   -0.2769   -7.2808   -0.3731 H   0  0  0  0  0  0  0  0  0  0  0  0
    5.8268   -0.8120    3.1176 H   0  0  0  0  0  0  0  0  0  0  0  0
    7.4476   -1.5056    1.3893 H   0  0  0  0  0  0  0  0  0  0  0  0
  1  2  1  0  0  0  0
  1 46  1  0  0  0  0
  1 47  1  0  0  0  0
  1 48  1  0  0  0  0
  2  3  1  0  0  0  0
  2 49  1  0  0  0  0
  3  4  1  0  0  0  0
  3 50  1  0  0  0  0
  3 51  1  0  0  0  0
  4  5  1  0  0  0  0
  4 52  1  0  0  0  0
  5  6  2  0  0  0  0
  6  7  1  0  0  0  0
  6 53  1  0  0  0  0
  7  8  1  0  0  0  0
  7 43  2  0  0  0  0
  8  9  1  0  0  0  0
  8 54  1  0  0  0  0
  8 55  1  0  0  0  0
  9 10  1  0  0  0  0
  9 56  1  0  0  0  0
  9 57  1  0  0  0  0
 10 11  1  0  0  0  0
 10 12  2  0  0  0  0
 11 58  1  0  0  0  0
 11 59  1  0  0  0  0
 11 60  1  0  0  0  0
 12 13  1  0  0  0  0
 12 15  1  0  0  0  0
 13 14  1  0  0  0  0
 13 61  1  0  0  0  0
 13 62  1  0  0  0  0
 14 63  1  0  0  0  0
 15 64  1  0  0  0  0
 15 65  1  0  0  0  0
 16 15  1  6  0  0  0
 16 17  1  0  0  0  0
 17 18  1  0  0  0  0
 18 19  1  6  0  0  0
 18 33  1  0  0  0  0
 18 16  1  0  0  0  0
 19 20  2  0  0  0  0
 19 21  1  0  0  0  0
 21 22  1  0  0  0  0
 22 23  1  0  0  0  0
 22 66  1  0  0  0  0
 22 67  1  0  0  0  0
 23 24  1  0  0  0  0
 23 25  1  0  0  0  0
 23 68  1  6  0  0  0
 24 69  1  0  0  0  0
 25 26  1  0  0  0  0
 25 70  1  0  0  0  0
 25 71  1  0  0  0  0
 26 27  1  0  0  0  0
 26 72  1  0  0  0  0
 26 73  1  0  0  0  0
 27 28  2  0  0  0  0
 28 29  1  0  0  0  0
 28 74  1  0  0  0  0
 29 30  2  0  0  0  0
 29 75  1  0  0  0  0
 30 31  1  0  0  0  0
 30 76  1  0  0  0  0
 31 32  2  0  0  0  0
 31 77  1  0  0  0  0
 32 27  1  0  0  0  0
 32 78  1  0  0  0  0
 33 34  2  0  0  0  0
 33 35  1  0  0  0  0
 35 36  2  0  0  0  0
 36 37  1  0  0  0  0
 36 79  1  0  0  0  0
 37 38  2  0  0  0  0
 37 80  1  0  0  0  0
 38 39  1  0  0  0  0
 38 81  1  0  0  0  0
 39 40  2  0  0  0  0
 39 82  1  0  0  0  0
 40 41  1  0  0  0  0
 40 35  1  0  0  0  0
 41 42  2  0  0  0  0
 41 16  1  0  0  0  0
 43 44  1  0  0  0  0
 43 83  1  0  0  0  0
 44 45  2  0  0  0  0
 44 84  1  0  0  0  0
 45  5  1  0  0  0  0
M  END
>  <IDENTIFIER>
CNP0008204.1

>  <Energy>
2009.5

$$$$
