
 OpenBabel09122510393D

 52 54  0  0  0  0  0  0  0  0999 V2000
    3.3285   -3.2047    0.1524 C   0  0  0  0  0  0  0  0  0  0  0  0
    2.8989   -1.7580    0.2528 C   0  0  0  0  0  0  0  0  0  0  0  0
    3.1911   -0.9188   -0.7663 C   0  0  0  0  0  0  0  0  0  0  0  0
    2.9603    0.5745   -0.9226 C   0  0  0  0  0  0  0  0  0  0  0  0
    2.6857    1.5072    0.2799 C   0  0  0  0  0  0  0  0  0  0  0  0
    1.2738    1.7973    0.8026 C   0  0  0  0  0  0  0  0  0  0  0  0
    1.1304    3.1409    1.4984 C   0  0  0  0  0  0  0  0  0  0  0  0
    0.1633    1.0108    0.6843 C   0  0  0  0  0  0  0  0  0  0  0  0
   -1.2044    1.4652    1.1557 C   0  0  0  0  0  0  0  0  0  0  0  0
   -2.1857    0.2990    0.8430 C   0  0  1  0  0  0  0  0  0  0  0  0
   -2.6277   -0.4114    2.1424 C   0  0  0  0  0  0  0  0  0  0  0  0
   -3.4293    0.7666    0.0662 C   0  0  0  0  0  0  0  0  0  0  0  0
   -2.8813    1.0648   -1.3193 C   0  0  0  0  0  0  0  0  0  0  0  0
   -1.9494   -0.1274   -1.5976 C   0  0  0  0  0  0  0  0  0  0  0  0
   -2.7785   -1.2806   -2.2241 C   0  0  0  0  0  0  0  0  0  0  0  0
   -0.8762    0.2779   -2.6337 C   0  0  0  0  0  0  0  0  0  0  0  0
   -1.4181   -0.5899   -0.1665 C   0  0  1  0  0  0  0  0  0  0  0  0
    0.0934   -0.3814    0.1329 C   0  0  2  0  0  0  0  0  0  0  0  0
    0.6120   -1.3922    1.1900 C   0  0  0  0  0  0  0  0  0  0  0  0
    2.1190   -1.3707    1.4806 C   0  0  0  0  0  0  0  0  0  0  0  0
    3.8784   -3.4264   -0.7872 H   0  0  0  0  0  0  0  0  0  0  0  0
    2.4325   -3.8599    0.1863 H   0  0  0  0  0  0  0  0  0  0  0  0
    3.9922   -3.4568    1.0056 H   0  0  0  0  0  0  0  0  0  0  0  0
    3.6998   -1.3494   -1.6257 H   0  0  0  0  0  0  0  0  0  0  0  0
    2.2665    0.7845   -1.7638 H   0  0  0  0  0  0  0  0  0  0  0  0
    3.9629    0.9111   -1.2730 H   0  0  0  0  0  0  0  0  0  0  0  0
    2.9656    2.4885   -0.1680 H   0  0  0  0  0  0  0  0  0  0  0  0
    3.4160    1.3666    1.1039 H   0  0  0  0  0  0  0  0  0  0  0  0
    2.0930    3.6933    1.5454 H   0  0  0  0  0  0  0  0  0  0  0  0
    0.7873    2.9938    2.5435 H   0  0  0  0  0  0  0  0  0  0  0  0
    0.4050    3.7827    0.9555 H   0  0  0  0  0  0  0  0  0  0  0  0
   -1.4551    2.3918    0.6063 H   0  0  0  0  0  0  0  0  0  0  0  0
   -1.2198    1.7286    2.2353 H   0  0  0  0  0  0  0  0  0  0  0  0
   -3.2269    0.2896    2.7624 H   0  0  0  0  0  0  0  0  0  0  0  0
   -1.7940   -0.7489    2.7737 H   0  0  0  0  0  0  0  0  0  0  0  0
   -3.2628   -1.2915    1.9048 H   0  0  0  0  0  0  0  0  0  0  0  0
   -3.9599    1.6241    0.5334 H   0  0  0  0  0  0  0  0  0  0  0  0
   -4.1509   -0.0754   -0.0184 H   0  0  0  0  0  0  0  0  0  0  0  0
   -2.2850    1.9963   -1.2726 H   0  0  0  0  0  0  0  0  0  0  0  0
   -3.6557    1.2401   -2.0975 H   0  0  0  0  0  0  0  0  0  0  0  0
   -3.2293   -0.9635   -3.1897 H   0  0  0  0  0  0  0  0  0  0  0  0
   -3.5992   -1.6183   -1.5586 H   0  0  0  0  0  0  0  0  0  0  0  0
   -2.1237   -2.1569   -2.4224 H   0  0  0  0  0  0  0  0  0  0  0  0
   -1.3561    0.6165   -3.5773 H   0  0  0  0  0  0  0  0  0  0  0  0
   -0.2133   -0.5789   -2.8787 H   0  0  0  0  0  0  0  0  0  0  0  0
   -0.2573    1.1182   -2.2522 H   0  0  0  0  0  0  0  0  0  0  0  0
   -1.6768   -1.6691   -0.0695 H   0  0  0  0  0  0  0  0  0  0  0  0
    0.6376   -0.5631   -0.8005 H   0  0  0  0  0  0  0  0  0  0  0  0
    0.3617   -2.4183    0.8384 H   0  0  0  0  0  0  0  0  0  0  0  0
    0.1123   -1.2446    2.1576 H   0  0  0  0  0  0  0  0  0  0  0  0
    2.2728   -2.1596    2.2503 H   0  0  0  0  0  0  0  0  0  0  0  0
    2.4810   -0.4448    1.9570 H   0  0  0  0  0  0  0  0  0  0  0  0
  1  2  1  0  0  0  0
  1 21  1  0  0  0  0
  1 22  1  0  0  0  0
  1 23  1  0  0  0  0
  2  3  2  0  0  0  0
  3  4  1  0  0  0  0
  3 24  1  0  0  0  0
  4  5  1  0  0  0  0
  4 25  1  0  0  0  0
  4 26  1  0  0  0  0
  5  6  1  0  0  0  0
  5 27  1  0  0  0  0
  5 28  1  0  0  0  0
  6  7  1  0  0  0  0
  6  8  2  0  0  0  0
  7 29  1  0  0  0  0
  7 30  1  0  0  0  0
  7 31  1  0  0  0  0
  8  9  1  0  0  0  0
  9 10  1  0  0  0  0
  9 32  1  0  0  0  0
  9 33  1  0  0  0  0
 10 11  1  1  0  0  0
 10 12  1  0  0  0  0
 11 34  1  0  0  0  0
 11 35  1  0  0  0  0
 11 36  1  0  0  0  0
 12 13  1  0  0  0  0
 12 37  1  0  0  0  0
 12 38  1  0  0  0  0
 13 14  1  0  0  0  0
 13 39  1  0  0  0  0
 13 40  1  0  0  0  0
 14 15  1  0  0  0  0
 14 16  1  0  0  0  0
 15 41  1  0  0  0  0
 15 42  1  0  0  0  0
 15 43  1  0  0  0  0
 16 44  1  0  0  0  0
 16 45  1  0  0  0  0
 16 46  1  0  0  0  0
 17 14  1  0  0  0  0
 17 18  1  0  0  0  0
 17 10  1  0  0  0  0
 17 47  1  1  0  0  0
 18 19  1  0  0  0  0
 18  8  1  0  0  0  0
 18 48  1  6  0  0  0
 19 20  1  0  0  0  0
 19 49  1  0  0  0  0
 19 50  1  0  0  0  0
 20  2  1  0  0  0  0
 20 51  1  0  0  0  0
 20 52  1  0  0  0  0
M  END
>  <IDENTIFIER>
CNP0516371.1

>  <Energy>
701.3

$$$$
