
 OpenBabel09082512013D

 26 27  0  0  0  0  0  0  0  0999 V2000
   -3.0593   -0.0907   -0.8726 C   0  0  0  0  0  0  0  0  0  0  0  0
   -1.7600   -0.1281   -0.0565 C   0  0  0  0  0  0  0  0  0  0  0  0
   -2.0188    0.5273    1.3193 C   0  0  0  0  0  0  0  0  0  0  0  0
   -1.2931   -1.5951    0.1284 C   0  0  0  0  0  0  0  0  0  0  0  0
    0.1089   -1.6388    0.6828 C   0  0  0  0  0  0  0  0  0  0  0  0
    0.5181   -2.6541    1.2254 O   0  0  0  0  0  0  0  0  0  0  0  0
    1.0282   -0.5154    0.3809 C   0  0  0  0  0  0  0  0  0  0  0  0
    2.3764   -0.5266    0.7726 C   0  0  0  0  0  0  0  0  0  0  0  0
    3.2173    0.5439    0.4291 C   0  0  0  0  0  0  0  0  0  0  0  0
    4.5139    0.5483    0.7997 O   0  0  0  0  0  0  0  0  0  0  0  0
    2.7100    1.6177   -0.3123 C   0  0  0  0  0  0  0  0  0  0  0  0
    1.3691    1.6317   -0.7067 C   0  0  0  0  0  0  0  0  0  0  0  0
    0.5238    0.5755   -0.3548 C   0  0  0  0  0  0  0  0  0  0  0  0
   -0.7834    0.5998   -0.7248 O   0  0  0  0  0  0  0  0  0  0  0  0
   -3.8645   -0.6570   -0.3567 H   0  0  0  0  0  0  0  0  0  0  0  0
   -2.8969   -0.5413   -1.8751 H   0  0  0  0  0  0  0  0  0  0  0  0
   -3.3975    0.9585   -1.0161 H   0  0  0  0  0  0  0  0  0  0  0  0
   -2.8121   -0.0206    1.8722 H   0  0  0  0  0  0  0  0  0  0  0  0
   -2.3455    1.5809    1.1862 H   0  0  0  0  0  0  0  0  0  0  0  0
   -1.1021    0.5327    1.9459 H   0  0  0  0  0  0  0  0  0  0  0  0
   -1.2670   -2.1231   -0.8497 H   0  0  0  0  0  0  0  0  0  0  0  0
   -2.0007   -2.1406    0.7911 H   0  0  0  0  0  0  0  0  0  0  0  0
    2.7747   -1.3618    1.3355 H   0  0  0  0  0  0  0  0  0  0  0  0
    4.9046   -0.1736    1.3122 H   0  0  0  0  0  0  0  0  0  0  0  0
    3.3560    2.4436   -0.5818 H   0  0  0  0  0  0  0  0  0  0  0  0
    0.9839    2.4685   -1.2751 H   0  0  0  0  0  0  0  0  0  0  0  0
  1  2  1  0  0  0  0
  1 15  1  0  0  0  0
  1 16  1  0  0  0  0
  1 17  1  0  0  0  0
  2  3  1  0  0  0  0
  2  4  1  0  0  0  0
  3 18  1  0  0  0  0
  3 19  1  0  0  0  0
  3 20  1  0  0  0  0
  4  5  1  0  0  0  0
  4 21  1  0  0  0  0
  4 22  1  0  0  0  0
  5  6  2  0  0  0  0
  5  7  1  0  0  0  0
  7  8  2  0  0  0  0
  8  9  1  0  0  0  0
  8 23  1  0  0  0  0
  9 10  1  0  0  0  0
  9 11  2  0  0  0  0
 10 24  1  0  0  0  0
 11 12  1  0  0  0  0
 11 25  1  0  0  0  0
 12 13  2  0  0  0  0
 12 26  1  0  0  0  0
 13 14  1  0  0  0  0
 13  7  1  0  0  0  0
 14  2  1  0  0  0  0
M  END
>  <IDENTIFIER>
CNP0401510.0

>  <Energy>
146.326

$$$$
