
 OpenBabel09112505142D

202212  0  0  0  0  0  0  0  0999 V2000
    1.8899    1.7953   -0.9582 C   0  0  0  0  0  0  0  0  0  0  0  0
    2.3907    1.0037   -0.0000 C   0  0  0  0  0  0  0  0  0  0  0  0
    3.8173    0.5402   -0.0000 C   0  0  0  0  0  0  0  0  0  0  0  0
    1.5305    0.3430    1.1641 C   0  0  2  0  0  0  0  0  0  0  0  0
    0.7589    1.3901    1.9671 C   0  0  0  0  0  0  0  0  0  0  0  0
   -0.3330    0.5576    2.6235 C   0  0  0  0  0  0  0  0  0  0  0  0
   -0.8350   -0.3658    1.4878 C   0  0  2  0  0  0  0  0  0  0  0  0
   -1.8276    0.4132    0.6012 C   0  0  0  0  0  0  0  0  0  0  0  0
   -2.9146   -0.1031    0.3680 O   0  0  0  0  0  0  0  0  0  0  0  0
   -1.6124    1.7205    0.2226 O   0  0  0  0  0  0  0  0  0  0  0  0
   -2.6552    2.5227   -0.2299 C   0  0  2  0  0  0  0  0  0  0  0  0
   -2.4371    3.9438   -0.1117 O   0  0  0  0  0  0  0  0  0  0  0  0
   -3.7485    4.5537   -0.0000 C   0  0  2  0  0  0  0  0  0  0  0  0
   -3.9053    6.0455   -0.0000 C   0  0  0  0  0  0  0  0  0  0  0  0
   -4.0621    7.5373    0.0000 O   0  0  0  0  0  0  0  0  0  0  0  0
   -3.2874    8.6418   -0.2253 C   0  0  2  0  0  0  0  0  0  0  0  0
   -4.1526    9.7829   -0.5995 O   0  0  0  0  0  0  0  0  0  0  0  0
   -3.5647   10.9164    0.0000 C   0  0  2  0  0  0  0  0  0  0  0  0
   -3.7215   12.4082   -0.0000 C   0  0  0  0  0  0  0  0  0  0  0  0
   -3.8783   13.9000    0.0000 O   0  0  0  0  0  0  0  0  0  0  0  0
   -1.9647   11.0151   -0.6921 C   0  0  2  0  0  0  0  0  0  0  0  0
   -0.8904   11.8086   -0.0344 O   0  0  0  0  0  0  0  0  0  0  0  0
   -0.4272   13.1415   -0.4421 C   0  0  2  0  0  0  0  0  0  0  0  0
    1.0380   13.4268   -0.3827 O   0  0  0  0  0  0  0  0  0  0  0  0
    1.2691   14.8423    0.0000 C   0  0  1  0  0  0  0  0  0  0  0  0
    2.4826   15.7239    0.0000 C   0  0  0  0  0  0  0  0  0  0  0  0
    0.0923   15.7676   -0.6263 C   0  0  2  0  0  0  0  0  0  0  0  0
    0.4150   17.1378   -0.7492 O   0  0  0  0  0  0  0  0  0  0  0  0
   -0.3752   15.1662   -1.9790 C   0  0  1  0  0  0  0  0  0  0  0  0
   -1.3541   15.9664   -2.5941 O   0  0  0  0  0  0  0  0  0  0  0  0
   -0.9534   13.7326   -1.7711 C   0  0  1  0  0  0  0  0  0  0  0  0
   -0.6668   12.9275   -2.8852 O   0  0  0  0  0  0  0  0  0  0  0  0
   -1.2442    9.6430   -0.8936 C   0  0  2  0  0  0  0  0  0  0  0  0
   -0.5907    9.3026    0.3113 O   0  0  0  0  0  0  0  0  0  0  0  0
   -2.1948    8.5057   -1.2589 C   0  0  1  0  0  0  0  0  0  0  0  0
   -2.7017    8.6617   -2.5585 O   0  0  0  0  0  0  0  0  0  0  0  0
   -4.8314    3.8589   -0.9950 C   0  0  1  0  0  0  0  0  0  0  0  0
   -5.8339    4.7352   -1.4570 O   0  0  0  0  0  0  0  0  0  0  0  0
   -4.0729    3.2647   -2.1905 C   0  0  2  0  0  0  0  0  0  0  0  0
   -4.9276    2.7408   -3.1763 O   0  0  0  0  0  0  0  0  0  0  0  0
   -3.0888    2.1835   -1.6789 C   0  0  1  0  0  0  0  0  0  0  0  0
   -2.0018    2.0522   -2.5576 O   0  0  0  0  0  0  0  0  0  0  0  0
   -1.5510   -1.6114    2.1256 C   0  0  0  0  0  0  0  0  0  0  0  0
   -1.7456   -2.8487    1.1920 C   0  0  0  0  0  0  0  0  0  0  0  0
   -0.4921   -3.2069    0.3053 C   0  0  2  0  0  0  0  0  0  0  0  0
   -0.7706   -2.4968   -1.1062 C   0  0  0  0  0  0  0  0  0  0  0  0
    0.7567   -2.3964    0.9167 C   0  0  2  0  0  0  0  0  0  0  0  0
    2.0761   -2.9684    0.3831 C   0  0  0  0  0  0  0  0  0  0  0  0
    2.2097   -4.4954    0.7426 C   0  0  0  0  0  0  0  0  0  0  0  0
    1.2182   -5.3995   -0.0402 C   0  0  2  0  0  0  0  0  0  0  0  0
    1.6418   -7.0824    0.0000 C   0  0  1  0  0  0  0  0  0  0  0  0
    1.9536   -8.5496    0.0000 C   0  0  0  0  0  0  0  0  0  0  0  0
    2.6001   -7.0869   -1.3906 C   0  0  0  0  0  0  0  0  0  0  0  0
    2.8203   -8.4266   -2.3388 C   0  0  0  0  0  0  0  0  0  0  0  0
    1.6308   -9.5438   -2.3914 C   0  0  2  0  0  0  0  0  0  0  0  0
    1.8852  -10.8973   -1.7913 O   0  0  0  0  0  0  0  0  0  0  0  0
    3.2139  -11.4968   -1.6749 C   0  0  2  0  0  0  0  0  0  0  0  0
    3.9933  -11.1412   -2.8256 O   0  0  0  0  0  0  0  0  0  0  0  0
    4.8401  -12.1622   -3.3517 C   0  0  0  0  0  0  0  0  0  0  0  0
    5.6855  -12.8791   -2.2792 C   0  0  2  0  0  0  0  0  0  0  0  0
    6.5397  -13.8190   -2.9407 O   0  0  0  0  0  0  0  0  0  0  0  0
    7.6432  -14.3798   -2.2117 C   0  0  1  0  0  0  0  0  0  0  0  0
    7.2374  -15.5826   -1.5714 O   0  0  0  0  0  0  0  0  0  0  0  0
    8.3368  -16.3369   -1.0794 C   0  0  2  0  0  0  0  0  0  0  0  0
    7.7799  -17.6507   -0.5039 C   0  0  0  0  0  0  0  0  0  0  0  0
    8.8178  -18.4906   -0.0783 O   0  0  0  0  0  0  0  0  0  0  0  0
    9.1020  -15.5253    0.0017 C   0  0  1  0  0  0  0  0  0  0  0  0
   10.1920  -16.2448    0.5241 O   0  0  0  0  0  0  0  0  0  0  0  0
    9.5770  -14.1911   -0.6014 C   0  0  2  0  0  0  0  0  0  0  0  0
   10.1860  -13.3955    0.3825 O   0  0  0  0  0  0  0  0  0  0  0  0
    8.3709  -13.4437   -1.2065 C   0  0  1  0  0  0  0  0  0  0  0  0
    8.7913  -12.2532   -1.8263 O   0  0  0  0  0  0  0  0  0  0  0  0
    4.7369  -13.5233   -1.2396 C   0  0  2  0  0  0  0  0  0  0  0  0
    4.8212  -14.9206   -1.2688 O   0  0  0  0  0  0  0  0  0  0  0  0
    3.2482  -13.1191   -1.3932 C   0  0  1  0  0  0  0  0  0  0  0  0
    2.6045  -13.6298   -0.2000 O   0  0  0  0  0  0  0  0  0  0  0  0
    2.0106  -14.9715   -0.2875 C   0  0  1  0  0  0  0  0  0  0  0  0
    2.8923  -16.0934    0.0950 O   0  0  0  0  0  0  0  0  0  0  0  0
    2.2032  -17.3881    0.0000 C   0  0  1  0  0  0  0  0  0  0  0  0
    2.9981  -18.6602    0.0000 C   0  0  0  0  0  0  0  0  0  0  0  0
    1.0457  -17.4251    1.0307 C   0  0  2  0  0  0  0  0  0  0  0  0
    0.3413  -18.6388    0.9509 O   0  0  0  0  0  0  0  0  0  0  0  0
    0.0764  -16.2702    0.7165 C   0  0  1  0  0  0  0  0  0  0  0  0
   -0.9460  -16.2184    1.6799 O   0  0  0  0  0  0  0  0  0  0  0  0
    0.8200  -14.9326    0.6930 C   0  0  1  0  0  0  0  0  0  0  0  0
   -0.0585  -13.9030    0.3136 O   0  0  0  0  0  0  0  0  0  0  0  0
    0.1915   -8.9262   -1.8095 C   0  0  1  0  0  0  0  0  0  0  0  0
   -0.6413   -8.4832   -3.0488 C   0  0  0  0  0  0  0  0  0  0  0  0
   -0.6156  -10.0820   -1.1383 C   0  0  0  0  0  0  0  0  0  0  0  0
   -0.7818  -11.1601   -2.0234 O   0  0  0  0  0  0  0  0  0  0  0  0
    0.2880   -7.6004   -0.7192 C   0  0  2  0  0  0  0  0  0  0  0  0
   -0.8655   -7.4104    0.3741 C   0  0  0  0  0  0  0  0  0  0  0  0
   -0.8700   -5.9650    1.0806 C   0  0  0  0  0  0  0  0  0  0  0  0
   -0.3520   -4.8921    0.0761 C   0  0  1  0  0  0  0  0  0  0  0  0
   -1.3221   -5.1343   -1.1832 C   0  0  0  0  0  0  0  0  0  0  0  0
    0.4960   -0.7643    0.7418 C   0  0  1  0  0  0  0  0  0  0  0  0
    2.5293    2.1708   -1.7509 H   0  0  0  0  0  0  0  0  0  0  0  0
    0.8415    2.0704   -0.9653 H   0  0  0  0  0  0  0  0  0  0  0  0
    3.8832   -0.0603    0.9209 H   0  0  0  0  0  0  0  0  0  0  0  0
    4.2561    1.5466    0.1725 H   0  0  0  0  0  0  0  0  0  0  0  0
    4.8349    0.2096    0.0000 H   0  0  0  0  0  0  0  0  0  0  0  0
    2.1284   -0.1837    1.9403 H   0  0  0  0  0  0  0  0  0  0  0  0
    0.3148    2.1430    1.3004 H   0  0  0  0  0  0  0  0  0  0  0  0
    1.3952    1.9512    2.6849 H   0  0  0  0  0  0  0  0  0  0  0  0
    0.1788   -0.0545    3.4017 H   0  0  0  0  0  0  0  0  0  0  0  0
   -1.1287    1.1480    3.1273 H   0  0  0  0  0  0  0  0  0  0  0  0
   -3.4953    2.2563    0.4621 H   0  0  0  0  0  0  0  0  0  0  0  0
   -4.0887    4.3024    1.0401 H   0  0  0  0  0  0  0  0  0  0  0  0
   -4.9774    5.9746    0.2876 H   0  0  0  0  0  0  0  0  0  0  0  0
   -3.6889    6.0404   -1.0896 H   0  0  0  0  0  0  0  0  0  0  0  0
   -2.8270    8.7370    0.7884 H   0  0  0  0  0  0  0  0  0  0  0  0
   -3.5645   10.6463    1.0993 H   0  0  0  0  0  0  0  0  0  0  0  0
   -3.0267   12.5367    0.8681 H   0  0  0  0  0  0  0  0  0  0  0  0
   -4.7640   12.2564    0.3635 H   0  0  0  0  0  0  0  0  0  0  0  0
   -4.1586   14.1311   -0.9223 H   0  0  0  0  0  0  0  0  0  0  0  0
   -2.1430   11.3635   -1.7312 H   0  0  0  0  0  0  0  0  0  0  0  0
   -0.9062   13.7211    0.3715 H   0  0  0  0  0  0  0  0  0  0  0  0
    1.0554   14.7991    1.1006 H   0  0  0  0  0  0  0  0  0  0  0  0
    3.1506   14.9888    0.5014 H   0  0  0  0  0  0  0  0  0  0  0  0
    2.1539   16.4998    0.7345 H   0  0  0  0  0  0  0  0  0  0  0  0
    3.3483   16.3528    0.0000 H   0  0  0  0  0  0  0  0  0  0  0  0
   -0.7983   15.7593    0.0387 H   0  0  0  0  0  0  0  0  0  0  0  0
    1.0110   17.2437   -1.5358 H   0  0  0  0  0  0  0  0  0  0  0  0
    0.5329   15.1080   -2.6236 H   0  0  0  0  0  0  0  0  0  0  0  0
   -0.8945   16.7641   -2.9637 H   0  0  0  0  0  0  0  0  0  0  0  0
   -2.0494   13.7950   -1.6661 H   0  0  0  0  0  0  0  0  0  0  0  0
    0.3142   12.7805   -2.9005 H   0  0  0  0  0  0  0  0  0  0  0  0
   -0.4589    9.7677   -1.6786 H   0  0  0  0  0  0  0  0  0  0  0  0
    0.1648    8.7013    0.0780 H   0  0  0  0  0  0  0  0  0  0  0  0
   -1.6276    7.5494   -1.1760 H   0  0  0  0  0  0  0  0  0  0  0  0
   -3.1512    7.8075   -2.7894 H   0  0  0  0  0  0  0  0  0  0  0  0
   -5.3230    2.9907   -0.4904 H   0  0  0  0  0  0  0  0  0  0  0  0
   -6.5861    4.6846   -0.8099 H   0  0  0  0  0  0  0  0  0  0  0  0
   -3.5084    4.1133   -2.6359 H   0  0  0  0  0  0  0  0  0  0  0  0
   -5.5377    2.0956   -2.7298 H   0  0  0  0  0  0  0  0  0  0  0  0
   -3.6038    1.2001   -1.6215 H   0  0  0  0  0  0  0  0  0  0  0  0
   -1.4613    2.8815   -2.4864 H   0  0  0  0  0  0  0  0  0  0  0  0
   -2.5070   -1.3345    2.6217 H   0  0  0  0  0  0  0  0  0  0  0  0
   -0.9156   -1.9685    2.9638 H   0  0  0  0  0  0  0  0  0  0  0  0
   -2.6577   -2.7582    0.5635 H   0  0  0  0  0  0  0  0  0  0  0  0
   -1.9585   -3.6628    1.9093 H   0  0  0  0  0  0  0  0  0  0  0  0
    0.0964   -2.5879   -1.7933 H   0  0  0  0  0  0  0  0  0  0  0  0
   -1.1168   -1.4598   -1.0659 H   0  0  0  0  0  0  0  0  0  0  0  0
   -1.6830   -2.8162   -1.6384 H   0  0  0  0  0  0  0  0  0  0  0  0
    0.8452   -2.6231    1.9994 H   0  0  0  0  0  0  0  0  0  0  0  0
    2.1750   -2.8091   -0.7109 H   0  0  0  0  0  0  0  0  0  0  0  0
    2.9084   -2.4246    0.8779 H   0  0  0  0  0  0  0  0  0  0  0  0
    3.2382   -4.8033    0.4538 H   0  0  0  0  0  0  0  0  0  0  0  0
    2.1044   -4.6609    1.8357 H   0  0  0  0  0  0  0  0  0  0  0  0
    1.3816   -4.9869   -1.0514 H   0  0  0  0  0  0  0  0  0  0  0  0
    1.3796   -8.8339    0.9236 H   0  0  0  0  0  0  0  0  0  0  0  0
    2.9703   -8.4716    0.4722 H   0  0  0  0  0  0  0  0  0  0  0  0
    2.1760   -9.5962    0.0000 H   0  0  0  0  0  0  0  0  0  0  0  0
    2.1817   -6.4206   -2.1716 H   0  0  0  0  0  0  0  0  0  0  0  0
    3.5944   -6.6378   -1.1733 H   0  0  0  0  0  0  0  0  0  0  0  0
    3.1163   -8.1057   -3.3604 H   0  0  0  0  0  0  0  0  0  0  0  0
    3.7251   -8.9275   -1.9440 H   0  0  0  0  0  0  0  0  0  0  0  0
    1.5027   -9.7924   -3.4673 H   0  0  0  0  0  0  0  0  0  0  0  0
    3.7057  -11.0402   -0.7903 H   0  0  0  0  0  0  0  0  0  0  0  0
    5.5434  -11.6794   -4.0634 H   0  0  0  0  0  0  0  0  0  0  0  0
    4.2395  -12.8863   -3.9424 H   0  0  0  0  0  0  0  0  0  0  0  0
    6.2621  -12.0511   -1.8129 H   0  0  0  0  0  0  0  0  0  0  0  0
    8.3850  -14.6384   -3.0019 H   0  0  0  0  0  0  0  0  0  0  0  0
    9.0151  -16.6067   -1.9219 H   0  0  0  0  0  0  0  0  0  0  0  0
    7.1008  -17.4219    0.3498 H   0  0  0  0  0  0  0  0  0  0  0  0
    7.2008  -18.1693   -1.3010 H   0  0  0  0  0  0  0  0  0  0  0  0
    8.3823  -19.2958    0.3048 H   0  0  0  0  0  0  0  0  0  0  0  0
    8.4019  -15.3060    0.8380 H   0  0  0  0  0  0  0  0  0  0  0  0
   10.7923  -16.4754   -0.2341 H   0  0  0  0  0  0  0  0  0  0  0  0
   10.3033  -14.4008   -1.4241 H   0  0  0  0  0  0  0  0  0  0  0  0
   11.1174  -13.7257    0.4857 H   0  0  0  0  0  0  0  0  0  0  0  0
    7.6736  -13.1877   -0.3787 H   0  0  0  0  0  0  0  0  0  0  0  0
    9.4034  -12.5018   -2.5680 H   0  0  0  0  0  0  0  0  0  0  0  0
    5.0874  -13.1363   -0.2473 H   0  0  0  0  0  0  0  0  0  0  0  0
    5.1358  -15.2111   -0.3709 H   0  0  0  0  0  0  0  0  0  0  0  0
    2.8101  -13.5881   -2.3009 H   0  0  0  0  0  0  0  0  0  0  0  0
    1.6087  -15.1399   -1.3131 H   0  0  0  0  0  0  0  0  0  0  0  0
    1.7227  -17.3984   -1.0149 H   0  0  0  0  0  0  0  0  0  0  0  0
    2.2032  -19.3553   -0.3518 H   0  0  0  0  0  0  0  0  0  0  0  0
    3.6689  -18.3785   -0.8425 H   0  0  0  0  0  0  0  0  0  0  0  0
    3.5651  -19.5676    0.0000 H   0  0  0  0  0  0  0  0  0  0  0  0
    1.4950  -17.3095    2.0466 H   0  0  0  0  0  0  0  0  0  0  0  0
   -0.0742  -18.7927    1.8393 H   0  0  0  0  0  0  0  0  0  0  0  0
   -0.3633  -16.4245   -0.3002 H   0  0  0  0  0  0  0  0  0  0  0  0
   -1.6791  -16.8059    1.3587 H   0  0  0  0  0  0  0  0  0  0  0  0
    1.2392  -14.7269    1.7076 H   0  0  0  0  0  0  0  0  0  0  0  0
   -0.5269  -13.6020    1.1352 H   0  0  0  0  0  0  0  0  0  0  0  0
   -0.1203   -7.6694   -3.5980 H   0  0  0  0  0  0  0  0  0  0  0  0
   -0.7845   -9.3212   -3.7644 H   0  0  0  0  0  0  0  0  0  0  0  0
   -1.6462   -8.1238   -2.7450 H   0  0  0  0  0  0  0  0  0  0  0  0
   -0.0834  -10.4315   -0.2277 H   0  0  0  0  0  0  0  0  0  0  0  0
   -1.6218   -9.7231   -0.8374 H   0  0  0  0  0  0  0  0  0  0  0  0
   -1.2171  -11.8838   -1.5023 H   0  0  0  0  0  0  0  0  0  0  0  0
    0.1972   -6.8730   -1.5153 H   0  0  0  0  0  0  0  0  0  0  0  0
   -1.8405   -7.5686   -0.1279 H   0  0  0  0  0  0  0  0  0  0  0  0
   -0.8372   -8.1929    1.1596 H   0  0  0  0  0  0  0  0  0  0  0  0
   -0.2047   -5.9601    1.9728 H   0  0  0  0  0  0  0  0  0  0  0  0
   -1.9041   -5.7876    1.4405 H   0  0  0  0  0  0  0  0  0  0  0  0
   -2.3266   -4.7189   -0.9517 H   0  0  0  0  0  0  0  0  0  0  0  0
   -0.8761   -4.7213   -2.1118 H   0  0  0  0  0  0  0  0  0  0  0  0
   -1.6453   -6.1076   -1.5664 H   0  0  0  0  0  0  0  0  0  0  0  0
    0.4198   -0.5003   -0.3202 H   0  0  0  0  0  0  0  0  0  0  0  0
  1  2  2  0  0  0  0
  1 97  1  0  0  0  0
  1 98  1  0  0  0  0
  2  3  1  0  0  0  0
  3 99  1  0  0  0  0
  3100  1  0  0  0  0
  3101  1  0  0  0  0
  4  2  1  0  0  0  0
  4  5  1  0  0  0  0
  4102  1  6  0  0  0
  5  6  1  0  0  0  0
  5103  1  0  0  0  0
  5104  1  0  0  0  0
  6  7  1  0  0  0  0
  6105  1  0  0  0  0
  6106  1  0  0  0  0
  7  8  1  6  0  0  0
  7 43  1  0  0  0  0
  8  9  2  0  0  0  0
  8 10  1  0  0  0  0
 11 10  1  0  0  0  0
 11 12  1  0  0  0  0
 11107  1  6  0  0  0
 12 13  1  0  0  0  0
 13 14  1  0  0  0  0
 13 37  1  0  0  0  0
 13108  1  6  0  0  0
 14 15  1  0  0  0  0
 14109  1  0  0  0  0
 14110  1  0  0  0  0
 16 15  1  0  0  0  0
 16 17  1  0  0  0  0
 16111  1  1  0  0  0
 17 18  1  0  0  0  0
 18 19  1  0  0  0  0
 18 21  1  0  0  0  0
 18112  1  1  0  0  0
 19 20  1  0  0  0  0
 19113  1  0  0  0  0
 19114  1  0  0  0  0
 20115  1  0  0  0  0
 21 22  1  0  0  0  0
 21 33  1  0  0  0  0
 21116  1  1  0  0  0
 23 22  1  0  0  0  0
 23 24  1  0  0  0  0
 23117  1  6  0  0  0
 24 25  1  0  0  0  0
 25 26  1  0  0  0  0
 25 27  1  0  0  0  0
 25118  1  1  0  0  0
 26119  1  0  0  0  0
 26120  1  0  0  0  0
 26121  1  0  0  0  0
 27 28  1  0  0  0  0
 27 29  1  0  0  0  0
 27122  1  6  0  0  0
 28123  1  0  0  0  0
 29 30  1  0  0  0  0
 29 31  1  0  0  0  0
 29124  1  1  0  0  0
 30125  1  0  0  0  0
 31 32  1  0  0  0  0
 31 23  1  0  0  0  0
 31126  1  1  0  0  0
 32127  1  0  0  0  0
 33 34  1  0  0  0  0
 33 35  1  0  0  0  0
 33128  1  1  0  0  0
 34129  1  0  0  0  0
 35 36  1  0  0  0  0
 35 16  1  0  0  0  0
 35130  1  6  0  0  0
 36131  1  0  0  0  0
 37 38  1  0  0  0  0
 37 39  1  0  0  0  0
 37132  1  1  0  0  0
 38133  1  0  0  0  0
 39 40  1  0  0  0  0
 39 41  1  0  0  0  0
 39134  1  6  0  0  0
 40135  1  0  0  0  0
 41 42  1  0  0  0  0
 41 11  1  0  0  0  0
 41136  1  1  0  0  0
 42137  1  0  0  0  0
 43 44  1  0  0  0  0
 43138  1  0  0  0  0
 43139  1  0  0  0  0
 44 45  1  0  0  0  0
 44140  1  0  0  0  0
 44141  1  0  0  0  0
 45 46  1  1  0  0  0
 45 47  1  0  0  0  0
 46142  1  0  0  0  0
 46143  1  0  0  0  0
 46144  1  0  0  0  0
 47 48  1  0  0  0  0
 47 96  1  0  0  0  0
 47145  1  6  0  0  0
 48 49  1  0  0  0  0
 48146  1  0  0  0  0
 48147  1  0  0  0  0
 49148  1  0  0  0  0
 49149  1  0  0  0  0
 50 49  1  0  0  0  0
 50 51  1  0  0  0  0
 50150  1  1  0  0  0
 51 52  1  6  0  0  0
 51 53  1  0  0  0  0
 52151  1  0  0  0  0
 52152  1  0  0  0  0
 52153  1  0  0  0  0
 53 54  1  0  0  0  0
 53154  1  0  0  0  0
 53155  1  0  0  0  0
 54 55  1  0  0  0  0
 54156  1  0  0  0  0
 54157  1  0  0  0  0
 55 56  1  0  0  0  0
 55 87  1  0  0  0  0
 55158  1  1  0  0  0
 57 56  1  0  0  0  0
 57 58  1  0  0  0  0
 57159  1  1  0  0  0
 58 59  1  0  0  0  0
 59 60  1  0  0  0  0
 59160  1  0  0  0  0
 59161  1  0  0  0  0
 60 61  1  0  0  0  0
 60 73  1  0  0  0  0
 60162  1  1  0  0  0
 62 61  1  0  0  0  0
 62 63  1  0  0  0  0
 62163  1  1  0  0  0
 63 64  1  0  0  0  0
 64 65  1  0  0  0  0
 64 67  1  0  0  0  0
 64164  1  6  0  0  0
 65 66  1  0  0  0  0
 65165  1  0  0  0  0
 65166  1  0  0  0  0
 66167  1  0  0  0  0
 67 68  1  0  0  0  0
 67 69  1  0  0  0  0
 67168  1  1  0  0  0
 68169  1  0  0  0  0
 69 70  1  0  0  0  0
 69 71  1  0  0  0  0
 69170  1  6  0  0  0
 70171  1  0  0  0  0
 71 72  1  0  0  0  0
 71 62  1  0  0  0  0
 71172  1  1  0  0  0
 72173  1  0  0  0  0
 73 74  1  0  0  0  0
 73 75  1  0  0  0  0
 73174  1  1  0  0  0
 74175  1  0  0  0  0
 75 76  1  0  0  0  0
 75 57  1  0  0  0  0
 75176  1  6  0  0  0
 77 76  1  0  0  0  0
 77 78  1  0  0  0  0
 77177  1  6  0  0  0
 78 79  1  0  0  0  0
 79 80  1  0  0  0  0
 79 81  1  0  0  0  0
 79178  1  6  0  0  0
 80179  1  0  0  0  0
 80180  1  0  0  0  0
 80181  1  0  0  0  0
 81 82  1  0  0  0  0
 81 83  1  0  0  0  0
 81182  1  1  0  0  0
 82183  1  0  0  0  0
 83 84  1  0  0  0  0
 83 85  1  0  0  0  0
 83184  1  6  0  0  0
 84185  1  0  0  0  0
 85 86  1  0  0  0  0
 85 77  1  0  0  0  0
 85186  1  6  0  0  0
 86187  1  0  0  0  0
 87 88  1  6  0  0  0
 87 89  1  0  0  0  0
 87 91  1  0  0  0  0
 88188  1  0  0  0  0
 88189  1  0  0  0  0
 88190  1  0  0  0  0
 89 90  1  0  0  0  0
 89191  1  0  0  0  0
 89192  1  0  0  0  0
 90193  1  0  0  0  0
 91 92  1  0  0  0  0
 91 51  1  0  0  0  0
 91194  1  1  0  0  0
 92 93  1  0  0  0  0
 92195  1  0  0  0  0
 92196  1  0  0  0  0
 93 94  1  0  0  0  0
 93197  1  0  0  0  0
 93198  1  0  0  0  0
 94 95  1  6  0  0  0
 94 45  1  0  0  0  0
 94 50  1  0  0  0  0
 95199  1  0  0  0  0
 95200  1  0  0  0  0
 95201  1  0  0  0  0
 96  4  1  0  0  0  0
 96  7  1  0  0  0  0
 96202  1  1  0  0  0
M  END
>  <IDENTIFIER>
CNP0335283.3

>  <Energy>
7760.28

$$$$
