
 OpenBabel09122511123D

 41 42  0  0  0  0  0  0  0  0999 V2000
   -3.6603   -1.9918    0.6100 C   0  0  0  0  0  0  0  0  0  0  0  0
   -4.6981   -1.0902    0.7294 O   0  0  0  0  0  0  0  0  0  0  0  0
   -4.6102    0.2585    0.5735 C   0  0  0  0  0  0  0  0  0  0  0  0
   -3.3891    0.9092    0.2896 C   0  0  0  0  0  0  0  0  0  0  0  0
   -3.3312    2.3136    0.1333 C   0  0  0  0  0  0  0  0  0  0  0  0
   -2.0882    3.1150   -0.1296 C   0  0  0  0  0  0  0  0  0  0  0  0
   -0.8773    2.6828   -0.2743 N   0  0  0  0  0  0  0  0  0  0  0  0
   -0.5089    1.3622   -0.3694 N   0  0  0  0  0  0  0  0  0  0  0  0
    0.3433    0.8253    0.5400 C   0  0  0  0  0  0  0  0  0  0  0  0
    0.7331    1.5025    1.4813 O   0  0  0  0  0  0  0  0  0  0  0  0
    0.7934   -0.6112    0.4267 C   0  0  0  0  0  0  0  0  0  0  0  0
    2.3021   -0.6885    0.4287 C   0  0  0  0  0  0  0  0  0  0  0  0
    2.8889   -0.2782    1.4162 O   0  0  0  0  0  0  0  0  0  0  0  0
    2.9769   -1.2075   -0.6424 N   0  0  0  0  0  0  0  0  0  0  0  0
    4.4038   -1.3362   -0.7975 C   0  0  0  0  0  0  0  0  0  0  0  0
    4.8859   -1.9000   -1.9940 C   0  0  0  0  0  0  0  0  0  0  0  0
    6.2550   -2.0537   -2.2217 C   0  0  0  0  0  0  0  0  0  0  0  0
    7.1803   -1.6476   -1.2597 C   0  0  0  0  0  0  0  0  0  0  0  0
    8.8965   -1.8546   -1.5830 Cl  0  0  0  0  0  0  0  0  0  0  0  0
    6.7289   -1.0835   -0.0593 C   0  0  0  0  0  0  0  0  0  0  0  0
    7.8638   -0.5571    1.1788 Cl  0  0  0  0  0  0  0  0  0  0  0  0
    5.3563   -0.9284    0.1711 C   0  0  0  0  0  0  0  0  0  0  0  0
   -4.5250    3.0437    0.2742 C   0  0  0  0  0  0  0  0  0  0  0  0
   -5.7318    2.4067    0.5588 C   0  0  0  0  0  0  0  0  0  0  0  0
   -5.7790    1.0178    0.7101 C   0  0  0  0  0  0  0  0  0  0  0  0
   -6.9460    0.4021    0.9935 O   0  0  0  0  0  0  0  0  0  0  0  0
   -4.0475   -3.0154    0.7907 H   0  0  0  0  0  0  0  0  0  0  0  0
   -2.8717   -1.7745    1.3618 H   0  0  0  0  0  0  0  0  0  0  0  0
   -3.2335   -1.9512   -0.4150 H   0  0  0  0  0  0  0  0  0  0  0  0
   -2.5145    0.3003    0.2141 H   0  0  0  0  0  0  0  0  0  0  0  0
   -2.2050    4.1945   -0.1279 H   0  0  0  0  0  0  0  0  0  0  0  0
   -0.8718    0.7911   -1.1479 H   0  0  0  0  0  0  0  0  0  0  0  0
    0.3698   -1.0711   -0.4917 H   0  0  0  0  0  0  0  0  0  0  0  0
    0.4104   -1.1841    1.2984 H   0  0  0  0  0  0  0  0  0  0  0  0
    2.4000   -1.5360   -1.4329 H   0  0  0  0  0  0  0  0  0  0  0  0
    4.1938   -2.2243   -2.7610 H   0  0  0  0  0  0  0  0  0  0  0  0
    6.5963   -2.4898   -3.1519 H   0  0  0  0  0  0  0  0  0  0  0  0
    5.0878   -0.4874    1.1122 H   0  0  0  0  0  0  0  0  0  0  0  0
   -4.5256    4.1225    0.1721 H   0  0  0  0  0  0  0  0  0  0  0  0
   -6.6321    2.9983    0.6674 H   0  0  0  0  0  0  0  0  0  0  0  0
   -7.7727    0.8925    1.1078 H   0  0  0  0  0  0  0  0  0  0  0  0
  1  2  1  0  0  0  0
  1 27  1  0  0  0  0
  1 28  1  0  0  0  0
  1 29  1  0  0  0  0
  2  3  1  0  0  0  0
  3  4  2  0  0  0  0
  4  5  1  0  0  0  0
  4 30  1  0  0  0  0
  5  6  1  0  0  0  0
  5 23  2  0  0  0  0
  6  7  2  3  0  0  0
  6 31  1  0  0  0  0
  7  8  1  0  0  0  0
  8  9  1  0  0  0  0
  8 32  1  0  0  0  0
  9 10  2  0  0  0  0
  9 11  1  0  0  0  0
 11 12  1  0  0  0  0
 11 33  1  0  0  0  0
 11 34  1  0  0  0  0
 12 13  2  0  0  0  0
 12 14  1  0  0  0  0
 14 15  1  0  0  0  0
 14 35  1  0  0  0  0
 15 16  2  0  0  0  0
 16 17  1  0  0  0  0
 16 36  1  0  0  0  0
 17 18  2  0  0  0  0
 17 37  1  0  0  0  0
 18 19  1  0  0  0  0
 18 20  1  0  0  0  0
 20 21  1  0  0  0  0
 20 22  2  0  0  0  0
 22 15  1  0  0  0  0
 22 38  1  0  0  0  0
 23 24  1  0  0  0  0
 23 39  1  0  0  0  0
 24 25  2  0  0  0  0
 24 40  1  0  0  0  0
 25 26  1  0  0  0  0
 25  3  1  0  0  0  0
 26 41  1  0  0  0  0
M  END
>  <IDENTIFIER>
CNP0568625.0

>  <Energy>
309.303

$$$$
