
 OpenBabel09112516183D

 37 40  0  0  0  0  0  0  0  0999 V2000
   -1.5555   -1.6758   -0.8584 N   0  0  0  0  0  0  0  0  0  0  0  0
   -1.8820   -1.2746    0.5158 C   0  0  2  0  0  0  0  0  0  0  0  0
   -3.4104   -1.1112    0.6821 C   0  0  0  0  0  0  0  0  0  0  0  0
   -4.3719   -0.0610   -0.5162 S   0  3  2  0  0  0  0  0  0  0  0  0
   -4.0833   -1.0852   -1.8657 O   0  5  0  0  0  0  0  0  0  0  0  0
   -3.2472    1.2666   -1.1245 C   0  0  0  0  0  0  0  0  0  0  0  0
   -1.8839    0.9950   -0.9545 O   0  0  0  0  0  0  0  0  0  0  0  0
   -1.6309    1.2206    0.3600 N   0  0  2  0  0  0  0  0  0  0  0  0
   -0.7285    2.3816    0.4890 C   0  0  0  0  0  0  0  0  0  0  0  0
    0.6134    2.1579   -0.2399 C   0  0  0  0  0  0  0  0  0  0  0  0
    1.1530    0.8267    0.1618 C   0  0  0  0  0  0  0  0  0  0  0  0
    0.3903   -0.1585    0.7574 C   0  0  0  0  0  0  0  0  0  0  0  0
    1.1509   -1.2403    1.0477 N   0  0  0  0  0  0  0  0  0  0  0  0
    2.3853   -0.9499    0.5895 C   0  0  0  0  0  0  0  0  0  0  0  0
    3.5168   -1.7621    0.6256 C   0  0  0  0  0  0  0  0  0  0  0  0
    4.7096   -1.2538    0.0745 C   0  0  0  0  0  0  0  0  0  0  0  0
    6.2906   -2.3240    0.0867 Br  0  0  0  0  0  0  0  0  0  0  0  0
    4.7426    0.0430   -0.4893 C   0  0  0  0  0  0  0  0  0  0  0  0
    3.5849    0.8420   -0.5110 C   0  0  0  0  0  0  0  0  0  0  0  0
    2.4201    0.3084    0.0350 C   0  0  0  0  0  0  0  0  0  0  0  0
   -1.1000   -0.0126    0.9916 C   0  0  2  0  0  0  0  0  0  0  0  0
   -2.0533   -2.5700   -1.0756 H   0  0  0  0  0  0  0  0  0  0  0  0
   -0.5362   -1.8876   -0.9410 H   0  0  0  0  0  0  0  0  0  0  0  0
   -1.5668   -2.0998    1.1953 H   0  0  0  0  0  0  0  0  0  0  0  0
   -3.6415   -0.7771    1.7157 H   0  0  0  0  0  0  0  0  0  0  0  0
   -3.8569   -2.1242    0.5851 H   0  0  0  0  0  0  0  0  0  0  0  0
   -3.5348    2.2432   -0.6715 H   0  0  0  0  0  0  0  0  0  0  0  0
   -3.4297    1.3985   -2.2113 H   0  0  0  0  0  0  0  0  0  0  0  0
   -0.5302    2.5438    1.5724 H   0  0  0  0  0  0  0  0  0  0  0  0
   -1.2172    3.3016    0.1028 H   0  0  0  0  0  0  0  0  0  0  0  0
    1.3028    2.9715    0.0732 H   0  0  0  0  0  0  0  0  0  0  0  0
    0.5045    2.1798   -1.3445 H   0  0  0  0  0  0  0  0  0  0  0  0
    0.8425   -2.1304    1.4976 H   0  0  0  0  0  0  0  0  0  0  0  0
    3.4768   -2.7529    1.0587 H   0  0  0  0  0  0  0  0  0  0  0  0
    5.6629    0.4270   -0.9101 H   0  0  0  0  0  0  0  0  0  0  0  0
    3.6005    1.8352   -0.9410 H   0  0  0  0  0  0  0  0  0  0  0  0
   -1.2562    0.0709    2.0894 H   0  0  0  0  0  0  0  0  0  0  0  0
  1 22  1  0  0  0  0
  1 23  1  0  0  0  0
  2  1  1  0  0  0  0
  2  3  1  0  0  0  0
  2 24  1  1  0  0  0
  3  4  1  0  0  0  0
  3 25  1  0  0  0  0
  3 26  1  0  0  0  0
  4  5  1  6  0  0  0
  4  6  1  0  0  0  0
  6  7  1  0  0  0  0
  6 27  1  0  0  0  0
  6 28  1  0  0  0  0
  8  7  1  6  0  0  0
  8  9  1  0  0  0  0
  9 10  1  0  0  0  0
  9 29  1  0  0  0  0
  9 30  1  0  0  0  0
 10 11  1  0  0  0  0
 10 31  1  0  0  0  0
 10 32  1  0  0  0  0
 11 12  2  0  0  0  0
 12 13  1  0  0  0  0
 13 14  1  0  0  0  0
 13 33  1  0  0  0  0
 14 15  2  0  0  0  0
 15 16  1  0  0  0  0
 15 34  1  0  0  0  0
 16 17  1  0  0  0  0
 16 18  2  0  0  0  0
 18 19  1  0  0  0  0
 18 35  1  0  0  0  0
 19 20  2  0  0  0  0
 19 36  1  0  0  0  0
 20 11  1  0  0  0  0
 20 14  1  0  0  0  0
 21 12  1  0  0  0  0
 21  2  1  0  0  0  0
 21  8  1  0  0  0  0
 21 37  1  1  0  0  0
M  CHG  2   4   1   5  -1
M  END
>  <IDENTIFIER>
CNP0595685.1

>  <Energy>
550.043

$$$$
