
 OpenBabel09062505383D

 89 95  0  0  0  0  0  0  0  0999 V2000
   -5.8791   -5.2843   -1.7118 C   0  0  0  0  0  0  0  0  0  0  0  0
   -4.6518   -4.7612   -1.3599 O   0  0  0  0  0  0  0  0  0  0  0  0
   -4.3755   -3.4434   -1.1747 C   0  0  0  0  0  0  0  0  0  0  0  0
   -5.3545   -2.4349   -1.3474 C   0  0  0  0  0  0  0  0  0  0  0  0
   -5.0317   -1.0854   -1.1593 C   0  0  0  0  0  0  0  0  0  0  0  0
   -3.7361   -0.7271   -0.7759 C   0  0  0  0  0  0  0  0  0  0  0  0
   -2.7803   -1.7211   -0.5862 C   0  0  0  0  0  0  0  0  0  0  0  0
   -3.0693   -3.0792   -0.8025 C   0  0  0  0  0  0  0  0  0  0  0  0
   -2.1171   -4.0448   -0.6333 O   0  0  0  0  0  0  0  0  0  0  0  0
   -0.7769   -3.8306   -0.5035 C   0  0  0  0  0  0  0  0  0  0  0  0
   -0.0910   -2.8606   -1.2657 C   0  0  0  0  0  0  0  0  0  0  0  0
    1.2570   -2.5932   -1.0289 C   0  0  0  0  0  0  0  0  0  0  0  0
    1.9554   -3.3065   -0.0462 C   0  0  0  0  0  0  0  0  0  0  0  0
    1.2909   -4.3244    0.6625 C   0  0  0  0  0  0  0  0  0  0  0  0
   -0.0639   -4.5812    0.4347 C   0  0  0  0  0  0  0  0  0  0  0  0
    3.3982   -2.9877    0.2660 C   0  0  0  0  0  0  0  0  0  0  0  0
    3.5763   -1.6055    0.9757 C   0  0  1  0  0  0  0  0  0  0  0  0
    3.3807   -0.4127    0.0200 C   0  0  0  0  0  0  0  0  0  0  0  0
    2.4667    0.6420    0.2836 C   0  0  0  0  0  0  0  0  0  0  0  0
    1.6968    0.5986    1.5801 C   0  0  0  0  0  0  0  0  0  0  0  0
    2.4806   -0.1620    2.6421 C   0  0  0  0  0  0  0  0  0  0  0  0
    2.6959   -1.5405    2.1798 N   0  0  0  0  0  0  0  0  0  0  0  0
    3.2190   -2.3563    3.2937 C   0  0  0  0  0  0  0  0  0  0  0  0
    2.3875    1.7506   -0.6208 C   0  0  0  0  0  0  0  0  0  0  0  0
    3.2363    1.7981   -1.7434 C   0  0  0  0  0  0  0  0  0  0  0  0
    3.1347    2.9074   -2.5319 O   0  0  0  0  0  0  0  0  0  0  0  0
    3.8867    3.2491   -3.6354 C   0  0  0  0  0  0  0  0  0  0  0  0
    4.1498    0.7474   -1.9959 C   0  0  0  0  0  0  0  0  0  0  0  0
    4.9759    0.8132   -3.0738 O   0  0  0  0  0  0  0  0  0  0  0  0
    5.9510   -0.0997   -3.4215 C   0  0  0  0  0  0  0  0  0  0  0  0
    4.2036   -0.3386   -1.1112 C   0  0  0  0  0  0  0  0  0  0  0  0
    1.5936    2.8553   -0.4562 O   0  0  0  0  0  0  0  0  0  0  0  0
    0.3594    3.0595    0.0766 C   0  0  0  0  0  0  0  0  0  0  0  0
    0.0027    4.3499    0.5563 C   0  0  0  0  0  0  0  0  0  0  0  0
    0.8262    5.4344    0.4782 O   0  0  0  0  0  0  0  0  0  0  0  0
    2.0361    5.5416   -0.1751 C   0  0  0  0  0  0  0  0  0  0  0  0
   -1.2684    4.5473    1.1410 C   0  0  0  0  0  0  0  0  0  0  0  0
   -1.6242    5.7637    1.6137 O   0  0  0  0  0  0  0  0  0  0  0  0
   -2.1873    3.4852    1.2235 C   0  0  0  0  0  0  0  0  0  0  0  0
   -3.5447    3.6587    1.8384 C   0  0  0  0  0  0  0  0  0  0  0  0
   -3.8699    2.4039    2.6344 C   0  0  0  0  0  0  0  0  0  0  0  0
   -3.9768    1.2543    1.7110 N   0  0  0  0  0  0  0  0  0  0  0  0
   -4.3064    0.0374    2.4747 C   0  0  0  0  0  0  0  0  0  0  0  0
   -2.7982    1.0400    0.8160 C   0  0  1  0  0  0  0  0  0  0  0  0
   -3.2982    0.7015   -0.6131 C   0  0  0  0  0  0  0  0  0  0  0  0
   -1.8505    2.2283    0.7120 C   0  0  0  0  0  0  0  0  0  0  0  0
   -0.5842    2.0290    0.1351 C   0  0  0  0  0  0  0  0  0  0  0  0
   -5.7943   -6.3875   -1.7889 H   0  0  0  0  0  0  0  0  0  0  0  0
   -6.1997   -4.8838   -2.6970 H   0  0  0  0  0  0  0  0  0  0  0  0
   -6.6363   -5.0406   -0.9361 H   0  0  0  0  0  0  0  0  0  0  0  0
   -6.3663   -2.6830   -1.6386 H   0  0  0  0  0  0  0  0  0  0  0  0
   -5.7872   -0.3258   -1.3156 H   0  0  0  0  0  0  0  0  0  0  0  0
   -1.7984   -1.4073   -0.2747 H   0  0  0  0  0  0  0  0  0  0  0  0
   -0.6056   -2.2858   -2.0251 H   0  0  0  0  0  0  0  0  0  0  0  0
    1.7467   -1.8221   -1.6076 H   0  0  0  0  0  0  0  0  0  0  0  0
    1.8106   -4.8994    1.4184 H   0  0  0  0  0  0  0  0  0  0  0  0
   -0.5697   -5.3411    1.0170 H   0  0  0  0  0  0  0  0  0  0  0  0
    4.0129   -3.0767   -0.6523 H   0  0  0  0  0  0  0  0  0  0  0  0
    3.7967   -3.7672    0.9462 H   0  0  0  0  0  0  0  0  0  0  0  0
    4.6415   -1.5307    1.2947 H   0  0  0  0  0  0  0  0  0  0  0  0
    0.7339    0.0664    1.4325 H   0  0  0  0  0  0  0  0  0  0  0  0
    1.5202    1.6225    1.9691 H   0  0  0  0  0  0  0  0  0  0  0  0
    1.8689   -0.1576    3.5722 H   0  0  0  0  0  0  0  0  0  0  0  0
    3.4514    0.3428    2.8550 H   0  0  0  0  0  0  0  0  0  0  0  0
    2.5325   -2.3033    4.1663 H   0  0  0  0  0  0  0  0  0  0  0  0
    4.2271   -2.0075    3.6084 H   0  0  0  0  0  0  0  0  0  0  0  0
    3.2703   -3.4276    3.0211 H   0  0  0  0  0  0  0  0  0  0  0  0
    3.5398    4.2321   -4.0141 H   0  0  0  0  0  0  0  0  0  0  0  0
    3.7530    2.4997   -4.4434 H   0  0  0  0  0  0  0  0  0  0  0  0
    4.9576    3.3456   -3.3553 H   0  0  0  0  0  0  0  0  0  0  0  0
    6.4561    0.2458   -4.3464 H   0  0  0  0  0  0  0  0  0  0  0  0
    5.4960   -1.0938   -3.6157 H   0  0  0  0  0  0  0  0  0  0  0  0
    6.7103   -0.1753   -2.6136 H   0  0  0  0  0  0  0  0  0  0  0  0
    4.9172   -1.1307   -1.2856 H   0  0  0  0  0  0  0  0  0  0  0  0
    2.4064    6.5822   -0.0745 H   0  0  0  0  0  0  0  0  0  0  0  0
    1.9043    5.3257   -1.2577 H   0  0  0  0  0  0  0  0  0  0  0  0
    2.7891    4.8635    0.2760 H   0  0  0  0  0  0  0  0  0  0  0  0
   -1.0467    6.5387    1.5783 H   0  0  0  0  0  0  0  0  0  0  0  0
   -4.3056    3.7592    1.0333 H   0  0  0  0  0  0  0  0  0  0  0  0
   -3.5925    4.5624    2.4821 H   0  0  0  0  0  0  0  0  0  0  0  0
   -4.8500    2.5599    3.1372 H   0  0  0  0  0  0  0  0  0  0  0  0
   -3.0931    2.2309    3.4146 H   0  0  0  0  0  0  0  0  0  0  0  0
   -5.2448    0.1849    3.0511 H   0  0  0  0  0  0  0  0  0  0  0  0
   -3.4874   -0.2170    3.1847 H   0  0  0  0  0  0  0  0  0  0  0  0
   -4.4700   -0.8241    1.7975 H   0  0  0  0  0  0  0  0  0  0  0  0
   -2.1516    0.2369    1.2376 H   0  0  0  0  0  0  0  0  0  0  0  0
   -2.4736    0.8213   -1.3500 H   0  0  0  0  0  0  0  0  0  0  0  0
   -4.0920    1.4246   -0.9030 H   0  0  0  0  0  0  0  0  0  0  0  0
   -0.3292    1.0547   -0.2599 H   0  0  0  0  0  0  0  0  0  0  0  0
  1  2  1  0  0  0  0
  1 48  1  0  0  0  0
  1 49  1  0  0  0  0
  1 50  1  0  0  0  0
  2  3  1  0  0  0  0
  3  4  2  0  0  0  0
  4  5  1  0  0  0  0
  4 51  1  0  0  0  0
  5  6  2  0  0  0  0
  5 52  1  0  0  0  0
  6  7  1  0  0  0  0
  7  8  2  0  0  0  0
  7 53  1  0  0  0  0
  8  9  1  0  0  0  0
  8  3  1  0  0  0  0
  9 10  1  0  0  0  0
 10 11  2  0  0  0  0
 11 12  1  0  0  0  0
 11 54  1  0  0  0  0
 12 13  2  0  0  0  0
 12 55  1  0  0  0  0
 13 14  1  0  0  0  0
 13 16  1  0  0  0  0
 14 15  2  0  0  0  0
 14 56  1  0  0  0  0
 15 10  1  0  0  0  0
 15 57  1  0  0  0  0
 16 17  1  0  0  0  0
 16 58  1  0  0  0  0
 16 59  1  0  0  0  0
 17 18  1  0  0  0  0
 17 22  1  0  0  0  0
 17 60  1  1  0  0  0
 18 19  1  0  0  0  0
 19 20  1  0  0  0  0
 19 24  2  0  0  0  0
 20 21  1  0  0  0  0
 20 61  1  0  0  0  0
 20 62  1  0  0  0  0
 21 22  1  0  0  0  0
 21 63  1  0  0  0  0
 21 64  1  0  0  0  0
 22 23  1  0  0  0  0
 23 65  1  0  0  0  0
 23 66  1  0  0  0  0
 23 67  1  0  0  0  0
 24 25  1  0  0  0  0
 24 32  1  0  0  0  0
 25 26  1  0  0  0  0
 25 28  2  0  0  0  0
 26 27  1  0  0  0  0
 27 68  1  0  0  0  0
 27 69  1  0  0  0  0
 27 70  1  0  0  0  0
 28 29  1  0  0  0  0
 28 31  1  0  0  0  0
 29 30  1  0  0  0  0
 30 71  1  0  0  0  0
 30 72  1  0  0  0  0
 30 73  1  0  0  0  0
 31 18  2  0  0  0  0
 31 74  1  0  0  0  0
 32 33  1  0  0  0  0
 33 34  2  0  0  0  0
 34 35  1  0  0  0  0
 34 37  1  0  0  0  0
 35 36  1  0  0  0  0
 36 75  1  0  0  0  0
 36 76  1  0  0  0  0
 36 77  1  0  0  0  0
 37 38  1  0  0  0  0
 37 39  2  0  0  0  0
 38 78  1  0  0  0  0
 39 40  1  0  0  0  0
 40 41  1  0  0  0  0
 40 79  1  0  0  0  0
 40 80  1  0  0  0  0
 41 42  1  0  0  0  0
 41 81  1  0  0  0  0
 41 82  1  0  0  0  0
 42 43  1  0  0  0  0
 43 83  1  0  0  0  0
 43 84  1  0  0  0  0
 43 85  1  0  0  0  0
 44 42  1  0  0  0  0
 44 45  1  0  0  0  0
 44 46  1  0  0  0  0
 44 86  1  1  0  0  0
 45  6  1  0  0  0  0
 45 87  1  0  0  0  0
 45 88  1  0  0  0  0
 46 47  2  0  0  0  0
 46 39  1  0  0  0  0
 47 33  1  0  0  0  0
 47 89  1  0  0  0  0
M  END
>  <IDENTIFIER>
CNP0213659.1

>  <Energy>
773.423

$$$$
