
 OpenBabel09052518462D

137136  0  0  0  0  0  0  0  0999 V2000
   -3.7500   -6.4952    0.0000 C   0  0  0  0  0  0  0  0  0  0  0  0
   -3.0000   -5.1962    0.0000 C   0  0  0  0  0  0  0  0  0  0  0  0
   -3.3876   -3.8062   -0.5164 C   0  0  0  0  0  0  0  0  0  0  0  0
   -2.0676   -2.9731   -0.3956 C   0  0  0  0  0  0  0  0  0  0  0  0
   -2.1125   -1.5252   -0.8390 C   0  0  0  0  0  0  0  0  0  0  0  0
   -0.7969   -0.7354   -0.7367 C   0  0  0  0  0  0  0  0  0  0  0  0
    0.4773   -1.0413   -0.3326 C   0  0  0  0  0  0  0  0  0  0  0  0
    1.1042   -2.3302    0.1872 C   0  0  0  0  0  0  0  0  0  0  0  0
    2.2369   -2.7672   -0.7281 C   0  0  0  0  0  0  0  0  0  0  0  0
    3.5392   -3.0044   -0.4132 C   0  0  0  0  0  0  0  0  0  0  0  0
    4.2124   -2.9127    0.9449 C   0  0  0  0  0  0  0  0  0  0  0  0
    5.3421   -1.9026    0.9127 C   0  0  0  0  0  0  0  0  0  0  0  0
    6.6596   -2.0984    1.1961 C   0  0  0  0  0  0  0  0  0  0  0  0
    7.3709   -3.3782    1.6120 C   0  0  0  0  0  0  0  0  0  0  0  0
    8.5685   -3.6616    0.6752 C   0  0  0  0  0  0  0  0  0  0  0  0
    9.4043   -4.9065    1.0781 C   0  0  0  0  0  0  0  0  0  0  0  0
   10.5000   -5.1962    0.0000 C   0  0  0  0  0  0  0  0  0  0  0  0
   11.2500   -6.4952    0.0000 C   0  0  0  0  0  0  0  0  0  0  0  0
   12.0000   -7.7942    0.0000 C   0  0  0  0  0  0  0  0  0  0  0  0
   13.3374   -8.3050   -0.7055 C   0  0  0  0  0  0  0  0  0  0  0  0
   13.4501   -8.1980   -1.9162 O   0  0  0  0  0  0  0  0  0  0  0  0
   14.2500   -9.0933    0.0000 O   0  0  0  0  0  0  0  0  0  0  0  0
   15.0000  -10.3923    0.0000 C   0  0  1  0  0  0  0  0  0  0  0  0
   13.7022  -11.1831    0.8314 C   0  0  0  0  0  0  0  0  0  0  0  0
   12.5534  -11.8184    0.1670 O   0  0  0  0  0  0  0  0  0  0  0  0
   11.8536  -12.9956    0.6118 C   0  0  0  0  0  0  0  0  0  0  0  0
   12.4653  -13.7584    1.3442 O   0  0  0  0  0  0  0  0  0  0  0  0
   10.2642  -13.3637    0.4279 C   0  0  0  0  0  0  0  0  0  0  0  0
    9.8038  -14.8923    0.0000 C   0  0  0  0  0  0  0  0  0  0  0  0
    8.5048  -15.6423    0.0000 C   0  0  0  0  0  0  0  0  0  0  0  0
    7.2058  -16.3923    0.0000 C   0  0  0  0  0  0  0  0  0  0  0  0
    5.9067  -17.1423    0.0000 C   0  0  0  0  0  0  0  0  0  0  0  0
    4.6077  -17.8923    0.0000 C   0  0  0  0  0  0  0  0  0  0  0  0
    3.3087  -18.6423    0.0000 C   0  0  0  0  0  0  0  0  0  0  0  0
    2.5064  -18.8209    1.2787 C   0  0  0  0  0  0  0  0  0  0  0  0
    2.4564  -19.9542    2.0258 C   0  0  0  0  0  0  0  0  0  0  0  0
    3.2999  -21.2087    1.8537 C   0  0  0  0  0  0  0  0  0  0  0  0
    3.2286  -21.9677    0.5506 C   0  0  0  0  0  0  0  0  0  0  0  0
    2.4069  -22.9825    0.2274 C   0  0  0  0  0  0  0  0  0  0  0  0
    1.2822  -23.5845    1.0555 C   0  0  0  0  0  0  0  0  0  0  0  0
    0.8107  -24.8628    0.3249 C   0  0  0  0  0  0  0  0  0  0  0  0
   -0.4266  -25.6216    0.8705 C   0  0  0  0  0  0  0  0  0  0  0  0
   -0.5885  -26.8923    0.0000 C   0  0  0  0  0  0  0  0  0  0  0  0
   -1.8875  -27.6423   -0.0000 C   0  0  0  0  0  0  0  0  0  0  0  0
   15.7500  -11.6913    0.0000 C   0  0  0  0  0  0  0  0  0  0  0  0
   16.5000  -12.9904    0.0000 O   0  0  0  0  0  0  0  0  0  0  0  0
   18.0000  -12.9904    0.0000 P   0  0  3  0  0  0  0  0  0  0  0  0
   18.0000  -14.4904    0.0000 O   0  0  0  0  0  0  0  0  0  0  0  0
   18.0000  -11.4904    0.0000 O   0  0  0  0  0  0  0  0  0  0  0  0
   19.5000  -12.9904    0.0000 O   0  0  0  0  0  0  0  0  0  0  0  0
   20.2500  -11.6913    0.0000 C   0  0  0  0  0  0  0  0  0  0  0  0
   21.0000  -10.3923    0.0000 C   0  0  1  0  0  0  0  0  0  0  0  0
   21.7500   -9.0933    0.0000 O   0  0  0  0  0  0  0  0  0  0  0  0
   22.5087  -11.0886    0.6972 C   0  0  0  0  0  0  0  0  0  0  0  0
   23.5981  -11.8923    0.0000 O   0  0  0  0  0  0  0  0  0  0  0  0
   23.5981  -13.3923    0.0000 P   0  0  0  0  0  0  0  0  0  0  0  0
   25.0981  -13.3923    0.0000 O   0  0  0  0  0  0  0  0  0  0  0  0
   22.0981  -13.3923    0.0000 O   0  0  0  0  0  0  0  0  0  0  0  0
   23.5981  -14.8923    0.0000 O   0  0  0  0  0  0  0  0  0  0  0  0
   -4.5469   -6.1560    0.6972 H   0  0  0  0  0  0  0  0  0  0  0  0
   -2.9802   -7.1069    0.5276 H   0  0  0  0  0  0  0  0  0  0  0  0
   -4.2850   -7.4218    0.0000 H   0  0  0  0  0  0  0  0  0  0  0  0
   -2.1151   -5.4761   -0.6196 H   0  0  0  0  0  0  0  0  0  0  0  0
   -2.6289   -5.0475    1.0453 H   0  0  0  0  0  0  0  0  0  0  0  0
   -4.2023   -3.3718    0.1011 H   0  0  0  0  0  0  0  0  0  0  0  0
   -3.7079   -3.8618   -1.5789 H   0  0  0  0  0  0  0  0  0  0  0  0
   -1.7531   -2.9724    0.6717 H   0  0  0  0  0  0  0  0  0  0  0  0
   -1.3031   -3.4649   -1.0360 H   0  0  0  0  0  0  0  0  0  0  0  0
   -2.4435   -1.4943   -1.8992 H   0  0  0  0  0  0  0  0  0  0  0  0
   -2.8740   -0.9998   -0.2236 H   0  0  0  0  0  0  0  0  0  0  0  0
   -0.9221    0.2940   -1.0614 H   0  0  0  0  0  0  0  0  0  0  0  0
    1.1843   -0.2168   -0.3848 H   0  0  0  0  0  0  0  0  0  0  0  0
    1.4583   -2.1472    1.2181 H   0  0  0  0  0  0  0  0  0  0  0  0
    0.3970   -3.1635    0.2440 H   0  0  0  0  0  0  0  0  0  0  0  0
    1.9564   -2.9256   -1.7664 H   0  0  0  0  0  0  0  0  0  0  0  0
    4.1851   -3.3215   -1.2283 H   0  0  0  0  0  0  0  0  0  0  0  0
    3.5012   -2.5975    1.7296 H   0  0  0  0  0  0  0  0  0  0  0  0
    4.5775   -3.9207    1.2176 H   0  0  0  0  0  0  0  0  0  0  0  0
    5.0498   -0.8896    0.6511 H   0  0  0  0  0  0  0  0  0  0  0  0
    7.2930   -1.2163    1.1395 H   0  0  0  0  0  0  0  0  0  0  0  0
    6.6906   -4.2516    1.6268 H   0  0  0  0  0  0  0  0  0  0  0  0
    7.7642   -3.2280    2.6397 H   0  0  0  0  0  0  0  0  0  0  0  0
    8.1594   -3.8126   -0.3487 H   0  0  0  0  0  0  0  0  0  0  0  0
    9.2433   -2.7776    0.6562 H   0  0  0  0  0  0  0  0  0  0  0  0
    8.6994   -5.7655    1.1294 H   0  0  0  0  0  0  0  0  0  0  0  0
    9.8700   -4.7689    2.0776 H   0  0  0  0  0  0  0  0  0  0  0  0
   11.1964   -4.3285   -0.0875 H   0  0  0  0  0  0  0  0  0  0  0  0
    9.9469   -5.2264   -0.9663 H   0  0  0  0  0  0  0  0  0  0  0  0
   10.3365   -7.0152    0.3760 H   0  0  0  0  0  0  0  0  0  0  0  0
   11.8870   -6.1262    0.8390 H   0  0  0  0  0  0  0  0  0  0  0  0
   12.0150   -8.2208    1.0363 H   0  0  0  0  0  0  0  0  0  0  0  0
   11.3200   -8.4812   -0.5693 H   0  0  0  0  0  0  0  0  0  0  0  0
   15.8475   -9.8124    0.4709 H   0  0  0  0  0  0  0  0  0  0  0  0
   13.2405  -10.4259    1.5048 H   0  0  0  0  0  0  0  0  0  0  0  0
   14.0364  -11.8704    1.6470 H   0  0  0  0  0  0  0  0  0  0  0  0
    9.7700  -12.6161   -0.2258 H   0  0  0  0  0  0  0  0  0  0  0  0
    9.8411  -13.2319    1.4465 H   0  0  0  0  0  0  0  0  0  0  0  0
   10.5318  -15.5049    0.6006 H   0  0  0  0  0  0  0  0  0  0  0  0
   10.1760  -14.9589   -1.0487 H   0  0  0  0  0  0  0  0  0  0  0  0
    9.0258  -16.6017   -0.2685 H   0  0  0  0  0  0  0  0  0  0  0  0
    8.4854  -15.3383    1.0932 H   0  0  0  0  0  0  0  0  0  0  0  0
    6.6521  -15.4427    0.2505 H   0  0  0  0  0  0  0  0  0  0  0  0
    7.4235  -16.9608    0.9650 H   0  0  0  0  0  0  0  0  0  0  0  0
    6.4377  -18.0756   -0.3626 H   0  0  0  0  0  0  0  0  0  0  0  0
    5.6168  -16.6651   -0.9806 H   0  0  0  0  0  0  0  0  0  0  0  0
    4.0638  -16.9686    0.3295 H   0  0  0  0  0  0  0  0  0  0  0  0
    4.9282  -18.4443    0.9248 H   0  0  0  0  0  0  0  0  0  0  0  0
    3.5942  -19.6380   -0.3660 H   0  0  0  0  0  0  0  0  0  0  0  0
    2.6344  -18.2616   -0.7994 H   0  0  0  0  0  0  0  0  0  0  0  0
    1.9008  -17.9765    1.5960 H   0  0  0  0  0  0  0  0  0  0  0  0
    1.8068  -19.9422    2.8953 H   0  0  0  0  0  0  0  0  0  0  0  0
    3.1241  -21.9166    2.6905 H   0  0  0  0  0  0  0  0  0  0  0  0
    4.3564  -20.8777    1.9609 H   0  0  0  0  0  0  0  0  0  0  0  0
    4.0155  -21.7620   -0.1709 H   0  0  0  0  0  0  0  0  0  0  0  0
    2.6100  -23.4374   -0.7412 H   0  0  0  0  0  0  0  0  0  0  0  0
    0.4619  -22.8431    1.1560 H   0  0  0  0  0  0  0  0  0  0  0  0
    1.6509  -23.8721    2.0628 H   0  0  0  0  0  0  0  0  0  0  0  0
    1.6767  -25.5634    0.3062 H   0  0  0  0  0  0  0  0  0  0  0  0
    0.5698  -24.5797   -0.7260 H   0  0  0  0  0  0  0  0  0  0  0  0
   -1.3139  -24.9604    0.7649 H   0  0  0  0  0  0  0  0  0  0  0  0
   -0.3040  -25.9068    1.9375 H   0  0  0  0  0  0  0  0  0  0  0  0
    0.2728  -27.5769    0.1888 H   0  0  0  0  0  0  0  0  0  0  0  0
   -0.5073  -26.5512   -1.0584 H   0  0  0  0  0  0  0  0  0  0  0  0
   -1.5701  -28.4451   -0.7043 H   0  0  0  0  0  0  0  0  0  0  0  0
   -1.8095  -27.9878    1.0538 H   0  0  0  0  0  0  0  0  0  0  0  0
   -2.8141  -28.1773    0.0000 H   0  0  0  0  0  0  0  0  0  0  0  0
   16.0077  -11.4064   -1.0503 H   0  0  0  0  0  0  0  0  0  0  0  0
   16.0488  -11.5856    1.0987 H   0  0  0  0  0  0  0  0  0  0  0  0
   18.0859  -11.2026   -0.9550 H   0  0  0  0  0  0  0  0  0  0  0  0
   19.8224  -11.1328    0.8747 H   0  0  0  0  0  0  0  0  0  0  0  0
   20.5012  -12.0245    1.0194 H   0  0  0  0  0  0  0  0  0  0  0  0
   20.9954  -10.5149   -1.1103 H   0  0  0  0  0  0  0  0  0  0  0  0
   22.2753   -8.9862   -0.8409 H   0  0  0  0  0  0  0  0  0  0  0  0
   23.1121  -10.2785    1.1730 H   0  0  0  0  0  0  0  0  0  0  0  0
   22.3294  -11.5363    1.7038 H   0  0  0  0  0  0  0  0  0  0  0  0
   21.8368  -13.7295    0.9012 H   0  0  0  0  0  0  0  0  0  0  0  0
   23.5957  -15.1628   -0.9558 H   0  0  0  0  0  0  0  0  0  0  0  0
  1  2  1  0  0  0  0
  1 60  1  0  0  0  0
  1 61  1  0  0  0  0
  1 62  1  0  0  0  0
  2  3  1  0  0  0  0
  2 63  1  0  0  0  0
  2 64  1  0  0  0  0
  3  4  1  0  0  0  0
  3 65  1  0  0  0  0
  3 66  1  0  0  0  0
  4  5  1  0  0  0  0
  4 67  1  0  0  0  0
  4 68  1  0  0  0  0
  5  6  1  0  0  0  0
  5 69  1  0  0  0  0
  5 70  1  0  0  0  0
  6  7  2  0  0  0  0
  6 71  1  0  0  0  0
  7  8  1  0  0  0  0
  7 72  1  0  0  0  0
  8  9  1  0  0  0  0
  8 73  1  0  0  0  0
  8 74  1  0  0  0  0
  9 10  2  0  0  0  0
  9 75  1  0  0  0  0
 10 11  1  0  0  0  0
 10 76  1  0  0  0  0
 11 12  1  0  0  0  0
 11 77  1  0  0  0  0
 11 78  1  0  0  0  0
 12 13  2  0  0  0  0
 12 79  1  0  0  0  0
 13 14  1  0  0  0  0
 13 80  1  0  0  0  0
 14 15  1  0  0  0  0
 14 81  1  0  0  0  0
 14 82  1  0  0  0  0
 15 16  1  0  0  0  0
 15 83  1  0  0  0  0
 15 84  1  0  0  0  0
 16 17  1  0  0  0  0
 16 85  1  0  0  0  0
 16 86  1  0  0  0  0
 17 18  1  0  0  0  0
 17 87  1  0  0  0  0
 17 88  1  0  0  0  0
 18 19  1  0  0  0  0
 18 89  1  0  0  0  0
 18 90  1  0  0  0  0
 19 20  1  0  0  0  0
 19 91  1  0  0  0  0
 19 92  1  0  0  0  0
 20 21  2  0  0  0  0
 20 22  1  0  0  0  0
 22 23  1  0  0  0  0
 23 24  1  0  0  0  0
 23 45  1  0  0  0  0
 23 93  1  1  0  0  0
 24 25  1  0  0  0  0
 24 94  1  0  0  0  0
 24 95  1  0  0  0  0
 25 26  1  0  0  0  0
 26 27  2  0  0  0  0
 26 28  1  0  0  0  0
 28 29  1  0  0  0  0
 28 96  1  0  0  0  0
 28 97  1  0  0  0  0
 29 30  1  0  0  0  0
 29 98  1  0  0  0  0
 29 99  1  0  0  0  0
 30 31  1  0  0  0  0
 30100  1  0  0  0  0
 30101  1  0  0  0  0
 31 32  1  0  0  0  0
 31102  1  0  0  0  0
 31103  1  0  0  0  0
 32 33  1  0  0  0  0
 32104  1  0  0  0  0
 32105  1  0  0  0  0
 33 34  1  0  0  0  0
 33106  1  0  0  0  0
 33107  1  0  0  0  0
 34 35  1  0  0  0  0
 34108  1  0  0  0  0
 34109  1  0  0  0  0
 35 36  2  0  0  0  0
 35110  1  0  0  0  0
 36 37  1  0  0  0  0
 36111  1  0  0  0  0
 37 38  1  0  0  0  0
 37112  1  0  0  0  0
 37113  1  0  0  0  0
 38 39  2  0  0  0  0
 38114  1  0  0  0  0
 39 40  1  0  0  0  0
 39115  1  0  0  0  0
 40 41  1  0  0  0  0
 40116  1  0  0  0  0
 40117  1  0  0  0  0
 41 42  1  0  0  0  0
 41118  1  0  0  0  0
 41119  1  0  0  0  0
 42 43  1  0  0  0  0
 42120  1  0  0  0  0
 42121  1  0  0  0  0
 43 44  1  0  0  0  0
 43122  1  0  0  0  0
 43123  1  0  0  0  0
 44124  1  0  0  0  0
 44125  1  0  0  0  0
 44126  1  0  0  0  0
 45 46  1  0  0  0  0
 45127  1  0  0  0  0
 45128  1  0  0  0  0
 46 47  1  0  0  0  0
 47 48  2  0  0  0  0
 47 49  1  0  0  0  0
 47 50  1  0  0  0  0
 49129  1  0  0  0  0
 50 51  1  0  0  0  0
 51 52  1  0  0  0  0
 51130  1  0  0  0  0
 51131  1  0  0  0  0
 52 53  1  0  0  0  0
 52 54  1  0  0  0  0
 52132  1  6  0  0  0
 53133  1  0  0  0  0
 54 55  1  0  0  0  0
 54134  1  0  0  0  0
 54135  1  0  0  0  0
 55 56  1  0  0  0  0
 56 57  2  0  0  0  0
 56 58  1  0  0  0  0
 56 59  1  0  0  0  0
 58136  1  0  0  0  0
 59137  1  0  0  0  0
M  END
>  <IDENTIFIER>
CNP0025682.1

>  <Energy>
10460.1

$$$$
