
 OpenBabel09092512462D

139138  0  0  0  0  0  0  0  0999 V2000
   25.9808   15.0000    0.0000 C   0  0  0  0  0  0  0  0  0  0  0  0
   24.6817   14.2500    0.0000 C   0  0  0  0  0  0  0  0  0  0  0  0
   23.7082   12.9393    0.5416 C   0  0  0  0  0  0  0  0  0  0  0  0
   22.0836   12.7500    0.0000 C   0  0  0  0  0  0  0  0  0  0  0  0
   20.7846   12.0000    0.0000 C   0  0  0  0  0  2  0  0  0  0  0  0
   19.4856   11.2500    0.0000 C   0  0  0  0  0  0  0  0  0  0  0  0
   18.1865   10.5000    0.0000 C   0  0  0  0  0  0  0  0  0  0  0  0
   16.8875    9.7500    0.0000 C   0  0  0  0  0  2  0  0  0  0  0  0
   15.5885    9.0000    0.0000 C   0  0  0  0  0  0  0  0  0  0  0  0
   13.9438    8.6539   -0.0276 C   0  0  0  0  0  0  0  0  0  0  0  0
   13.3416    7.0633    0.0201 C   0  0  0  0  0  0  0  0  0  0  0  0
   11.6913    6.7500    0.0000 C   0  0  0  0  0  0  0  0  0  0  0  0
   10.3923    6.0000    0.0000 C   0  0  0  0  0  0  0  0  0  0  0  0
    9.0933    5.2500    0.0000 C   0  0  0  0  0  0  0  0  0  0  0  0
    7.7942    4.5000    0.0000 C   0  0  0  0  0  0  0  0  0  0  0  0
    6.4952    3.7500    0.0000 C   0  0  0  0  0  0  0  0  0  0  0  0
    5.1962    3.0000    0.0000 C   0  0  0  0  0  0  0  0  0  0  0  0
    3.5251    2.9741    0.0958 C   0  0  0  0  0  0  0  0  0  0  0  0
    2.7184    1.4917   -0.0113 C   0  0  0  0  0  0  0  0  0  0  0  0
    1.0622    1.2435    0.1681 C   0  0  0  0  0  0  0  0  0  0  0  0
    0.3573   -0.2401   -0.0143 C   0  0  0  0  0  0  0  0  0  0  0  0
    1.1152   -1.1359   -0.3510 O   0  0  0  0  0  0  0  0  0  0  0  0
   -1.0383   -0.5896    0.1833 O   0  0  0  0  0  0  0  0  0  0  0  0
   -1.6909   -1.8776   -0.1260 C   0  0  0  0  0  0  0  0  0  0  0  0
   -3.2854   -2.2630    0.2777 C   0  0  2  0  0  0  0  0  0  0  0  0
   -3.7475   -3.8370   -0.1621 C   0  0  0  0  0  0  0  0  0  0  0  0
   -5.0029   -4.5631    0.1489 O   0  0  0  0  0  0  0  0  0  0  0  0
   -5.1962   -6.0000    0.0000 C   0  0  0  0  0  0  0  0  0  0  0  0
   -4.1414   -6.6192   -0.1766 O   0  0  0  0  0  0  0  0  0  0  0  0
   -6.4952   -6.7500    0.0000 C   0  0  0  0  0  0  0  0  0  0  0  0
   -7.7942   -7.5000    0.0000 C   0  0  0  0  0  0  0  0  0  0  0  0
   -9.0933   -8.2500    0.0000 C   0  0  0  0  0  0  0  0  0  0  0  0
  -10.3923   -9.0000    0.0000 C   0  0  0  0  0  0  0  0  0  0  0  0
  -11.6913   -9.7500    0.0000 C   0  0  0  0  0  0  0  0  0  0  0  0
  -13.3208  -10.1095   -0.2028 C   0  0  0  0  0  0  0  0  0  0  0  0
  -13.9434  -11.6677    0.0953 C   0  0  0  0  0  0  0  0  0  0  0  0
  -15.5885  -12.0000    0.0000 C   0  0  0  0  0  0  0  0  0  0  0  0
  -16.8875  -12.7500    0.0000 C   0  0  0  0  0  0  0  0  0  0  0  0
   -4.1096   -1.2173   -0.1906 O   0  0  0  0  0  0  0  0  0  0  0  0
   -5.4074   -0.9099    0.1706 C   0  0  0  0  0  0  0  0  0  0  0  0
   -6.2153   -1.8011    0.3808 O   0  0  0  0  0  0  0  0  0  0  0  0
   -5.7672    0.5484    0.5401 C   0  0  0  0  0  0  0  0  0  0  0  0
   -6.9686    1.3422   -0.1318 C   0  0  0  0  0  0  0  0  0  0  0  0
   -7.0348    2.7827    0.5084 C   0  0  0  0  0  0  0  0  0  0  0  0
   -7.7896    4.0457   -0.0794 C   0  0  0  0  0  0  0  0  0  0  0  0
   -9.3064    4.5094    0.1712 C   0  0  0  0  0  0  0  0  0  0  0  0
   -9.3481    6.0933    0.0000 C   0  0  0  0  0  0  0  0  0  0  0  0
  -10.0981    7.3923    0.0000 C   0  0  0  0  0  0  0  0  0  0  0  0
  -10.8481    8.6913    0.0000 C   0  0  0  0  0  0  0  0  0  0  0  0
  -11.3597   10.2260   -0.4596 C   0  0  0  0  0  0  0  0  0  0  0  0
  -12.6956   10.9808    0.2868 C   0  0  0  0  0  0  0  0  0  0  0  0
  -13.0981   12.5885    0.0000 C   0  0  0  0  0  0  0  0  0  0  0  0
  -13.8481   13.8875    0.0000 C   0  0  0  0  0  0  0  0  0  0  0  0
   26.5909   14.1679   -0.4167 H   0  0  0  0  0  0  0  0  0  0  0  0
   25.7275   15.7665   -0.7732 H   0  0  0  0  0  0  0  0  0  0  0  0
   26.9075   15.5350    0.0000 H   0  0  0  0  0  0  0  0  0  0  0  0
   23.9841   15.0753    0.2703 H   0  0  0  0  0  0  0  0  0  0  0  0
   24.5317   14.0619   -1.0927 H   0  0  0  0  0  0  0  0  0  0  0  0
   23.6812   12.9849    1.6498 H   0  0  0  0  0  0  0  0  0  0  0  0
   24.2460   12.0085    0.2620 H   0  0  0  0  0  0  0  0  0  0  0  0
   22.2475   12.8024   -1.0962 H   0  0  0  0  0  0  0  0  0  0  0  0
   21.6917   13.7510    0.2754 H   0  0  0  0  0  0  0  0  0  0  0  0
   19.8548   10.6942    0.8959 H   0  0  0  0  0  0  0  0  0  0  0  0
   19.8546   10.6945   -0.8961 H   0  0  0  0  0  0  0  0  0  0  0  0
   17.8174   11.0557   -0.8959 H   0  0  0  0  0  0  0  0  0  0  0  0
   17.8175   11.0555    0.8961 H   0  0  0  0  0  0  0  0  0  0  0  0
   15.8111    8.4188    0.9191 H   0  0  0  0  0  0  0  0  0  0  0  0
   15.8582    8.3376   -0.8488 H   0  0  0  0  0  0  0  0  0  0  0  0
   13.5382    9.1171   -0.9516 H   0  0  0  0  0  0  0  0  0  0  0  0
   13.4924    9.1910    0.8328 H   0  0  0  0  0  0  0  0  0  0  0  0
   13.7822    6.5280   -0.8470 H   0  0  0  0  0  0  0  0  0  0  0  0
   13.7476    6.5911    0.9394 H   0  0  0  0  0  0  0  0  0  0  0  0
   11.4628    7.4252    0.8611 H   0  0  0  0  0  0  0  0  0  0  0  0
   11.4903    7.4066   -0.8868 H   0  0  0  0  0  0  0  0  0  0  0  0
   10.8618    5.4738   -0.8956 H   0  0  0  0  0  0  0  0  0  0  0  0
   10.6908    5.4988    0.9594 H   0  0  0  0  0  0  0  0  0  0  0  0
    8.8492    5.7097   -1.0050 H   0  0  0  0  0  0  0  0  0  0  0  0
    9.5706    4.2315   -0.2060 H   0  0  0  0  0  0  0  0  0  0  0  0
    7.3188    5.5129    0.2278 H   0  0  0  0  0  0  0  0  0  0  0  0
    8.0465    4.0255    0.9990 H   0  0  0  0  0  0  0  0  0  0  0  0
    6.0546    4.2210    0.9382 H   0  0  0  0  0  0  0  0  0  0  0  0
    6.1601    4.2963   -0.9216 H   0  0  0  0  0  0  0  0  0  0  0  0
    5.4009    2.2574    0.8120 H   0  0  0  0  0  0  0  0  0  0  0  0
    5.3164    2.3839   -0.9242 H   0  0  0  0  0  0  0  0  0  0  0  0
    3.2503    3.4316    1.0691 H   0  0  0  0  0  0  0  0  0  0  0  0
    3.1262    3.6279   -0.7077 H   0  0  0  0  0  0  0  0  0  0  0  0
    2.9845    1.0805   -1.0072 H   0  0  0  0  0  0  0  0  0  0  0  0
    3.1925    0.8341    0.7472 H   0  0  0  0  0  0  0  0  0  0  0  0
    0.8079    1.5942    1.1895 H   0  0  0  0  0  0  0  0  0  0  0  0
    0.5555    1.9187   -0.5524 H   0  0  0  0  0  0  0  0  0  0  0  0
   -1.6075   -2.0216   -1.2236 H   0  0  0  0  0  0  0  0  0  0  0  0
   -1.0731   -2.6749    0.3419 H   0  0  0  0  0  0  0  0  0  0  0  0
   -3.3161   -2.2241    1.3881 H   0  0  0  0  0  0  0  0  0  0  0  0
   -3.6081   -3.9031   -1.2634 H   0  0  0  0  0  0  0  0  0  0  0  0
   -2.9335   -4.4506    0.2804 H   0  0  0  0  0  0  0  0  0  0  0  0
   -5.9064   -7.6844   -0.2667 H   0  0  0  0  0  0  0  0  0  0  0  0
   -6.6098   -6.5043    1.0824 H   0  0  0  0  0  0  0  0  0  0  0  0
   -7.6887   -7.7059   -1.1122 H   0  0  0  0  0  0  0  0  0  0  0  0
   -7.4013   -8.3943    0.6087 H   0  0  0  0  0  0  0  0  0  0  0  0
   -9.5241   -7.3120   -0.4907 H   0  0  0  0  0  0  0  0  0  0  0  0
   -9.2262   -8.0855    1.1187 H   0  0  0  0  0  0  0  0  0  0  0  0
  -11.0611   -8.1585    0.3770 H   0  0  0  0  0  0  0  0  0  0  0  0
  -10.3829   -9.0159   -1.1259 H   0  0  0  0  0  0  0  0  0  0  0  0
  -11.6582  -10.0592    1.0738 H   0  0  0  0  0  0  0  0  0  0  0  0
  -11.3458  -10.6792   -0.5223 H   0  0  0  0  0  0  0  0  0  0  0  0
  -13.5789   -9.8688   -1.2553 H   0  0  0  0  0  0  0  0  0  0  0  0
  -13.8817   -9.4007    0.4421 H   0  0  0  0  0  0  0  0  0  0  0  0
  -13.4278  -12.3528   -0.6100 H   0  0  0  0  0  0  0  0  0  0  0  0
  -13.6240  -11.9537    1.1199 H   0  0  0  0  0  0  0  0  0  0  0  0
  -15.8400  -11.2107    0.7543 H   0  0  0  0  0  0  0  0  0  0  0  0
  -15.7024  -11.5518   -1.0141 H   0  0  0  0  0  0  0  0  0  0  0  0
  -17.5953  -11.8885   -0.1065 H   0  0  0  0  0  0  0  0  0  0  0  0
  -16.8116  -13.1119    1.0501 H   0  0  0  0  0  0  0  0  0  0  0  0
  -17.8141  -13.2850    0.0000 H   0  0  0  0  0  0  0  0  0  0  0  0
   -4.8421    1.1407    0.3685 H   0  0  0  0  0  0  0  0  0  0  0  0
   -5.9556    0.5462    1.6348 H   0  0  0  0  0  0  0  0  0  0  0  0
   -7.9361    0.8179    0.0157 H   0  0  0  0  0  0  0  0  0  0  0  0
   -6.7624    1.4266   -1.2197 H   0  0  0  0  0  0  0  0  0  0  0  0
   -5.9704    3.1079    0.4288 H   0  0  0  0  0  0  0  0  0  0  0  0
   -7.2540    2.7058    1.5946 H   0  0  0  0  0  0  0  0  0  0  0  0
   -7.5406    4.1543   -1.1580 H   0  0  0  0  0  0  0  0  0  0  0  0
   -7.2035    4.8396    0.4341 H   0  0  0  0  0  0  0  0  0  0  0  0
   -9.6036    4.2821    1.2170 H   0  0  0  0  0  0  0  0  0  0  0  0
   -9.9877    3.9803   -0.5267 H   0  0  0  0  0  0  0  0  0  0  0  0
   -8.7682    6.2089   -0.9511 H   0  0  0  0  0  0  0  0  0  0  0  0
   -8.6188    6.3758    0.7984 H   0  0  0  0  0  0  0  0  0  0  0  0
  -10.6272    6.9945    0.9135 H   0  0  0  0  0  0  0  0  0  0  0  0
  -10.6324    7.0763   -0.9343 H   0  0  0  0  0  0  0  0  0  0  0  0
  -10.5659    9.0321    1.0272 H   0  0  0  0  0  0  0  0  0  0  0  0
  -11.9120    8.3238    0.0518 H   0  0  0  0  0  0  0  0  0  0  0  0
  -11.5988   10.1886   -1.5432 H   0  0  0  0  0  0  0  0  0  0  0  0
  -10.4824   10.8981   -0.3450 H   0  0  0  0  0  0  0  0  0  0  0  0
  -13.5813   10.3647    0.0241 H   0  0  0  0  0  0  0  0  0  0  0  0
  -12.5535   10.8906    1.3847 H   0  0  0  0  0  0  0  0  0  0  0  0
  -12.1093   12.9533    0.3802 H   0  0  0  0  0  0  0  0  0  0  0  0
  -13.0145   12.4962   -1.1075 H   0  0  0  0  0  0  0  0  0  0  0  0
  -13.0923   14.5359   -0.5130 H   0  0  0  0  0  0  0  0  0  0  0  0
  -13.8436   14.0215    1.1051 H   0  0  0  0  0  0  0  0  0  0  0  0
  -14.3831   14.8141    0.0000 H   0  0  0  0  0  0  0  0  0  0  0  0
  1  2  1  0  0  0  0
  1 54  1  0  0  0  0
  1 55  1  0  0  0  0
  1 56  1  0  0  0  0
  2  3  1  0  0  0  0
  2 57  1  0  0  0  0
  2 58  1  0  0  0  0
  3  4  1  0  0  0  0
  3 59  1  0  0  0  0
  3 60  1  0  0  0  0
  4  5  1  0  0  0  0
  4 61  1  0  0  0  0
  4 62  1  0  0  0  0
  5  6  1  0  0  0  0
  6  7  1  0  0  0  0
  6 63  1  0  0  0  0
  6 64  1  0  0  0  0
  7  8  1  0  0  0  0
  7 65  1  0  0  0  0
  7 66  1  0  0  0  0
  8  9  1  0  0  0  0
  9 10  1  0  0  0  0
  9 67  1  0  0  0  0
  9 68  1  0  0  0  0
 10 11  1  0  0  0  0
 10 69  1  0  0  0  0
 10 70  1  0  0  0  0
 11 12  1  0  0  0  0
 11 71  1  0  0  0  0
 11 72  1  0  0  0  0
 12 13  1  0  0  0  0
 12 73  1  0  0  0  0
 12 74  1  0  0  0  0
 13 14  1  0  0  0  0
 13 75  1  0  0  0  0
 13 76  1  0  0  0  0
 14 15  1  0  0  0  0
 14 77  1  0  0  0  0
 14 78  1  0  0  0  0
 15 16  1  0  0  0  0
 15 79  1  0  0  0  0
 15 80  1  0  0  0  0
 16 17  1  0  0  0  0
 16 81  1  0  0  0  0
 16 82  1  0  0  0  0
 17 18  1  0  0  0  0
 17 83  1  0  0  0  0
 17 84  1  0  0  0  0
 18 19  1  0  0  0  0
 18 85  1  0  0  0  0
 18 86  1  0  0  0  0
 19 20  1  0  0  0  0
 19 87  1  0  0  0  0
 19 88  1  0  0  0  0
 20 21  1  0  0  0  0
 20 89  1  0  0  0  0
 20 90  1  0  0  0  0
 21 22  2  0  0  0  0
 21 23  1  0  0  0  0
 23 24  1  0  0  0  0
 24 91  1  0  0  0  0
 24 92  1  0  0  0  0
 25 24  1  0  0  0  0
 25 26  1  0  0  0  0
 25 39  1  0  0  0  0
 25 93  1  1  0  0  0
 26 27  1  0  0  0  0
 26 94  1  0  0  0  0
 26 95  1  0  0  0  0
 27 28  1  0  0  0  0
 28 29  2  0  0  0  0
 28 30  1  0  0  0  0
 30 31  1  0  0  0  0
 30 96  1  0  0  0  0
 30 97  1  0  0  0  0
 31 32  1  0  0  0  0
 31 98  1  0  0  0  0
 31 99  1  0  0  0  0
 32 33  1  0  0  0  0
 32100  1  0  0  0  0
 32101  1  0  0  0  0
 33 34  1  0  0  0  0
 33102  1  0  0  0  0
 33103  1  0  0  0  0
 34 35  1  0  0  0  0
 34104  1  0  0  0  0
 34105  1  0  0  0  0
 35 36  1  0  0  0  0
 35106  1  0  0  0  0
 35107  1  0  0  0  0
 36 37  1  0  0  0  0
 36108  1  0  0  0  0
 36109  1  0  0  0  0
 37 38  1  0  0  0  0
 37110  1  0  0  0  0
 37111  1  0  0  0  0
 38112  1  0  0  0  0
 38113  1  0  0  0  0
 38114  1  0  0  0  0
 39 40  1  0  0  0  0
 40 41  2  0  0  0  0
 40 42  1  0  0  0  0
 42 43  1  0  0  0  0
 42115  1  0  0  0  0
 42116  1  0  0  0  0
 43 44  1  0  0  0  0
 43117  1  0  0  0  0
 43118  1  0  0  0  0
 44 45  1  0  0  0  0
 44119  1  0  0  0  0
 44120  1  0  0  0  0
 45 46  1  0  0  0  0
 45121  1  0  0  0  0
 45122  1  0  0  0  0
 46 47  1  0  0  0  0
 46123  1  0  0  0  0
 46124  1  0  0  0  0
 47 48  1  0  0  0  0
 47125  1  0  0  0  0
 47126  1  0  0  0  0
 48 49  1  0  0  0  0
 48127  1  0  0  0  0
 48128  1  0  0  0  0
 49 50  1  0  0  0  0
 49129  1  0  0  0  0
 49130  1  0  0  0  0
 50 51  1  0  0  0  0
 50131  1  0  0  0  0
 50132  1  0  0  0  0
 51 52  1  0  0  0  0
 51133  1  0  0  0  0
 51134  1  0  0  0  0
 52 53  1  0  0  0  0
 52135  1  0  0  0  0
 52136  1  0  0  0  0
 53137  1  0  0  0  0
 53138  1  0  0  0  0
 53139  1  0  0  0  0
M  END
>  <IDENTIFIER>
CNP0604101.2

>  <Energy>
9895.72

$$$$
