
 OpenBabel09102515053D

 48 49  0  0  0  0  0  0  0  0999 V2000
    6.0135   -0.5963   -0.2499 C   0  0  0  0  0  0  0  0  0  0  0  0
    4.6207   -0.6946   -0.7935 C   0  0  0  0  0  0  0  0  0  0  0  0
    4.4368   -1.2081   -1.8880 O   0  0  0  0  0  0  0  0  0  0  0  0
    3.4681   -0.1480    0.0149 C   0  0  0  0  0  0  0  0  0  0  0  0
    2.1022   -0.3280   -0.6910 C   0  0  0  0  0  0  0  0  0  0  0  0
    0.9188    0.2675    0.1310 C   0  0  1  0  0  0  0  0  0  0  0  0
    0.8603    1.8159    0.1427 C   0  0  0  0  0  0  0  0  0  0  0  0
    1.8684    2.7339   -0.5177 C   0  0  0  0  0  0  0  0  0  0  0  0
   -0.1837    2.4181    0.7464 C   0  0  0  0  0  0  0  0  0  0  0  0
   -1.3190    1.6395    1.2737 C   0  0  0  0  0  0  0  0  0  0  0  0
   -2.0869    2.1802    2.0533 O   0  0  0  0  0  0  0  0  0  0  0  0
   -1.5124    0.1833    0.8628 C   0  0  1  0  0  0  0  0  0  0  0  0
   -3.0197   -0.2611    0.5840 C   0  0  0  0  0  0  0  0  0  0  0  0
   -3.8359    0.7763   -0.2289 C   0  0  0  0  0  0  0  0  0  0  0  0
   -3.7422   -0.4325    1.9495 C   0  0  0  0  0  0  0  0  0  0  0  0
   -3.0668   -1.6408   -0.1711 C   0  0  0  0  0  0  0  0  0  0  0  0
   -1.8668   -2.5056    0.2038 C   0  0  0  0  0  0  0  0  0  0  0  0
   -0.5301   -1.8620   -0.2640 C   0  0  0  0  0  0  0  0  0  0  0  0
   -0.5025   -0.2844   -0.2573 C   0  0  2  0  0  0  0  0  0  0  0  0
   -0.8492    0.2558   -1.6828 C   0  0  0  0  0  0  0  0  0  0  0  0
    6.7449   -1.0371   -0.9610 H   0  0  0  0  0  0  0  0  0  0  0  0
    6.0789   -1.1400    0.7153 H   0  0  0  0  0  0  0  0  0  0  0  0
    6.2741    0.4705   -0.0873 H   0  0  0  0  0  0  0  0  0  0  0  0
    3.6833    0.9132    0.2315 H   0  0  0  0  0  0  0  0  0  0  0  0
    3.4393   -0.6787    0.9911 H   0  0  0  0  0  0  0  0  0  0  0  0
    1.9786   -1.4245   -0.7952 H   0  0  0  0  0  0  0  0  0  0  0  0
    2.1102    0.0998   -1.7153 H   0  0  0  0  0  0  0  0  0  0  0  0
    1.0787   -0.0767    1.1785 H   0  0  0  0  0  0  0  0  0  0  0  0
    2.6509    2.2192   -1.0977 H   0  0  0  0  0  0  0  0  0  0  0  0
    2.3521    3.3760    0.2485 H   0  0  0  0  0  0  0  0  0  0  0  0
    1.3408    3.3854   -1.2472 H   0  0  0  0  0  0  0  0  0  0  0  0
   -0.2268    3.5027    0.8191 H   0  0  0  0  0  0  0  0  0  0  0  0
   -1.1936   -0.3787    1.7714 H   0  0  0  0  0  0  0  0  0  0  0  0
   -3.8985    1.7472    0.3042 H   0  0  0  0  0  0  0  0  0  0  0  0
   -4.8755    0.4143   -0.3824 H   0  0  0  0  0  0  0  0  0  0  0  0
   -3.4092    0.9791   -1.2254 H   0  0  0  0  0  0  0  0  0  0  0  0
   -3.7847    0.5153    2.5208 H   0  0  0  0  0  0  0  0  0  0  0  0
   -3.2381   -1.1913    2.5834 H   0  0  0  0  0  0  0  0  0  0  0  0
   -4.7922   -0.7659    1.7989 H   0  0  0  0  0  0  0  0  0  0  0  0
   -3.0444   -1.5348   -1.2696 H   0  0  0  0  0  0  0  0  0  0  0  0
   -4.0283   -2.1597    0.0358 H   0  0  0  0  0  0  0  0  0  0  0  0
   -1.9408   -3.5353   -0.2071 H   0  0  0  0  0  0  0  0  0  0  0  0
   -1.8715   -2.6004    1.3109 H   0  0  0  0  0  0  0  0  0  0  0  0
   -0.2599   -2.2152   -1.2833 H   0  0  0  0  0  0  0  0  0  0  0  0
    0.2297   -2.2852    0.4292 H   0  0  0  0  0  0  0  0  0  0  0  0
   -0.0710   -0.0514   -2.4104 H   0  0  0  0  0  0  0  0  0  0  0  0
   -0.9151    1.3624   -1.7051 H   0  0  0  0  0  0  0  0  0  0  0  0
   -1.7819   -0.1299   -2.1076 H   0  0  0  0  0  0  0  0  0  0  0  0
  1  2  1  0  0  0  0
  1 21  1  0  0  0  0
  1 22  1  0  0  0  0
  1 23  1  0  0  0  0
  2  3  2  0  0  0  0
  2  4  1  0  0  0  0
  4  5  1  0  0  0  0
  4 24  1  0  0  0  0
  4 25  1  0  0  0  0
  5 26  1  0  0  0  0
  5 27  1  0  0  0  0
  6  5  1  0  0  0  0
  6  7  1  0  0  0  0
  6 28  1  1  0  0  0
  7  8  1  0  0  0  0
  7  9  2  0  0  0  0
  8 29  1  0  0  0  0
  8 30  1  0  0  0  0
  8 31  1  0  0  0  0
  9 10  1  0  0  0  0
  9 32  1  0  0  0  0
 10 11  2  0  0  0  0
 10 12  1  0  0  0  0
 12 13  1  0  0  0  0
 12 33  1  1  0  0  0
 13 14  1  0  0  0  0
 13 15  1  0  0  0  0
 13 16  1  0  0  0  0
 14 34  1  0  0  0  0
 14 35  1  0  0  0  0
 14 36  1  0  0  0  0
 15 37  1  0  0  0  0
 15 38  1  0  0  0  0
 15 39  1  0  0  0  0
 16 17  1  0  0  0  0
 16 40  1  0  0  0  0
 16 41  1  0  0  0  0
 17 18  1  0  0  0  0
 17 42  1  0  0  0  0
 17 43  1  0  0  0  0
 18 19  1  0  0  0  0
 18 44  1  0  0  0  0
 18 45  1  0  0  0  0
 19 20  1  6  0  0  0
 19  6  1  0  0  0  0
 19 12  1  0  0  0  0
 20 46  1  0  0  0  0
 20 47  1  0  0  0  0
 20 48  1  0  0  0  0
M  END
>  <IDENTIFIER>
CNP0287582.1

>  <Energy>
455.55

$$$$
