
 OpenBabel09052512022D

172176  0  0  0  0  0  0  0  0999 V2000
   13.8438   -1.9993    2.3344 C   0  0  0  0  0  0  0  0  0  0  0  0
   12.6794   -1.2128    2.4513 O   0  0  0  0  0  0  0  0  0  0  0  0
   12.8381   -0.0220    1.7051 C   0  0  0  0  0  0  0  0  0  0  0  0
   11.6817    0.9538    2.0325 C   0  0  1  0  0  0  0  0  0  0  0  0
   10.1594    0.2854    1.8908 C   0  0  0  0  0  0  0  0  0  0  0  0
    9.2698   -0.4230    0.7000 C   0  0  1  0  0  0  0  0  0  0  0  0
    7.9109   -0.6883    1.1825 O   0  0  0  0  0  0  0  0  0  0  0  0
    6.9624   -1.4431    0.3177 C   0  0  1  0  0  0  0  0  0  0  0  0
    6.9701   -0.8114   -0.9488 O   0  0  0  0  0  0  0  0  0  0  0  0
    5.4541   -1.2534    1.0666 C   0  0  2  0  0  0  0  0  0  0  0  0
    5.3174   -2.0866    2.1940 O   0  0  0  0  0  0  0  0  0  0  0  0
    4.1084   -1.3009    0.1098 C   0  0  2  0  0  0  0  0  0  0  0  0
    3.5853    0.2014    0.1078 C   0  0  0  0  0  0  0  0  0  0  0  0
    4.5760    1.4074   -0.3462 C   0  0  2  0  0  0  0  0  0  0  0  0
    6.0086    1.0933    0.0000 O   0  0  0  0  0  0  0  0  0  0  0  0
    7.0692    2.1540    0.0000 C   0  0  0  0  0  0  0  0  0  0  0  0
    3.9362    2.7902    0.2580 C   0  0  1  0  0  0  0  0  0  0  0  0
    4.9045    3.7906    0.0852 O   0  0  0  0  0  0  0  0  0  0  0  0
    2.5051    3.5386   -0.1072 C   0  0  0  0  0  0  0  0  0  0  0  0
    0.9345    3.1489    0.0461 C   0  0  0  0  0  0  0  0  0  0  0  0
   -0.0609    4.4176    0.0348 C   0  0  0  0  0  0  0  0  0  0  0  0
   -1.4815    4.5597    0.0000 C   0  0  0  0  0  0  0  0  0  0  0  0
   -1.9451    5.9863    0.0000 C   0  0  0  0  0  0  0  0  0  0  0  0
   -2.3323    3.2205   -0.2489 C   0  0  0  0  0  0  0  0  0  0  0  0
   -3.7046    2.9519   -0.1782 C   0  0  0  0  0  0  0  0  0  0  0  0
   -4.5444    1.7024   -0.8046 C   0  0  1  0  0  0  0  0  0  0  0  0
   -5.6152    2.4625   -1.7028 O   0  0  0  0  0  0  0  0  0  0  0  0
   -6.9309    3.0526   -1.1735 C   0  0  2  0  0  0  0  0  0  0  0  0
   -7.2975    4.3298   -1.1281 O   0  0  0  0  0  0  0  0  0  0  0  0
   -8.2448    4.6849    0.0000 C   0  0  1  0  0  0  0  0  0  0  0  0
   -7.2607    5.8170   -0.0000 C   0  0  0  0  0  0  0  0  0  0  0  0
   -9.5614    4.1218   -0.1957 C   0  0  2  0  0  0  0  0  0  0  0  0
  -10.0451    5.3760    0.0000 O   0  0  0  0  0  0  0  0  0  0  0  0
  -11.5175    5.6622   -0.0000 C   0  0  0  0  0  0  0  0  0  0  0  0
   -9.5687    3.4108   -1.5980 C   0  0  1  0  0  0  0  0  0  0  0  0
  -10.7744    2.7318   -1.8230 O   0  0  0  0  0  0  0  0  0  0  0  0
   -8.3127    2.4054   -1.7296 C   0  0  2  0  0  0  0  0  0  0  0  0
   -8.1678    2.0953   -3.0898 O   0  0  0  0  0  0  0  0  0  0  0  0
   -4.7943    0.0000    0.0000 C   0  0  2  0  0  0  0  0  0  0  0  0
   -6.0523    0.8170    0.0000 C   0  0  0  0  0  0  0  0  0  0  0  0
   -3.3571   -0.7905   -0.2538 C   0  0  0  0  0  0  0  0  0  0  0  0
   -2.5367   -1.9936   -0.2606 C   0  0  0  0  0  0  0  0  0  0  0  0
   -2.5651   -3.5732   -0.0659 C   0  0  0  0  0  0  0  0  0  0  0  0
   -1.4815   -4.5597    0.0000 C   0  0  0  0  0  0  0  0  0  0  0  0
   -1.9451   -5.9863    0.0000 C   0  0  0  0  0  0  0  0  0  0  0  0
    0.0965   -4.0880   -0.0136 C   0  0  0  0  0  0  0  0  0  0  0  0
    1.4815   -4.5597    0.0000 C   0  0  0  0  0  0  0  0  0  0  0  0
    1.9451   -5.9863    0.0000 C   0  0  0  0  0  0  0  0  0  0  0  0
    2.6058   -3.4230   -0.3066 C   0  0  0  0  0  0  0  0  0  0  0  0
    3.1562   -3.5951   -1.3851 O   0  0  0  0  0  0  0  0  0  0  0  0
    3.0576   -2.2910    0.4649 O   0  0  0  0  0  0  0  0  0  0  0  0
    7.3966   -3.0152    0.0000 C   0  0  2  0  0  0  0  0  0  0  0  0
    5.9783   -3.5036    0.0000 C   0  0  0  0  0  0  0  0  0  0  0  0
    8.7208   -3.0609    0.6308 C   0  0  1  0  0  0  0  0  0  0  0  0
    9.1227   -4.4111    0.3822 O   0  0  0  0  0  0  0  0  0  0  0  0
    9.6689   -1.7556   -0.0000 C   0  0  1  0  0  0  0  0  0  0  0  0
   10.8010   -2.7397    0.0000 C   0  0  0  0  0  0  0  0  0  0  0  0
   12.0262    2.4212    2.0184 O   0  0  0  0  0  0  0  0  0  0  0  0
   12.5080    3.2161    0.8752 C   0  0  1  0  0  0  0  0  0  0  0  0
   13.1267    2.3756   -0.1599 C   0  0  0  0  0  0  0  0  0  0  0  0
   14.6995    2.1523    0.0000 C   0  0  2  0  0  0  0  0  0  0  0  0
   16.1720    1.8661    0.0000 C   0  0  0  0  0  0  0  0  0  0  0  0
   14.6638    1.6734   -1.3486 O   0  0  0  0  0  0  0  0  0  0  0  0
   15.3922    3.5898   -0.0631 C   0  0  1  0  0  0  0  0  0  0  0  0
   16.6389    3.8217   -1.1197 O   0  0  0  0  0  0  0  0  0  0  0  0
   18.0269    3.7427   -0.5332 C   0  0  1  0  0  0  0  0  0  0  0  0
   18.8201    2.5405   -1.2434 C   0  0  0  0  0  0  0  0  0  0  0  0
   19.4882    1.8222   -0.0279 C   0  0  1  0  0  0  0  0  0  0  0  0
   19.2580    0.4024    0.0000 O   0  0  0  0  0  0  0  0  0  0  0  0
   20.2020   -0.7633    0.0000 C   0  0  0  0  0  0  0  0  0  0  0  0
   20.5047    2.7889    0.5338 C   0  0  2  0  0  0  0  0  0  0  0  0
   20.6019    2.7353    1.9467 O   0  0  0  0  0  0  0  0  0  0  0  0
   20.2913    4.3532    0.0000 C   0  0  1  0  0  0  0  0  0  0  0  0
   21.7728    4.5878   -0.0000 C   0  0  0  0  0  0  0  0  0  0  0  0
   18.9322    4.8747   -0.2891 O   0  0  0  0  0  0  0  0  0  0  0  0
   14.2931    4.7184    0.0000 C   0  0  2  0  0  0  0  0  0  0  0  0
   15.6050    5.4456    0.0000 C   0  0  0  0  0  0  0  0  0  0  0  0
   13.4337    4.3501    1.1641 O   0  0  0  0  0  0  0  0  0  0  0  0
   13.6667   -2.9643    2.8517 H   0  0  0  0  0  0  0  0  0  0  0  0
   14.7078   -1.5097    2.8361 H   0  0  0  0  0  0  0  0  0  0  0  0
   14.0721   -2.2381    1.2715 H   0  0  0  0  0  0  0  0  0  0  0  0
   12.8511   -0.2866    0.6304 H   0  0  0  0  0  0  0  0  0  0  0  0
   13.7851    0.4864    2.0013 H   0  0  0  0  0  0  0  0  0  0  0  0
   11.7332    0.8854    3.1438 H   0  0  0  0  0  0  0  0  0  0  0  0
   10.1436   -0.5208    2.6580 H   0  0  0  0  0  0  0  0  0  0  0  0
    9.5010    1.0838    2.2944 H   0  0  0  0  0  0  0  0  0  0  0  0
    9.2432    0.3568   -0.0865 H   0  0  0  0  0  0  0  0  0  0  0  0
    6.4209   -1.3284   -1.5892 H   0  0  0  0  0  0  0  0  0  0  0  0
    5.4894   -0.2722    1.5746 H   0  0  0  0  0  0  0  0  0  0  0  0
    4.4990   -1.8027    2.6817 H   0  0  0  0  0  0  0  0  0  0  0  0
    4.4068   -1.4999   -0.9336 H   0  0  0  0  0  0  0  0  0  0  0  0
    2.6458    0.2823   -0.4798 H   0  0  0  0  0  0  0  0  0  0  0  0
    3.3012    0.3806    1.1679 H   0  0  0  0  0  0  0  0  0  0  0  0
    4.5590    1.4580   -1.4555 H   0  0  0  0  0  0  0  0  0  0  0  0
    7.6455    1.7847   -0.8708 H   0  0  0  0  0  0  0  0  0  0  0  0
    7.5305    1.8990    0.9736 H   0  0  0  0  0  0  0  0  0  0  0  0
    7.8258    2.9106    0.0000 H   0  0  0  0  0  0  0  0  0  0  0  0
    3.8871    2.6128    1.3538 H   0  0  0  0  0  0  0  0  0  0  0  0
    4.9845    3.9475   -0.8922 H   0  0  0  0  0  0  0  0  0  0  0  0
    2.5744    4.4319    0.5520 H   0  0  0  0  0  0  0  0  0  0  0  0
    2.6017    3.9149   -1.1482 H   0  0  0  0  0  0  0  0  0  0  0  0
    0.7773    2.6326    1.0158 H   0  0  0  0  0  0  0  0  0  0  0  0
    0.6843    2.4420   -0.7720 H   0  0  0  0  0  0  0  0  0  0  0  0
    0.4898    5.3544    0.0809 H   0  0  0  0  0  0  0  0  0  0  0  0
   -1.6906    6.1826    1.0644 H   0  0  0  0  0  0  0  0  0  0  0  0
   -3.0250    5.7599   -0.0982 H   0  0  0  0  0  0  0  0  0  0  0  0
   -2.2758    7.0039    0.0000 H   0  0  0  0  0  0  0  0  0  0  0  0
   -1.7404    2.3896   -0.6165 H   0  0  0  0  0  0  0  0  0  0  0  0
   -4.3179    3.7801    0.1578 H   0  0  0  0  0  0  0  0  0  0  0  0
   -3.8470    1.3915   -1.6107 H   0  0  0  0  0  0  0  0  0  0  0  0
   -6.6132    3.1766   -0.1019 H   0  0  0  0  0  0  0  0  0  0  0  0
   -8.3434    5.4310   -0.9081 H   0  0  0  0  0  0  0  0  0  0  0  0
   -6.5106    5.3471    0.6937 H   0  0  0  0  0  0  0  0  0  0  0  0
   -7.8240    6.4900    0.7109 H   0  0  0  0  0  0  0  0  0  0  0  0
   -6.5587    6.6245    0.0000 H   0  0  0  0  0  0  0  0  0  0  0  0
   -9.7816    3.4263    0.6418 H   0  0  0  0  0  0  0  0  0  0  0  0
  -11.5385    6.2848    0.9179 H   0  0  0  0  0  0  0  0  0  0  0  0
  -11.5365    6.2976   -0.9095 H   0  0  0  0  0  0  0  0  0  0  0  0
  -12.5678    5.8664    0.0000 H   0  0  0  0  0  0  0  0  0  0  0  0
   -9.4310    4.1875   -2.3899 H   0  0  0  0  0  0  0  0  0  0  0  0
  -11.4598    3.4254   -2.0083 H   0  0  0  0  0  0  0  0  0  0  0  0
   -8.5967    1.4784   -1.1868 H   0  0  0  0  0  0  0  0  0  0  0  0
   -7.6225    1.2670   -3.1361 H   0  0  0  0  0  0  0  0  0  0  0  0
   -4.5786    0.0933    1.0925 H   0  0  0  0  0  0  0  0  0  0  0  0
   -6.4914    0.2857   -0.8885 H   0  0  0  0  0  0  0  0  0  0  0  0
   -6.5710    0.3114    0.8514 H   0  0  0  0  0  0  0  0  0  0  0  0
   -6.9497    1.3998    0.0000 H   0  0  0  0  0  0  0  0  0  0  0  0
   -2.6609    0.0116   -0.4781 H   0  0  0  0  0  0  0  0  0  0  0  0
   -1.5157   -1.7272   -0.5033 H   0  0  0  0  0  0  0  0  0  0  0  0
   -3.5775   -3.9656   -0.0271 H   0  0  0  0  0  0  0  0  0  0  0  0
   -2.4132   -5.9489    1.0076 H   0  0  0  0  0  0  0  0  0  0  0  0
   -0.9370   -6.4420    0.0634 H   0  0  0  0  0  0  0  0  0  0  0  0
   -2.2758   -7.0039    0.0000 H   0  0  0  0  0  0  0  0  0  0  0  0
    0.1142   -3.0126   -0.0911 H   0  0  0  0  0  0  0  0  0  0  0  0
    1.4748   -6.2443   -0.9723 H   0  0  0  0  0  0  0  0  0  0  0  0
    3.0337   -5.8099   -0.1146 H   0  0  0  0  0  0  0  0  0  0  0  0
    2.2758   -7.0039    0.0000 H   0  0  0  0  0  0  0  0  0  0  0  0
    7.6808   -3.0917   -1.0808 H   0  0  0  0  0  0  0  0  0  0  0  0
    6.1649   -4.4379   -0.5767 H   0  0  0  0  0  0  0  0  0  0  0  0
    6.0192   -3.8877    1.0392 H   0  0  0  0  0  0  0  0  0  0  0  0
    4.9666   -3.8520    0.0000 H   0  0  0  0  0  0  0  0  0  0  0  0
    8.6691   -2.9311    1.7418 H   0  0  0  0  0  0  0  0  0  0  0  0
    8.7707   -4.9714    1.1241 H   0  0  0  0  0  0  0  0  0  0  0  0
    9.4182   -1.6463   -1.0813 H   0  0  0  0  0  0  0  0  0  0  0  0
   11.0476   -2.6610    1.0865 H   0  0  0  0  0  0  0  0  0  0  0  0
   11.5138   -2.0730   -0.5325 H   0  0  0  0  0  0  0  0  0  0  0  0
   11.6085   -3.4417   -0.0000 H   0  0  0  0  0  0  0  0  0  0  0  0
   11.5760    3.6463    0.4427 H   0  0  0  0  0  0  0  0  0  0  0  0
   12.9019    2.9299   -1.1106 H   0  0  0  0  0  0  0  0  0  0  0  0
   12.5081    1.4839   -0.3547 H   0  0  0  0  0  0  0  0  0  0  0  0
   16.1830    0.7508   -0.1440 H   0  0  0  0  0  0  0  0  0  0  0  0
   16.3040    1.7502    1.1173 H   0  0  0  0  0  0  0  0  0  0  0  0
   17.2223    1.6620    0.0000 H   0  0  0  0  0  0  0  0  0  0  0  0
   14.4313    0.6982   -1.3587 H   0  0  0  0  0  0  0  0  0  0  0  0
   15.7183    3.6517    1.1127 H   0  0  0  0  0  0  0  0  0  0  0  0
   17.8003    3.5718    0.5346 H   0  0  0  0  0  0  0  0  0  0  0  0
   18.1588    1.8549   -1.8190 H   0  0  0  0  0  0  0  0  0  0  0  0
   18.1588    1.8549   -1.8190 H   0  0  0  0  0  0  0  0  0  0  0  0
   18.8811    1.9432    0.8815 H   0  0  0  0  0  0  0  0  0  0  0  0
   19.5250   -1.4895   -0.4946 H   0  0  0  0  0  0  0  0  0  0  0  0
   20.2141   -0.9327    1.0964 H   0  0  0  0  0  0  0  0  0  0  0  0
   20.8754   -1.5948    0.0000 H   0  0  0  0  0  0  0  0  0  0  0  0
   21.4264    2.3104    0.0955 H   0  0  0  0  0  0  0  0  0  0  0  0
   21.5665    2.7041    2.1791 H   0  0  0  0  0  0  0  0  0  0  0  0
   20.4666    4.1805   -1.0929 H   0  0  0  0  0  0  0  0  0  0  0  0
   21.8476    4.8303    1.0848 H   0  0  0  0  0  0  0  0  0  0  0  0
   21.7604    5.5990   -0.4871 H   0  0  0  0  0  0  0  0  0  0  0  0
   22.8296    4.7552    0.0000 H   0  0  0  0  0  0  0  0  0  0  0  0
   13.7469    4.8378   -0.9637 H   0  0  0  0  0  0  0  0  0  0  0  0
   15.5421    5.8110    1.0588 H   0  0  0  0  0  0  0  0  0  0  0  0
   15.2478    6.3260   -0.5816 H   0  0  0  0  0  0  0  0  0  0  0  0
   16.5408    5.9643    0.0000 H   0  0  0  0  0  0  0  0  0  0  0  0
  1  2  1  0  0  0  0
  1 79  1  0  0  0  0
  1 80  1  0  0  0  0
  1 81  1  0  0  0  0
  2  3  1  0  0  0  0
  3 82  1  0  0  0  0
  3 83  1  0  0  0  0
  4  3  1  0  0  0  0
  4  5  1  0  0  0  0
  4 58  1  0  0  0  0
  4 84  1  6  0  0  0
  5 85  1  0  0  0  0
  5 86  1  0  0  0  0
  6  5  1  0  0  0  0
  6  7  1  0  0  0  0
  6 87  1  1  0  0  0
  7  8  1  0  0  0  0
  8  9  1  1  0  0  0
  8 10  1  0  0  0  0
  8 52  1  0  0  0  0
  9 88  1  0  0  0  0
 10 11  1  0  0  0  0
 10 12  1  0  0  0  0
 10 89  1  1  0  0  0
 11 90  1  0  0  0  0
 12 13  1  0  0  0  0
 12 91  1  6  0  0  0
 13 14  1  0  0  0  0
 13 92  1  0  0  0  0
 13 93  1  0  0  0  0
 14 15  1  0  0  0  0
 14 17  1  0  0  0  0
 14 94  1  6  0  0  0
 15 16  1  0  0  0  0
 16 95  1  0  0  0  0
 16 96  1  0  0  0  0
 16 97  1  0  0  0  0
 17 18  1  0  0  0  0
 17 19  1  0  0  0  0
 17 98  1  1  0  0  0
 18 99  1  0  0  0  0
 19 20  1  0  0  0  0
 19100  1  0  0  0  0
 19101  1  0  0  0  0
 20 21  1  0  0  0  0
 20102  1  0  0  0  0
 20103  1  0  0  0  0
 21 22  2  0  0  0  0
 21104  1  0  0  0  0
 22 23  1  0  0  0  0
 22 24  1  0  0  0  0
 23105  1  0  0  0  0
 23106  1  0  0  0  0
 23107  1  0  0  0  0
 24 25  2  0  0  0  0
 24108  1  0  0  0  0
 25 26  1  0  0  0  0
 25109  1  0  0  0  0
 26 27  1  0  0  0  0
 26 39  1  0  0  0  0
 26110  1  1  0  0  0
 28 27  1  0  0  0  0
 28 29  1  0  0  0  0
 28111  1  6  0  0  0
 29 30  1  0  0  0  0
 30 31  1  0  0  0  0
 30 32  1  0  0  0  0
 30112  1  1  0  0  0
 31113  1  0  0  0  0
 31114  1  0  0  0  0
 31115  1  0  0  0  0
 32 33  1  0  0  0  0
 32 35  1  0  0  0  0
 32116  1  6  0  0  0
 33 34  1  0  0  0  0
 34117  1  0  0  0  0
 34118  1  0  0  0  0
 34119  1  0  0  0  0
 35 36  1  0  0  0  0
 35 37  1  0  0  0  0
 35120  1  1  0  0  0
 36121  1  0  0  0  0
 37 38  1  0  0  0  0
 37 28  1  0  0  0  0
 37122  1  6  0  0  0
 38123  1  0  0  0  0
 39 40  1  0  0  0  0
 39 41  1  0  0  0  0
 39124  1  6  0  0  0
 40125  1  0  0  0  0
 40126  1  0  0  0  0
 40127  1  0  0  0  0
 41 42  2  0  0  0  0
 41128  1  0  0  0  0
 42 43  1  0  0  0  0
 42129  1  0  0  0  0
 43 44  2  0  0  0  0
 43130  1  0  0  0  0
 44 45  1  0  0  0  0
 44 46  1  0  0  0  0
 45131  1  0  0  0  0
 45132  1  0  0  0  0
 45133  1  0  0  0  0
 46 47  2  0  0  0  0
 46134  1  0  0  0  0
 47 48  1  0  0  0  0
 47 49  1  0  0  0  0
 48135  1  0  0  0  0
 48136  1  0  0  0  0
 48137  1  0  0  0  0
 49 50  2  0  0  0  0
 49 51  1  0  0  0  0
 51 12  1  0  0  0  0
 52 53  1  0  0  0  0
 52 54  1  0  0  0  0
 52138  1  6  0  0  0
 53139  1  0  0  0  0
 53140  1  0  0  0  0
 53141  1  0  0  0  0
 54 55  1  0  0  0  0
 54 56  1  0  0  0  0
 54142  1  1  0  0  0
 55143  1  0  0  0  0
 56 57  1  0  0  0  0
 56  6  1  0  0  0  0
 56144  1  1  0  0  0
 57145  1  0  0  0  0
 57146  1  0  0  0  0
 57147  1  0  0  0  0
 59 58  1  0  0  0  0
 59 60  1  0  0  0  0
 59148  1  1  0  0  0
 60 61  1  0  0  0  0
 60149  1  0  0  0  0
 60150  1  0  0  0  0
 61 62  1  0  0  0  0
 61 63  1  1  0  0  0
 61 64  1  0  0  0  0
 62151  1  0  0  0  0
 62152  1  0  0  0  0
 62153  1  0  0  0  0
 63154  1  0  0  0  0
 64 65  1  0  0  0  0
 64 76  1  0  0  0  0
 64155  1  1  0  0  0
 66 65  1  0  0  0  0
 66 67  1  0  0  0  0
 66156  1  1  0  0  0
 67 68  1  0  0  0  0
 67157  1  0  0  0  0
 67158  1  0  0  0  0
 68 69  1  0  0  0  0
 68 71  1  0  0  0  0
 68159  1  1  0  0  0
 69 70  1  0  0  0  0
 70160  1  0  0  0  0
 70161  1  0  0  0  0
 70162  1  0  0  0  0
 71 72  1  0  0  0  0
 71 73  1  0  0  0  0
 71163  1  6  0  0  0
 72164  1  0  0  0  0
 73 74  1  0  0  0  0
 73 75  1  0  0  0  0
 73165  1  1  0  0  0
 74166  1  0  0  0  0
 74167  1  0  0  0  0
 74168  1  0  0  0  0
 75 66  1  0  0  0  0
 76 77  1  0  0  0  0
 76 78  1  0  0  0  0
 76169  1  6  0  0  0
 77170  1  0  0  0  0
 77171  1  0  0  0  0
 77172  1  0  0  0  0
 78 59  1  0  0  0  0
M  END
>  <IDENTIFIER>
CNP0186893.2

>  <Energy>
13788.8

$$$$
