
 OpenBabel09052510062D

192191  0  0  0  0  0  0  0  0999 V2000
   22.0836   12.7500    0.0000 C   0  0  0  0  0  0  0  0  0  0  0  0
   20.7846   12.0000    0.0000 C   0  0  0  0  0  2  0  0  0  0  0  0
   19.4856   11.2500    0.0000 C   0  0  0  0  0  0  0  0  0  0  0  0
   18.1865   10.5000    0.0000 C   0  0  0  0  0  0  0  0  0  0  0  0
   16.8875    9.7500    0.0000 C   0  0  0  0  0  2  0  0  0  0  0  0
   15.5885    9.0000    0.0000 C   0  0  0  0  0  0  0  0  0  0  0  0
   13.9500    8.6434   -0.1170 C   0  0  0  0  0  0  0  0  0  0  0  0
   13.3333    7.0779    0.1358 C   0  0  0  0  0  0  0  0  0  0  0  0
   11.6913    6.7500    0.0000 C   0  0  0  0  0  0  0  0  0  0  0  0
   10.3923    6.0000    0.0000 C   0  0  0  0  0  0  0  0  0  0  0  0
    9.0933    5.2500    0.0000 C   0  0  0  0  0  0  0  0  0  0  0  0
    7.7942    4.5000    0.0000 C   0  0  0  0  0  0  0  0  0  0  0  0
    6.4952    3.7500    0.0000 C   0  0  0  0  0  0  0  0  0  0  0  0
    5.1962    3.0000    0.0000 C   0  0  0  0  0  0  0  0  0  0  0  0
    3.5703    2.9132   -0.3718 C   0  0  0  0  0  0  0  0  0  0  0  0
    2.7495    1.4665   -0.0813 C   0  0  0  0  0  0  0  0  0  0  0  0
    1.1398    1.1514   -0.4497 C   0  0  0  0  0  0  0  0  0  0  0  0
    0.4212   -0.2924   -0.1136 C   0  0  0  0  0  0  0  0  0  0  0  0
    1.1300   -1.1107    0.4508 O   0  0  0  0  0  0  0  0  0  0  0  0
   -0.9425   -0.6901   -0.4130 O   0  0  0  0  0  0  0  0  0  0  0  0
   -1.6074   -1.9552   -0.0398 C   0  0  0  0  0  0  0  0  0  0  0  0
   -3.1904   -2.3316   -0.4702 C   0  0  1  0  0  0  0  0  0  0  0  0
   -3.7059   -3.8546    0.0890 C   0  0  0  0  0  0  0  0  0  0  0  0
   -4.9675   -4.5752   -0.2029 O   0  0  0  0  0  0  0  0  0  0  0  0
   -5.1962   -6.0000    0.0000 C   0  0  0  0  0  0  0  0  0  0  0  0
   -4.1831   -6.6712    0.1969 O   0  0  0  0  0  0  0  0  0  0  0  0
   -6.4952   -6.7500    0.0000 C   0  0  0  0  0  0  0  0  0  0  0  0
   -7.7942   -7.5000    0.0000 C   0  0  0  0  0  0  0  0  0  0  0  0
   -9.0933   -8.2500    0.0000 C   0  0  0  0  0  0  0  0  0  0  0  0
  -10.3923   -9.0000    0.0000 C   0  0  0  0  0  0  0  0  0  0  0  0
  -11.6913   -9.7500    0.0000 C   0  0  0  0  0  0  0  0  0  0  0  0
  -13.3392  -10.0668   -0.0757 C   0  0  0  0  0  0  0  0  0  0  0  0
  -13.9458  -11.6501    0.0684 C   0  0  0  0  0  0  0  0  0  0  0  0
  -15.5885  -12.0000    0.0000 C   0  0  0  0  0  0  0  0  0  0  0  0
  -16.8875  -12.7500    0.0000 C   0  0  0  0  0  2  0  0  0  0  0  0
  -18.1865  -13.5000    0.0000 C   0  0  0  0  0  0  0  0  0  0  0  0
  -19.4856  -14.2500    0.0000 C   0  0  0  0  0  0  0  0  0  0  0  0
  -20.7846  -15.0000    0.0000 C   0  0  0  0  0  2  0  0  0  0  0  0
  -22.0836  -15.7500    0.0000 C   0  0  0  0  0  0  0  0  0  0  0  0
  -23.6378  -16.2530    0.3956 C   0  0  0  0  0  0  0  0  0  0  0  0
  -24.4354  -17.5046   -0.4364 C   0  0  0  0  0  0  0  0  0  0  0  0
  -25.9808  -18.0000    0.0000 C   0  0  0  0  0  0  0  0  0  0  0  0
  -27.2798  -18.7500    0.0000 C   0  0  3  0  0  0  0  0  0  0  0  0
  -28.5788  -19.5000    0.0000 C   0  0  0  0  0  0  0  0  0  0  0  0
  -26.5298  -20.0490    0.0000 C   0  0  0  0  0  0  0  0  0  0  0  0
  -25.7798  -21.3481    0.0000 C   0  0  0  0  0  0  0  0  0  0  0  0
   -3.9567   -1.2137   -0.0909 O   0  0  0  0  0  0  0  0  0  0  0  0
   -5.2331   -0.7752   -0.3845 C   0  0  0  0  0  0  0  0  0  0  0  0
   -6.1161   -1.5580   -0.6939 O   0  0  0  0  0  0  0  0  0  0  0  0
   -5.4709    0.7499   -0.3455 C   0  0  0  0  0  0  0  0  0  0  0  0
   -6.8980    1.4340   -0.4838 C   0  0  0  0  0  0  0  0  0  0  0  0
   -6.7107    3.0033   -0.4509 C   0  0  0  0  0  0  0  0  0  0  0  0
   -7.8103    4.0444    0.0110 C   0  0  0  0  0  0  0  0  0  0  0  0
   -8.8495    4.8703   -0.8868 C   0  0  0  0  0  0  0  0  0  0  0  0
   -9.3481    6.0933    0.0000 C   0  0  0  0  0  0  0  0  0  0  0  0
  -10.0981    7.3923    0.0000 C   0  0  0  0  0  0  0  0  0  0  0  0
  -10.8481    8.6913    0.0000 C   0  0  0  0  0  0  0  0  0  0  0  0
  -11.1688   10.3402   -0.0623 C   0  0  0  0  0  0  0  0  0  0  0  0
  -12.7527   10.9473    0.1131 C   0  0  0  0  0  0  0  0  0  0  0  0
  -13.0981   12.5885    0.0000 C   0  0  0  0  0  0  0  0  0  0  0  0
  -13.8481   13.8875    0.0000 C   0  0  0  0  0  0  0  0  0  0  0  0
  -14.5981   15.1865    0.0000 C   0  0  0  0  0  0  0  0  0  0  0  0
  -15.3481   16.4856    0.0000 C   0  0  0  0  0  0  0  0  0  0  0  0
  -16.0981   17.7846    0.0000 C   0  0  0  0  0  0  0  0  0  0  0  0
  -16.8481   19.0836    0.0000 C   0  0  0  0  0  0  0  0  0  0  0  0
  -17.2096   20.7185   -0.1488 C   0  0  0  0  0  0  0  0  0  0  0  0
  -18.7512   21.3508    0.2190 C   0  0  0  0  0  0  0  0  0  0  0  0
  -19.0981   22.9808    0.0000 C   0  0  0  0  0  0  0  0  0  0  0  0
  -19.8481   24.2798    0.0000 C   0  0  0  0  0  0  0  0  0  0  0  0
  -20.5981   25.5788    0.0000 C   0  0  0  0  0  0  0  0  0  0  0  0
  -21.3481   26.8779    0.0000 C   0  0  0  0  0  0  0  0  0  0  0  0
  -21.8971   24.8288    0.0000 C   0  0  0  0  0  0  0  0  0  0  0  0
   22.6088   12.0001    0.6265 H   0  0  0  0  0  0  0  0  0  0  0  0
   21.7031   13.5689    0.6445 H   0  0  0  0  0  0  0  0  0  0  0  0
   23.0102   13.2850    0.0000 H   0  0  0  0  0  0  0  0  0  0  0  0
   19.8548   10.6938   -0.8956 H   0  0  0  0  0  0  0  0  0  0  0  0
   19.8545   10.6947    0.8963 H   0  0  0  0  0  0  0  0  0  0  0  0
   17.8176   11.0554   -0.8962 H   0  0  0  0  0  0  0  0  0  0  0  0
   17.8172   11.0559    0.8958 H   0  0  0  0  0  0  0  0  0  0  0  0
   15.7275    8.5643    1.0114 H   0  0  0  0  0  0  0  0  0  0  0  0
   15.9257    8.2197   -0.7138 H   0  0  0  0  0  0  0  0  0  0  0  0
   13.6306    8.9510   -1.1348 H   0  0  0  0  0  0  0  0  0  0  0  0
   13.4289    9.3077    0.6041 H   0  0  0  0  0  0  0  0  0  0  0  0
   13.8550    6.4062   -0.5780 H   0  0  0  0  0  0  0  0  0  0  0  0
   13.6401    6.7737    1.1584 H   0  0  0  0  0  0  0  0  0  0  0  0
   11.3830    7.5942    0.6671 H   0  0  0  0  0  0  0  0  0  0  0  0
   11.5913    7.1978   -1.0210 H   0  0  0  0  0  0  0  0  0  0  0  0
   10.9938    5.2537   -0.6150 H   0  0  0  0  0  0  0  0  0  0  0  0
   10.5127    5.7978    1.0995 H   0  0  0  0  0  0  0  0  0  0  0  0
    9.0538    5.3620   -1.1276 H   0  0  0  0  0  0  0  0  0  0  0  0
    9.5666    4.2323    0.2114 H   0  0  0  0  0  0  0  0  0  0  0  0
    7.3169    5.5097   -0.2417 H   0  0  0  0  0  0  0  0  0  0  0  0
    7.8236    4.4101    1.1274 H   0  0  0  0  0  0  0  0  0  0  0  0
    5.8729    4.5231    0.5559 H   0  0  0  0  0  0  0  0  0  0  0  0
    6.4200    3.8690   -1.1131 H   0  0  0  0  0  0  0  0  0  0  0  0
    5.1560    2.6370    1.0577 H   0  0  0  0  0  0  0  0  0  0  0  0
    5.5136    2.0803   -0.5499 H   0  0  0  0  0  0  0  0  0  0  0  0
    3.0478    3.7195    0.1844 H   0  0  0  0  0  0  0  0  0  0  0  0
    3.4718    3.1326   -1.4553 H   0  0  0  0  0  0  0  0  0  0  0  0
    3.3295    0.6816   -0.6103 H   0  0  0  0  0  0  0  0  0  0  0  0
    2.8585    1.2719    1.0062 H   0  0  0  0  0  0  0  0  0  0  0  0
    0.5376    1.9304    0.0636 H   0  0  0  0  0  0  0  0  0  0  0  0
    1.0340    1.3126   -1.5422 H   0  0  0  0  0  0  0  0  0  0  0  0
   -0.9780   -2.7873   -0.4202 H   0  0  0  0  0  0  0  0  0  0  0  0
   -1.5751   -2.0135    1.0688 H   0  0  0  0  0  0  0  0  0  0  0  0
   -3.2004   -2.3746   -1.5797 H   0  0  0  0  0  0  0  0  0  0  0  0
   -2.8959   -4.5196   -0.2759 H   0  0  0  0  0  0  0  0  0  0  0  0
   -3.5982   -3.8344    1.1942 H   0  0  0  0  0  0  0  0  0  0  0  0
   -6.1102   -7.4132   -0.8171 H   0  0  0  0  0  0  0  0  0  0  0  0
   -6.2132   -6.9811    1.0790 H   0  0  0  0  0  0  0  0  0  0  0  0
   -8.1680   -6.8428    0.8484 H   0  0  0  0  0  0  0  0  0  0  0  0
   -7.3440   -8.4405    0.4649 H   0  0  0  0  0  0  0  0  0  0  0  0
   -9.5314   -7.3006   -0.4650 H   0  0  0  0  0  0  0  0  0  0  0  0
   -8.7386   -8.9024   -0.8539 H   0  0  0  0  0  0  0  0  0  0  0  0
  -10.7441   -8.6706   -1.0339 H   0  0  0  0  0  0  0  0  0  0  0  0
  -10.7992   -8.3201    0.7947 H   0  0  0  0  0  0  0  0  0  0  0  0
  -11.4212  -10.5454   -0.7449 H   0  0  0  0  0  0  0  0  0  0  0  0
  -11.5420  -10.2732    0.9757 H   0  0  0  0  0  0  0  0  0  0  0  0
  -13.8217   -9.4605    0.7196 H   0  0  0  0  0  0  0  0  0  0  0  0
  -13.6974   -9.6756   -1.0510 H   0  0  0  0  0  0  0  0  0  0  0  0
  -13.5774  -12.0446    1.0386 H   0  0  0  0  0  0  0  0  0  0  0  0
  -13.4617  -12.2475   -0.7326 H   0  0  0  0  0  0  0  0  0  0  0  0
  -15.7760  -11.4793   -0.9622 H   0  0  0  0  0  0  0  0  0  0  0  0
  -15.8891  -11.2848    0.7939 H   0  0  0  0  0  0  0  0  0  0  0  0
  -17.8175  -14.0555    0.8961 H   0  0  0  0  0  0  0  0  0  0  0  0
  -17.8173  -14.0557   -0.8959 H   0  0  0  0  0  0  0  0  0  0  0  0
  -19.8548  -13.6942    0.8958 H   0  0  0  0  0  0  0  0  0  0  0  0
  -19.8546  -13.6945   -0.8961 H   0  0  0  0  0  0  0  0  0  0  0  0
  -22.2910  -15.5826   -1.0775 H   0  0  0  0  0  0  0  0  0  0  0  0
  -21.6177  -16.7554    0.0651 H   0  0  0  0  0  0  0  0  0  0  0  0
  -23.6112  -16.5487    1.4654 H   0  0  0  0  0  0  0  0  0  0  0  0
  -24.2906  -15.3581    0.3197 H   0  0  0  0  0  0  0  0  0  0  0  0
  -23.7829  -18.4004   -0.3675 H   0  0  0  0  0  0  0  0  0  0  0  0
  -24.4775  -17.2094   -1.5058 H   0  0  0  0  0  0  0  0  0  0  0  0
  -26.4167  -16.9707   -0.0335 H   0  0  0  0  0  0  0  0  0  0  0  0
  -25.7312  -18.0999    1.0894 H   0  0  0  0  0  0  0  0  0  0  0  0
  -27.4076  -18.4601   -1.0820 H   0  0  0  0  0  0  0  0  0  0  0  0
  -29.2421  -18.6221   -0.1986 H   0  0  0  0  0  0  0  0  0  0  0  0
  -28.6934  -19.6264    1.1058 H   0  0  0  0  0  0  0  0  0  0  0  0
  -29.5054  -20.0350    0.0000 H   0  0  0  0  0  0  0  0  0  0  0  0
  -26.7659  -20.2992    1.0859 H   0  0  0  0  0  0  0  0  0  0  0  0
  -26.9431  -20.5122   -0.9727 H   0  0  0  0  0  0  0  0  0  0  0  0
  -25.1288  -21.1902   -0.9102 H   0  0  0  0  0  0  0  0  0  0  0  0
  -25.0161  -21.1178    0.7950 H   0  0  0  0  0  0  0  0  0  0  0  0
  -25.2448  -22.2748    0.0000 H   0  0  0  0  0  0  0  0  0  0  0  0
   -5.0687    1.0759    0.6381 H   0  0  0  0  0  0  0  0  0  0  0  0
   -4.8122    1.1749   -1.1326 H   0  0  0  0  0  0  0  0  0  0  0  0
   -7.4272    1.1340   -1.4122 H   0  0  0  0  0  0  0  0  0  0  0  0
   -7.4988    1.1124    0.3944 H   0  0  0  0  0  0  0  0  0  0  0  0
   -6.1951    3.3619   -1.3669 H   0  0  0  0  0  0  0  0  0  0  0  0
   -5.9653    3.1150    0.3704 H   0  0  0  0  0  0  0  0  0  0  0  0
   -8.3208    3.6416    0.9131 H   0  0  0  0  0  0  0  0  0  0  0  0
   -7.1406    4.8520    0.3808 H   0  0  0  0  0  0  0  0  0  0  0  0
   -9.6921    4.2263   -1.2162 H   0  0  0  0  0  0  0  0  0  0  0  0
   -8.3234    5.2745   -1.7766 H   0  0  0  0  0  0  0  0  0  0  0  0
   -8.3763    6.5365    0.3176 H   0  0  0  0  0  0  0  0  0  0  0  0
   -9.7042    5.5885    0.9347 H   0  0  0  0  0  0  0  0  0  0  0  0
   -9.6491    7.6542   -0.9900 H   0  0  0  0  0  0  0  0  0  0  0  0
  -11.0255    6.7625   -0.1209 H   0  0  0  0  0  0  0  0  0  0  0  0
  -11.6107    8.5107   -0.8095 H   0  0  0  0  0  0  0  0  0  0  0  0
  -11.3550    8.5448    0.9827 H   0  0  0  0  0  0  0  0  0  0  0  0
  -10.5463   10.8279    0.7166 H   0  0  0  0  0  0  0  0  0  0  0  0
  -10.7985   10.6979   -1.0472 H   0  0  0  0  0  0  0  0  0  0  0  0
  -13.1029   10.6159    1.1133 H   0  0  0  0  0  0  0  0  0  0  0  0
  -13.3861   10.4355   -0.6416 H   0  0  0  0  0  0  0  0  0  0  0  0
  -12.6291   12.7094   -1.0066 H   0  0  0  0  0  0  0  0  0  0  0  0
  -12.2648   12.8861    0.6914 H   0  0  0  0  0  0  0  0  0  0  0  0
  -14.1156   13.5750    1.0643 H   0  0  0  0  0  0  0  0  0  0  0  0
  -14.5752   13.4511   -0.7351 H   0  0  0  0  0  0  0  0  0  0  0  0
  -13.8996   15.5680    0.8060 H   0  0  0  0  0  0  0  0  0  0  0  0
  -15.5215   14.7662    0.5276 H   0  0  0  0  0  0  0  0  0  0  0  0
  -16.0549   16.1004   -0.7991 H   0  0  0  0  0  0  0  0  0  0  0  0
  -14.4313   16.9011   -0.5410 H   0  0  0  0  0  0  0  0  0  0  0  0
  -15.3454   18.2367    0.7005 H   0  0  0  0  0  0  0  0  0  0  0  0
  -15.8658   18.0783   -1.0776 H   0  0  0  0  0  0  0  0  0  0  0  0
  -17.2540   19.0004    1.0380 H   0  0  0  0  0  0  0  0  0  0  0  0
  -17.7194   18.7570   -0.6272 H   0  0  0  0  0  0  0  0  0  0  0  0
  -16.9954   20.9913   -1.2036 H   0  0  0  0  0  0  0  0  0  0  0  0
  -16.4822   21.2680    0.4849 H   0  0  0  0  0  0  0  0  0  0  0  0
  -19.4952   20.7793   -0.3753 H   0  0  0  0  0  0  0  0  0  0  0  0
  -18.9385   21.1169    1.2885 H   0  0  0  0  0  0  0  0  0  0  0  0
  -18.1413   23.2353    0.5477 H   0  0  0  0  0  0  0  0  0  0  0  0
  -18.8712   22.9597   -1.0932 H   0  0  0  0  0  0  0  0  0  0  0  0
  -18.8905   24.8622   -0.2105 H   0  0  0  0  0  0  0  0  0  0  0  0
  -19.8726   24.2339    1.1243 H   0  0  0  0  0  0  0  0  0  0  0  0
  -20.3440   25.7208   -1.1030 H   0  0  0  0  0  0  0  0  0  0  0  0
  -20.4447   27.5287    0.0550 H   0  0  0  0  0  0  0  0  0  0  0  0
  -21.8393   26.9590   -1.0215 H   0  0  0  0  0  0  0  0  0  0  0  0
  -21.8831   27.8046    0.0000 H   0  0  0  0  0  0  0  0  0  0  0  0
  -21.9833   24.4902    1.0674 H   0  0  0  0  0  0  0  0  0  0  0  0
  -21.9061   24.2027   -0.9432 H   0  0  0  0  0  0  0  0  0  0  0  0
  -22.8237   24.2938    0.0000 H   0  0  0  0  0  0  0  0  0  0  0  0
  1  2  1  0  0  0  0
  1 73  1  0  0  0  0
  1 74  1  0  0  0  0
  1 75  1  0  0  0  0
  2  3  1  0  0  0  0
  3  4  1  0  0  0  0
  3 76  1  0  0  0  0
  3 77  1  0  0  0  0
  4  5  1  0  0  0  0
  4 78  1  0  0  0  0
  4 79  1  0  0  0  0
  5  6  1  0  0  0  0
  6  7  1  0  0  0  0
  6 80  1  0  0  0  0
  6 81  1  0  0  0  0
  7  8  1  0  0  0  0
  7 82  1  0  0  0  0
  7 83  1  0  0  0  0
  8  9  1  0  0  0  0
  8 84  1  0  0  0  0
  8 85  1  0  0  0  0
  9 10  1  0  0  0  0
  9 86  1  0  0  0  0
  9 87  1  0  0  0  0
 10 11  1  0  0  0  0
 10 88  1  0  0  0  0
 10 89  1  0  0  0  0
 11 12  1  0  0  0  0
 11 90  1  0  0  0  0
 11 91  1  0  0  0  0
 12 13  1  0  0  0  0
 12 92  1  0  0  0  0
 12 93  1  0  0  0  0
 13 14  1  0  0  0  0
 13 94  1  0  0  0  0
 13 95  1  0  0  0  0
 14 15  1  0  0  0  0
 14 96  1  0  0  0  0
 14 97  1  0  0  0  0
 15 16  1  0  0  0  0
 15 98  1  0  0  0  0
 15 99  1  0  0  0  0
 16 17  1  0  0  0  0
 16100  1  0  0  0  0
 16101  1  0  0  0  0
 17 18  1  0  0  0  0
 17102  1  0  0  0  0
 17103  1  0  0  0  0
 18 19  2  0  0  0  0
 18 20  1  0  0  0  0
 20 21  1  0  0  0  0
 21104  1  0  0  0  0
 21105  1  0  0  0  0
 22 21  1  0  0  0  0
 22 23  1  0  0  0  0
 22 47  1  0  0  0  0
 22106  1  6  0  0  0
 23 24  1  0  0  0  0
 23107  1  0  0  0  0
 23108  1  0  0  0  0
 24 25  1  0  0  0  0
 25 26  2  0  0  0  0
 25 27  1  0  0  0  0
 27 28  1  0  0  0  0
 27109  1  0  0  0  0
 27110  1  0  0  0  0
 28 29  1  0  0  0  0
 28111  1  0  0  0  0
 28112  1  0  0  0  0
 29 30  1  0  0  0  0
 29113  1  0  0  0  0
 29114  1  0  0  0  0
 30 31  1  0  0  0  0
 30115  1  0  0  0  0
 30116  1  0  0  0  0
 31 32  1  0  0  0  0
 31117  1  0  0  0  0
 31118  1  0  0  0  0
 32 33  1  0  0  0  0
 32119  1  0  0  0  0
 32120  1  0  0  0  0
 33 34  1  0  0  0  0
 33121  1  0  0  0  0
 33122  1  0  0  0  0
 34 35  1  0  0  0  0
 34123  1  0  0  0  0
 34124  1  0  0  0  0
 35 36  1  0  0  0  0
 36 37  1  0  0  0  0
 36125  1  0  0  0  0
 36126  1  0  0  0  0
 37 38  1  0  0  0  0
 37127  1  0  0  0  0
 37128  1  0  0  0  0
 38 39  1  0  0  0  0
 39 40  1  0  0  0  0
 39129  1  0  0  0  0
 39130  1  0  0  0  0
 40 41  1  0  0  0  0
 40131  1  0  0  0  0
 40132  1  0  0  0  0
 41 42  1  0  0  0  0
 41133  1  0  0  0  0
 41134  1  0  0  0  0
 42 43  1  0  0  0  0
 42135  1  0  0  0  0
 42136  1  0  0  0  0
 43 44  1  0  0  0  0
 43 45  1  0  0  0  0
 43137  1  0  0  0  0
 44138  1  0  0  0  0
 44139  1  0  0  0  0
 44140  1  0  0  0  0
 45 46  1  0  0  0  0
 45141  1  0  0  0  0
 45142  1  0  0  0  0
 46143  1  0  0  0  0
 46144  1  0  0  0  0
 46145  1  0  0  0  0
 47 48  1  0  0  0  0
 48 49  2  0  0  0  0
 48 50  1  0  0  0  0
 50 51  1  0  0  0  0
 50146  1  0  0  0  0
 50147  1  0  0  0  0
 51 52  1  0  0  0  0
 51148  1  0  0  0  0
 51149  1  0  0  0  0
 52 53  1  0  0  0  0
 52150  1  0  0  0  0
 52151  1  0  0  0  0
 53 54  1  0  0  0  0
 53152  1  0  0  0  0
 53153  1  0  0  0  0
 54 55  1  0  0  0  0
 54154  1  0  0  0  0
 54155  1  0  0  0  0
 55 56  1  0  0  0  0
 55156  1  0  0  0  0
 55157  1  0  0  0  0
 56 57  1  0  0  0  0
 56158  1  0  0  0  0
 56159  1  0  0  0  0
 57 58  1  0  0  0  0
 57160  1  0  0  0  0
 57161  1  0  0  0  0
 58 59  1  0  0  0  0
 58162  1  0  0  0  0
 58163  1  0  0  0  0
 59 60  1  0  0  0  0
 59164  1  0  0  0  0
 59165  1  0  0  0  0
 60 61  1  0  0  0  0
 60166  1  0  0  0  0
 60167  1  0  0  0  0
 61 62  1  0  0  0  0
 61168  1  0  0  0  0
 61169  1  0  0  0  0
 62 63  1  0  0  0  0
 62170  1  0  0  0  0
 62171  1  0  0  0  0
 63 64  1  0  0  0  0
 63172  1  0  0  0  0
 63173  1  0  0  0  0
 64 65  1  0  0  0  0
 64174  1  0  0  0  0
 64175  1  0  0  0  0
 65 66  1  0  0  0  0
 65176  1  0  0  0  0
 65177  1  0  0  0  0
 66 67  1  0  0  0  0
 66178  1  0  0  0  0
 66179  1  0  0  0  0
 67 68  1  0  0  0  0
 67180  1  0  0  0  0
 67181  1  0  0  0  0
 68 69  1  0  0  0  0
 68182  1  0  0  0  0
 68183  1  0  0  0  0
 69 70  1  0  0  0  0
 69184  1  0  0  0  0
 69185  1  0  0  0  0
 70 71  1  0  0  0  0
 70 72  1  0  0  0  0
 70186  1  0  0  0  0
 71187  1  0  0  0  0
 71188  1  0  0  0  0
 71189  1  0  0  0  0
 72190  1  0  0  0  0
 72191  1  0  0  0  0
 72192  1  0  0  0  0
M  END
>  <IDENTIFIER>
CNP0481212.2

>  <Energy>
16232.1

$$$$
