
 OpenBabel09092501133D

170182  0  0  0  0  0  0  0  0999 V2000
   10.8850    3.4159    0.8002 C   0  0  0  0  0  0  0  0  0  0  0  0
    9.9800    4.0532   -0.2618 C   0  0  2  0  0  0  0  0  0  0  0  0
   10.7625    4.6453   -1.2681 O   0  0  0  0  0  0  0  0  0  0  0  0
    9.0154    5.0922    0.3487 C   0  0  0  0  0  0  0  0  0  0  0  0
    8.0772    4.4708    1.2934 N   0  0  0  0  0  0  0  0  0  0  0  0
    7.1457    3.7290    0.5700 N   0  0  0  0  0  0  0  0  0  0  0  0
    7.0012    2.3355    0.7807 C   0  0  0  0  0  0  0  0  0  0  0  0
    6.1645    1.5862   -0.0570 C   0  0  0  0  0  0  0  0  0  0  0  0
    6.0238    0.2042    0.1477 C   0  0  0  0  0  0  0  0  0  0  0  0
    5.1854   -0.6603   -0.7826 C   0  0  1  0  0  0  0  0  0  0  0  0
    3.7770   -0.0682   -1.1159 C   0  0  0  0  0  0  0  0  0  0  0  0
    3.0130    0.2463    0.0497 O   0  0  0  0  0  0  0  0  0  0  0  0
    1.9822   -0.6996    0.3481 C   0  0  2  0  0  0  0  0  0  0  0  0
    0.6590    0.0326    0.7684 C   0  0  1  0  0  0  0  0  0  0  0  0
    0.0987    0.7173   -0.3049 O   0  0  0  0  0  0  0  0  0  0  0  0
   -1.0645    1.4277   -0.1998 C   0  0  0  0  0  0  0  0  0  0  0  0
   -2.3856    0.8108   -0.1464 C   0  0  0  0  0  0  0  0  0  0  0  0
   -3.4903    1.6885   -0.0086 C   0  0  0  0  0  0  0  0  0  0  0  0
   -3.4023    3.0690   -0.0388 C   0  0  0  0  0  0  0  0  0  0  0  0
   -4.6559    3.8741    0.0061 C   0  0  0  0  0  0  0  0  0  0  0  0
   -5.7371    3.3200    0.1548 O   0  0  0  0  0  0  0  0  0  0  0  0
   -4.6123    5.3370   -0.1865 C   0  0  0  0  0  0  0  0  0  0  0  0
   -5.8027    6.0831   -0.2440 C   0  0  0  0  0  0  0  0  0  0  0  0
   -5.7667    7.4591   -0.4585 C   0  0  0  0  0  0  0  0  0  0  0  0
   -4.5412    8.1185   -0.6065 C   0  0  0  0  0  0  0  0  0  0  0  0
   -4.5102    9.6033   -0.8519 C   0  0  0  0  0  0  0  0  0  0  0  0
   -3.8442   10.2566    0.1932 O   0  0  0  0  0  0  0  0  0  0  0  0
   -3.3467    7.3798   -0.5377 C   0  0  0  0  0  0  0  0  0  0  0  0
   -3.3735    5.9827   -0.3360 C   0  0  0  0  0  0  0  0  0  0  0  0
   -2.1147    5.1833   -0.3035 C   0  0  0  0  0  0  0  0  0  0  0  0
   -1.0489    5.7690   -0.4253 O   0  0  0  0  0  0  0  0  0  0  0  0
   -2.1571    3.6773   -0.1863 C   0  0  0  0  0  0  0  0  0  0  0  0
   -0.9836    2.8716   -0.2376 C   0  0  0  0  0  0  0  0  0  0  0  0
    0.1758    3.5715   -0.3813 O   0  0  0  0  0  0  0  0  0  0  0  0
    1.4571    3.3718    0.0842 C   0  0  0  0  0  0  0  0  0  0  0  0
    1.8215    4.5574    0.9978 C   0  0  2  0  0  0  0  0  0  0  0  0
    3.1658    4.4712    1.4003 O   0  0  0  0  0  0  0  0  0  0  0  0
    0.8773    4.6359    2.2234 C   0  0  0  0  0  0  0  0  0  0  0  0
    1.1223    5.8608    3.0543 C   0  0  0  0  0  0  0  0  0  0  0  0
    2.1991    6.0425    3.5988 O   0  0  0  0  0  0  0  0  0  0  0  0
   -2.9141   -0.6688   -0.3926 C   0  0  1  0  0  0  0  0  0  0  0  0
   -3.8188   -0.5189   -1.6409 C   0  0  0  0  0  0  0  0  0  0  0  0
   -3.2608    0.0594   -2.8059 C   0  0  0  0  0  0  0  0  0  0  0  0
   -4.0319    0.2659   -3.9452 C   0  0  0  0  0  0  0  0  0  0  0  0
   -5.3749   -0.0906   -3.9482 C   0  0  0  0  0  0  0  0  0  0  0  0
   -5.9511   -0.6645   -2.8161 C   0  0  0  0  0  0  0  0  0  0  0  0
   -5.1902   -0.9044   -1.6534 C   0  0  0  0  0  0  0  0  0  0  0  0
   -5.8010   -1.4879   -0.4949 N   0  0  0  0  0  0  0  0  0  0  0  0
   -6.6547   -0.6851    0.3573 C   0  0  0  0  0  0  0  0  0  0  0  0
   -7.8161   -1.5106    0.7097 N   0  0  0  0  0  0  0  0  0  0  0  0
   -7.2463   -2.8562    0.7086 C   0  0  1  0  0  0  0  0  0  0  0  0
   -8.2882   -3.9462    0.6274 C   0  0  0  0  0  0  0  0  0  0  0  0
   -9.0735   -4.0888    1.5523 O   0  0  0  0  0  0  0  0  0  0  0  0
   -8.3454   -4.7882   -0.4390 N   0  0  0  0  0  0  0  0  0  0  0  0
   -7.5013   -4.6341   -1.6137 C   0  0  2  0  0  0  0  0  0  0  0  0
   -6.4805   -5.6819   -1.6413 N   0  0  0  0  0  0  0  0  0  0  0  0
   -6.9148   -3.2809   -1.6980 N   0  0  0  0  0  0  0  0  0  0  0  0
   -6.2546   -2.8711   -0.4483 C   0  0  1  0  0  0  0  0  0  0  0  0
   -2.1162   -2.0903   -0.4223 C   0  0  2  0  0  0  0  0  0  0  0  0
   -2.5646   -2.9741   -1.6577 C   0  0  0  0  0  0  0  0  0  0  0  0
   -1.7075   -4.1104   -2.2687 C   0  0  0  0  0  0  0  0  0  0  0  0
   -1.0926   -5.3107   -1.4720 C   0  0  1  0  0  0  0  0  0  0  0  0
   -1.2119   -6.4830   -2.2489 O   0  0  0  0  0  0  0  0  0  0  0  0
    0.4186   -5.1736   -1.0615 C   0  0  2  0  0  0  0  0  0  0  0  0
    0.6488   -4.2091    0.0191 C   0  0  0  0  0  0  0  0  0  0  0  0
    0.9285   -3.4415    0.9043 C   0  0  0  0  0  0  0  0  0  0  0  0
    1.2927   -2.5010    1.9992 C   0  0  1  0  0  0  0  0  0  0  0  0
    1.7063   -3.2166    3.1396 O   0  0  0  0  0  0  0  0  0  0  0  0
    2.4347   -1.5811    1.5408 C   0  0  1  0  0  0  0  0  0  0  0  0
    3.5794   -2.3390    1.2586 O   0  0  0  0  0  0  0  0  0  0  0  0
    0.0872   -1.5846    2.3632 C   0  0  1  0  0  0  0  0  0  0  0  0
   -0.3111   -0.8662    1.2270 O   0  0  0  0  0  0  0  0  0  0  0  0
   -1.1766   -2.3376    2.8351 C   0  0  0  0  0  0  0  0  0  0  0  0
   -0.9843   -3.0917    4.1675 C   0  0  0  0  0  0  0  0  0  0  0  0
   -2.4125   -3.4516    4.5426 C   0  0  0  0  0  0  0  0  0  0  0  0
   -3.2357   -2.2132    4.1759 C   0  0  0  0  0  0  0  0  0  0  0  0
   -2.3070   -1.3776    3.2838 C   0  0  0  0  0  0  0  0  0  0  0  0
   -1.5240   -3.2889    1.8315 O   0  0  0  0  0  0  0  0  0  0  0  0
   -2.5126   -2.9487    0.8798 C   0  0  0  0  0  0  0  0  0  0  0  0
    1.3549   -4.9498   -2.2866 C   0  0  0  0  0  0  0  0  0  0  0  0
    2.8175   -4.6990   -1.9983 C   0  0  0  0  0  0  0  0  0  0  0  0
    3.4212   -3.5435   -2.5266 C   0  0  0  0  0  0  0  0  0  0  0  0
    4.7871   -3.2862   -2.3505 C   0  0  0  0  0  0  0  0  0  0  0  0
    5.5575   -4.2001   -1.6122 C   0  0  0  0  0  0  0  0  0  0  0  0
    4.9617   -5.3498   -1.0715 C   0  0  0  0  0  0  0  0  0  0  0  0
    3.5988   -5.6046   -1.2696 C   0  0  0  0  0  0  0  0  0  0  0  0
    5.3891   -2.0488   -2.9935 C   0  0  0  0  0  0  0  0  0  0  0  0
    6.0541   -1.0580   -2.0109 C   0  0  1  0  0  0  0  0  0  0  0  0
    6.5239    0.0702   -2.7063 O   0  0  0  0  0  0  0  0  0  0  0  0
    6.7396   -0.3959    1.1992 C   0  0  0  0  0  0  0  0  0  0  0  0
    7.5739    0.3820    2.0046 C   0  0  0  0  0  0  0  0  0  0  0  0
    7.6870    1.7169    1.7803 N   0  0  0  0  0  0  0  0  0  0  0  0
   11.5508    2.6649    0.3249 H   0  0  0  0  0  0  0  0  0  0  0  0
   10.2807    2.9076    1.5797 H   0  0  0  0  0  0  0  0  0  0  0  0
   11.5154    4.1918    1.2858 H   0  0  0  0  0  0  0  0  0  0  0  0
    9.3824    3.2482   -0.7411 H   0  0  0  0  0  0  0  0  0  0  0  0
   11.2775    5.3869   -0.8552 H   0  0  0  0  0  0  0  0  0  0  0  0
    8.4492    5.6002   -0.4651 H   0  0  0  0  0  0  0  0  0  0  0  0
    9.6082    5.8720    0.8752 H   0  0  0  0  0  0  0  0  0  0  0  0
    7.5516    5.2257    1.7917 H   0  0  0  0  0  0  0  0  0  0  0  0
    6.5672    4.1954   -0.1471 H   0  0  0  0  0  0  0  0  0  0  0  0
    5.6408    2.0808   -0.8630 H   0  0  0  0  0  0  0  0  0  0  0  0
    5.0433   -1.6240   -0.2885 H   0  0  0  0  0  0  0  0  0  0  0  0
    3.2401   -0.7413   -1.8139 H   0  0  0  0  0  0  0  0  0  0  0  0
    3.8938    0.8702   -1.6930 H   0  0  0  0  0  0  0  0  0  0  0  0
    1.7156   -1.3525   -0.5139 H   0  0  0  0  0  0  0  0  0  0  0  0
    0.8723    0.7412    1.5978 H   0  0  0  0  0  0  0  0  0  0  0  0
   -4.4881    1.2731    0.0510 H   0  0  0  0  0  0  0  0  0  0  0  0
   -6.7662    5.6003   -0.1372 H   0  0  0  0  0  0  0  0  0  0  0  0
   -6.6987    8.0088   -0.5107 H   0  0  0  0  0  0  0  0  0  0  0  0
   -5.5362   10.0248   -0.9695 H   0  0  0  0  0  0  0  0  0  0  0  0
   -3.9794    9.8097   -1.8053 H   0  0  0  0  0  0  0  0  0  0  0  0
   -4.5125   10.3794    0.9182 H   0  0  0  0  0  0  0  0  0  0  0  0
   -2.4018    7.8954   -0.6609 H   0  0  0  0  0  0  0  0  0  0  0  0
    2.1513    3.3325   -0.7817 H   0  0  0  0  0  0  0  0  0  0  0  0
    1.5649    2.4564    0.6616 H   0  0  0  0  0  0  0  0  0  0  0  0
    1.7024    5.4902    0.4025 H   0  0  0  0  0  0  0  0  0  0  0  0
    3.2631    3.6465    1.9446 H   0  0  0  0  0  0  0  0  0  0  0  0
    0.9940    3.7291    2.8554 H   0  0  0  0  0  0  0  0  0  0  0  0
   -0.1775    4.6789    1.8824 H   0  0  0  0  0  0  0  0  0  0  0  0
    0.3259    6.5878    3.1862 H   0  0  0  0  0  0  0  0  0  0  0  0
   -3.6267   -0.8091    0.4366 H   0  0  0  0  0  0  0  0  0  0  0  0
   -2.2203    0.3601   -2.8225 H   0  0  0  0  0  0  0  0  0  0  0  0
   -3.5885    0.7157   -4.8240 H   0  0  0  0  0  0  0  0  0  0  0  0
   -5.9763    0.0834   -4.8310 H   0  0  0  0  0  0  0  0  0  0  0  0
   -6.9996   -0.9036   -2.8603 H   0  0  0  0  0  0  0  0  0  0  0  0
   -6.9722    0.2619   -0.1323 H   0  0  0  0  0  0  0  0  0  0  0  0
   -6.0897   -0.4367    1.2831 H   0  0  0  0  0  0  0  0  0  0  0  0
   -8.5021   -1.4371   -0.0787 H   0  0  0  0  0  0  0  0  0  0  0  0
   -6.6640   -2.9760    1.6523 H   0  0  0  0  0  0  0  0  0  0  0  0
   -9.0139   -5.5743   -0.4233 H   0  0  0  0  0  0  0  0  0  0  0  0
   -8.1414   -4.7583   -2.5166 H   0  0  0  0  0  0  0  0  0  0  0  0
   -5.9208   -5.6775   -0.7592 H   0  0  0  0  0  0  0  0  0  0  0  0
   -5.8424   -5.5268   -2.4549 H   0  0  0  0  0  0  0  0  0  0  0  0
   -7.7194   -2.6392   -1.8783 H   0  0  0  0  0  0  0  0  0  0  0  0
   -5.4205   -3.5638   -0.2213 H   0  0  0  0  0  0  0  0  0  0  0  0
   -1.0424   -1.9511   -0.6424 H   0  0  0  0  0  0  0  0  0  0  0  0
   -2.6360   -2.3474   -2.5615 H   0  0  0  0  0  0  0  0  0  0  0  0
   -3.5890   -3.3522   -1.4717 H   0  0  0  0  0  0  0  0  0  0  0  0
   -0.9585   -3.6608   -2.9356 H   0  0  0  0  0  0  0  0  0  0  0  0
   -2.4324   -4.5608   -2.9868 H   0  0  0  0  0  0  0  0  0  0  0  0
   -1.7229   -5.5045   -0.5830 H   0  0  0  0  0  0  0  0  0  0  0  0
   -0.9058   -6.2895   -3.1735 H   0  0  0  0  0  0  0  0  0  0  0  0
    0.7128   -6.1446   -0.6056 H   0  0  0  0  0  0  0  0  0  0  0  0
    2.3951   -3.8785    2.8656 H   0  0  0  0  0  0  0  0  0  0  0  0
    2.6939   -0.9019    2.3841 H   0  0  0  0  0  0  0  0  0  0  0  0
    3.3839   -2.9082    0.4693 H   0  0  0  0  0  0  0  0  0  0  0  0
    0.3855   -0.8834    3.1790 H   0  0  0  0  0  0  0  0  0  0  0  0
   -0.5746   -2.4000    4.9405 H   0  0  0  0  0  0  0  0  0  0  0  0
   -0.3378   -3.9915    4.1163 H   0  0  0  0  0  0  0  0  0  0  0  0
   -2.5642   -3.8230    5.5782 H   0  0  0  0  0  0  0  0  0  0  0  0
   -2.7117   -4.2687    3.8475 H   0  0  0  0  0  0  0  0  0  0  0  0
   -3.5152   -1.6009    5.0616 H   0  0  0  0  0  0  0  0  0  0  0  0
   -4.1597   -2.5483    3.6580 H   0  0  0  0  0  0  0  0  0  0  0  0
   -1.8197   -0.6417    3.9671 H   0  0  0  0  0  0  0  0  0  0  0  0
   -2.8153   -0.7536    2.5264 H   0  0  0  0  0  0  0  0  0  0  0  0
   -3.4872   -2.6923    1.3406 H   0  0  0  0  0  0  0  0  0  0  0  0
   -2.8192   -3.9540    0.5388 H   0  0  0  0  0  0  0  0  0  0  0  0
    1.0130   -4.0888   -2.8789 H   0  0  0  0  0  0  0  0  0  0  0  0
    1.2933   -5.8410   -2.9451 H   0  0  0  0  0  0  0  0  0  0  0  0
    2.8270   -2.8473   -3.1062 H   0  0  0  0  0  0  0  0  0  0  0  0
    6.6157   -4.0310   -1.4623 H   0  0  0  0  0  0  0  0  0  0  0  0
    5.5604   -6.0542   -0.5087 H   0  0  0  0  0  0  0  0  0  0  0  0
    3.1568   -6.5057   -0.8636 H   0  0  0  0  0  0  0  0  0  0  0  0
    4.6019   -1.5032   -3.5561 H   0  0  0  0  0  0  0  0  0  0  0  0
    6.1496   -2.3696   -3.7379 H   0  0  0  0  0  0  0  0  0  0  0  0
    6.9503   -1.5791   -1.6025 H   0  0  0  0  0  0  0  0  0  0  0  0
    5.7406    0.5209   -3.1137 H   0  0  0  0  0  0  0  0  0  0  0  0
    6.6778   -1.4627    1.3771 H   0  0  0  0  0  0  0  0  0  0  0  0
    8.1436   -0.0794    2.8007 H   0  0  0  0  0  0  0  0  0  0  0  0
  1 93  1  0  0  0  0
  1 94  1  0  0  0  0
  1 95  1  0  0  0  0
  2  1  1  0  0  0  0
  2  3  1  0  0  0  0
  2  4  1  0  0  0  0
  2 96  1  6  0  0  0
  3 97  1  0  0  0  0
  4  5  1  0  0  0  0
  4 98  1  0  0  0  0
  4 99  1  0  0  0  0
  5  6  1  0  0  0  0
  5100  1  0  0  0  0
  6  7  1  0  0  0  0
  6101  1  0  0  0  0
  7  8  2  0  0  0  0
  8  9  1  0  0  0  0
  8102  1  0  0  0  0
  9 90  2  0  0  0  0
 10  9  1  0  0  0  0
 10 11  1  0  0  0  0
 10103  1  1  0  0  0
 11 12  1  0  0  0  0
 11104  1  0  0  0  0
 11105  1  0  0  0  0
 13 12  1  0  0  0  0
 13 14  1  0  0  0  0
 13106  1  6  0  0  0
 14 15  1  0  0  0  0
 14107  1  1  0  0  0
 15 16  1  0  0  0  0
 16 17  2  0  0  0  0
 17 18  1  0  0  0  0
 17 41  1  0  0  0  0
 18 19  2  0  0  0  0
 18108  1  0  0  0  0
 19 20  1  0  0  0  0
 20 21  2  0  0  0  0
 20 22  1  0  0  0  0
 22 23  2  0  0  0  0
 23 24  1  0  0  0  0
 23109  1  0  0  0  0
 24 25  2  0  0  0  0
 24110  1  0  0  0  0
 25 26  1  0  0  0  0
 25 28  1  0  0  0  0
 26 27  1  0  0  0  0
 26111  1  0  0  0  0
 26112  1  0  0  0  0
 27113  1  0  0  0  0
 28 29  2  0  0  0  0
 28114  1  0  0  0  0
 29 30  1  0  0  0  0
 29 22  1  0  0  0  0
 30 31  2  0  0  0  0
 30 32  1  0  0  0  0
 32 33  2  0  0  0  0
 32 19  1  0  0  0  0
 33 34  1  0  0  0  0
 33 16  1  0  0  0  0
 34 35  1  0  0  0  0
 35 36  1  0  0  0  0
 35115  1  0  0  0  0
 35116  1  0  0  0  0
 36 37  1  0  0  0  0
 36 38  1  0  0  0  0
 36117  1  6  0  0  0
 37118  1  0  0  0  0
 38 39  1  0  0  0  0
 38119  1  0  0  0  0
 38120  1  0  0  0  0
 39 40  2  0  0  0  0
 39121  1  0  0  0  0
 41 42  1  0  0  0  0
 41 59  1  0  0  0  0
 41122  1  1  0  0  0
 42 43  2  0  0  0  0
 43 44  1  0  0  0  0
 43123  1  0  0  0  0
 44 45  2  0  0  0  0
 44124  1  0  0  0  0
 45 46  1  0  0  0  0
 45125  1  0  0  0  0
 46 47  2  0  0  0  0
 46126  1  0  0  0  0
 47 48  1  0  0  0  0
 47 42  1  0  0  0  0
 48 49  1  0  0  0  0
 49 50  1  0  0  0  0
 49127  1  0  0  0  0
 49128  1  0  0  0  0
 50129  1  0  0  0  0
 51 50  1  0  0  0  0
 51 52  1  0  0  0  0
 51130  1  1  0  0  0
 52 53  2  0  0  0  0
 52 54  1  0  0  0  0
 54 55  1  0  0  0  0
 54131  1  0  0  0  0
 55 56  1  0  0  0  0
 55 57  1  0  0  0  0
 55132  1  6  0  0  0
 56133  1  0  0  0  0
 56134  1  0  0  0  0
 57135  1  0  0  0  0
 58 57  1  0  0  0  0
 58 48  1  0  0  0  0
 58 51  1  0  0  0  0
 58136  1  1  0  0  0
 59 60  1  0  0  0  0
 59137  1  6  0  0  0
 60 61  1  0  0  0  0
 60138  1  0  0  0  0
 60139  1  0  0  0  0
 61 62  1  0  0  0  0
 61140  1  0  0  0  0
 61141  1  0  0  0  0
 62 63  1  0  0  0  0
 62 64  1  0  0  0  0
 62142  1  1  0  0  0
 63143  1  0  0  0  0
 64 65  1  0  0  0  0
 64 80  1  0  0  0  0
 64144  1  1  0  0  0
 65 66  3  0  0  0  0
 66 67  1  0  0  0  0
 67 68  1  1  0  0  0
 67 69  1  0  0  0  0
 67 71  1  0  0  0  0
 68145  1  0  0  0  0
 69 70  1  0  0  0  0
 69 13  1  0  0  0  0
 69146  1  1  0  0  0
 70147  1  0  0  0  0
 71 72  1  0  0  0  0
 71 73  1  0  0  0  0
 71148  1  1  0  0  0
 72 14  1  0  0  0  0
 73 74  1  0  0  0  0
 73 78  1  0  0  0  0
 74 75  1  0  0  0  0
 74149  1  0  0  0  0
 74150  1  0  0  0  0
 75 76  1  0  0  0  0
 75151  1  0  0  0  0
 75152  1  0  0  0  0
 76 77  1  0  0  0  0
 76153  1  0  0  0  0
 76154  1  0  0  0  0
 77 73  1  0  0  0  0
 77155  1  0  0  0  0
 77156  1  0  0  0  0
 78 79  1  0  0  0  0
 79 59  1  0  0  0  0
 79157  1  0  0  0  0
 79158  1  0  0  0  0
 80 81  1  0  0  0  0
 80159  1  0  0  0  0
 80160  1  0  0  0  0
 81 82  1  0  0  0  0
 82 83  2  0  0  0  0
 82161  1  0  0  0  0
 83 84  1  0  0  0  0
 83 87  1  0  0  0  0
 84 85  2  0  0  0  0
 84162  1  0  0  0  0
 85 86  1  0  0  0  0
 85163  1  0  0  0  0
 86 81  2  0  0  0  0
 86164  1  0  0  0  0
 87 88  1  0  0  0  0
 87165  1  0  0  0  0
 87166  1  0  0  0  0
 88 89  1  0  0  0  0
 88 10  1  0  0  0  0
 88167  1  1  0  0  0
 89168  1  0  0  0  0
 90 91  1  0  0  0  0
 90169  1  0  0  0  0
 91 92  2  0  0  0  0
 91170  1  0  0  0  0
 92  7  1  0  0  0  0
M  END
>  <IDENTIFIER>
CNP0488412.1

>  <Energy>
2349.76

$$$$
