
 OpenBabel09062508302D

140142  0  0  0  0  0  0  0  0999 V2000
   10.3208    3.7592    0.0000 C   0  0  0  0  0  0  0  0  0  0  0  0
    9.0089    3.0320    0.0000 O   0  0  0  0  0  0  0  0  0  0  0  0
    9.5450    1.5226    0.2079 C   0  0  0  0  0  0  0  0  0  0  0  0
    9.0909    0.1384   -0.7164 C   0  0  0  0  0  0  0  0  0  0  0  0
    9.2996   -1.4345   -0.1347 C   0  0  0  0  0  0  0  0  0  0  0  0
    8.9897   -2.9849   -0.8504 C   0  0  1  0  0  0  0  0  0  0  0  0
    7.6373   -3.0400   -1.3506 O   0  0  0  0  0  0  0  0  0  0  0  0
    6.5267   -3.8072   -0.7785 C   0  0  1  0  0  0  0  0  0  0  0  0
    5.9356   -4.3419   -1.9508 O   0  0  0  0  0  0  0  0  0  0  0  0
    5.5037   -2.6473    0.0000 C   0  0  2  0  0  0  0  0  0  0  0  0
    4.3379   -3.5912    0.0000 C   0  0  0  0  0  0  0  0  0  0  0  0
    4.0321   -1.6098   -0.1333 C   0  0  3  0  0  0  0  0  0  0  0  0
    3.9519   -0.0631    0.3248 C   0  0  0  0  0  0  0  0  0  0  0  0
    4.6104    1.1255   -0.4314 C   0  0  3  0  0  0  0  0  0  0  0  0
    6.0086    1.0933    0.0000 O   0  0  0  0  0  0  0  0  0  0  0  0
    7.0692    2.1540    0.0000 C   0  0  0  0  0  0  0  0  0  0  0  0
    3.8408    2.5541   -0.2319 C   0  0  3  0  0  0  0  0  0  0  0  0
    4.5721    3.1887   -1.2665 O   0  0  0  0  0  0  0  0  0  0  0  0
    2.7594    3.7575   -0.0870 C   0  0  0  0  0  0  0  0  0  0  0  0
    1.4815    4.5597    0.0000 C   0  0  0  0  0  0  0  0  0  0  0  0
    1.9451    5.9863    0.0000 C   0  0  0  0  0  0  0  0  0  0  0  0
   -0.0559    4.7359    0.0283 C   0  0  0  0  0  0  0  0  0  0  0  0
   -1.4815    4.5597    0.0000 C   0  0  0  0  0  0  0  0  0  0  0  0
   -1.9451    5.9863    0.0000 C   0  0  0  0  0  0  0  0  0  0  0  0
   -2.4351    3.1865    0.0014 C   0  0  0  0  0  0  0  0  0  0  0  0
   -3.8787    2.8180    0.0000 C   0  0  0  0  0  0  0  0  0  0  0  0
   -5.0922    3.6997    0.0000 C   0  0  0  0  0  0  0  0  0  0  0  0
   -4.5189    1.5505    0.8341 C   0  0  3  0  0  0  0  0  0  0  0  0
   -5.7204    2.1336    1.8226 O   0  0  0  0  0  0  0  0  0  0  0  0
   -7.0579    3.0307    1.5963 C   0  0  1  0  0  0  0  0  0  0  0  0
   -7.5910    3.3559    0.2099 O   0  0  0  0  0  0  0  0  0  0  0  0
   -8.2448    4.6849   -0.0000 C   0  0  2  0  0  0  0  0  0  0  0  0
   -7.2607    5.8170    0.0000 C   0  0  0  0  0  0  0  0  0  0  0  0
   -9.5805    4.2086    0.3879 C   0  0  1  0  0  0  0  0  0  0  0  0
  -10.0451    5.3760    0.0000 O   0  0  0  0  0  0  0  0  0  0  0  0
  -11.5175    5.6622   -0.0000 C   0  0  0  0  0  0  0  0  0  0  0  0
   -9.5793    3.6796    1.9298 C   0  0  2  0  0  0  0  0  0  0  0  0
  -10.8331    3.1512    2.2665 O   0  0  0  0  0  0  0  0  0  0  0  0
   -8.4186    2.5735    2.2205 C   0  0  1  0  0  0  0  0  0  0  0  0
   -8.2735    2.3496    3.5966 O   0  0  0  0  0  0  0  0  0  0  0  0
   -4.7943    0.0000    0.0000 C   0  0  3  0  0  0  0  0  0  0  0  0
   -6.0523    0.8170    0.0000 C   0  0  0  0  0  0  0  0  0  0  0  0
   -4.7596   -1.5973   -0.2576 C   0  0  0  0  0  0  0  0  0  0  0  0
   -3.9287   -2.8332   -0.3162 C   0  0  0  0  0  0  0  0  0  0  0  0
   -4.8154   -4.0234   -0.6460 C   0  0  0  0  0  0  0  0  0  0  0  0
   -6.0842   -3.7716   -1.2101 O   0  0  0  0  0  0  0  0  0  0  0  0
   -2.3109   -3.3024   -0.1708 C   0  0  0  0  0  0  0  0  0  0  0  0
   -1.5078   -4.5905   -0.1106 C   0  0  0  0  0  0  0  0  0  0  0  0
   -1.9451   -5.9863    0.0000 O   0  0  0  0  0  0  0  0  0  0  0  0
   -3.4123   -6.2981    0.0000 C   0  0  0  0  0  0  0  0  0  0  0  0
    0.0195   -4.8129   -0.1450 C   0  0  0  0  0  0  0  0  0  0  0  0
    1.4815   -4.5597    0.0000 C   0  0  0  0  0  0  0  0  0  0  0  0
    1.9451   -5.9863    0.0000 C   0  0  0  0  0  0  0  0  0  0  0  0
    1.7225   -3.0752    0.6558 C   0  0  0  0  0  0  0  0  0  0  0  0
    0.7715   -2.6942    1.3215 O   0  0  0  0  0  0  0  0  0  0  0  0
    2.7476   -2.0605    0.5283 O   0  0  0  0  0  0  0  0  0  0  0  0
    6.9262   -5.1863    0.2482 C   0  0  2  0  0  0  0  0  0  0  0  0
    6.9098   -6.7310    0.0000 O   0  0  0  0  0  0  0  0  0  0  0  0
    8.1956   -7.5036    0.0000 C   0  0  0  0  0  0  0  0  0  0  0  0
    8.1858   -4.7662    0.7744 C   0  0  1  0  0  0  0  0  0  0  0  0
    8.4475   -5.4410    2.0074 O   0  0  0  0  0  0  0  0  0  0  0  0
    9.3925   -4.3854    0.0000 C   0  0  1  0  0  0  0  0  0  0  0  0
   10.3365   -5.5511    0.0000 C   0  0  0  0  0  0  0  0  0  0  0  0
   10.0560   -3.7173    1.0708 O   0  0  0  0  0  0  0  0  0  0  0  0
   10.1789    4.3052    0.9558 H   0  0  0  0  0  0  0  0  0  0  0  0
   10.1128    4.4217   -0.8653 H   0  0  0  0  0  0  0  0  0  0  0  0
   11.2566    4.2779    0.0000 H   0  0  0  0  0  0  0  0  0  0  0  0
    9.2253    1.2615    1.2404 H   0  0  0  0  0  0  0  0  0  0  0  0
   10.6567    1.4518    0.2764 H   0  0  0  0  0  0  0  0  0  0  0  0
    8.0220    0.1552   -0.9658 H   0  0  0  0  0  0  0  0  0  0  0  0
    9.6160    0.2235   -1.6903 H   0  0  0  0  0  0  0  0  0  0  0  0
   10.3751   -1.4227    0.1222 H   0  0  0  0  0  0  0  0  0  0  0  0
    8.7274   -1.4460    0.8169 H   0  0  0  0  0  0  0  0  0  0  0  0
    9.6557   -3.0078   -1.7377 H   0  0  0  0  0  0  0  0  0  0  0  0
    5.6294   -5.2701   -1.7822 H   0  0  0  0  0  0  0  0  0  0  0  0
    5.9030   -2.4883    1.0247 H   0  0  0  0  0  0  0  0  0  0  0  0
    4.0529   -3.7736   -1.0692 H   0  0  0  0  0  0  0  0  0  0  0  0
    4.5642   -4.3348    0.7625 H   0  0  0  0  0  0  0  0  0  0  0  0
    3.5063   -4.2645    0.0000 H   0  0  0  0  0  0  0  0  0  0  0  0
    3.8049   -1.5406   -1.2287 H   0  0  0  0  0  0  0  0  0  0  0  0
    4.1355    0.0273    1.4176 H   0  0  0  0  0  0  0  0  0  0  0  0
    2.8752    0.1897    0.1804 H   0  0  0  0  0  0  0  0  0  0  0  0
    4.5280    0.8482   -1.5076 H   0  0  0  0  0  0  0  0  0  0  0  0
    6.6229    2.8068    0.7804 H   0  0  0  0  0  0  0  0  0  0  0  0
    6.9224    2.5030   -1.0446 H   0  0  0  0  0  0  0  0  0  0  0  0
    7.8258    2.9106    0.0000 H   0  0  0  0  0  0  0  0  0  0  0  0
    4.2859    2.7056    0.7812 H   0  0  0  0  0  0  0  0  0  0  0  0
    5.1963    3.8573   -0.8783 H   0  0  0  0  0  0  0  0  0  0  0  0
    3.4791    4.5378    0.1567 H   0  0  0  0  0  0  0  0  0  0  0  0
    2.6258    5.9806   -0.8910 H   0  0  0  0  0  0  0  0  0  0  0  0
    1.2209    6.4990   -0.6872 H   0  0  0  0  0  0  0  0  0  0  0  0
    2.2758    7.0039    0.0000 H   0  0  0  0  0  0  0  0  0  0  0  0
   -0.0479    5.6564    0.6214 H   0  0  0  0  0  0  0  0  0  0  0  0
   -1.6745    6.2159   -1.0591 H   0  0  0  0  0  0  0  0  0  0  0  0
   -3.0255    5.7574    0.0314 H   0  0  0  0  0  0  0  0  0  0  0  0
   -2.2758    7.0039    0.0000 H   0  0  0  0  0  0  0  0  0  0  0  0
   -1.8073    2.3322    0.2316 H   0  0  0  0  0  0  0  0  0  0  0  0
   -4.7114    4.4005    0.7730 H   0  0  0  0  0  0  0  0  0  0  0  0
   -4.9015    4.1151   -1.0113 H   0  0  0  0  0  0  0  0  0  0  0  0
   -5.9578    4.3286    0.0000 H   0  0  0  0  0  0  0  0  0  0  0  0
   -3.6565    1.3464    1.5140 H   0  0  0  0  0  0  0  0  0  0  0  0
   -6.8041    3.9752    2.1260 H   0  0  0  0  0  0  0  0  0  0  0  0
   -8.1227    5.1520    1.0155 H   0  0  0  0  0  0  0  0  0  0  0  0
   -6.9679    5.6784   -1.0719 H   0  0  0  0  0  0  0  0  0  0  0  0
   -7.9702    6.6899   -0.1611 H   0  0  0  0  0  0  0  0  0  0  0  0
   -6.5587    6.6245   -0.0000 H   0  0  0  0  0  0  0  0  0  0  0  0
   -9.9156    3.4072   -0.3117 H   0  0  0  0  0  0  0  0  0  0  0  0
  -11.4542    6.7161    0.3405 H   0  0  0  0  0  0  0  0  0  0  0  0
  -11.6706    5.6149   -1.0982 H   0  0  0  0  0  0  0  0  0  0  0  0
  -12.5678    5.8664    0.0000 H   0  0  0  0  0  0  0  0  0  0  0  0
   -9.3542    4.5349    2.6111 H   0  0  0  0  0  0  0  0  0  0  0  0
  -11.4549    3.9209    2.3401 H   0  0  0  0  0  0  0  0  0  0  0  0
   -8.6889    1.6225    1.7043 H   0  0  0  0  0  0  0  0  0  0  0  0
   -9.0236    1.7582    3.8663 H   0  0  0  0  0  0  0  0  0  0  0  0
   -4.6958   -0.3945    1.0389 H   0  0  0  0  0  0  0  0  0  0  0  0
   -6.1843    0.7790   -1.1051 H   0  0  0  0  0  0  0  0  0  0  0  0
   -6.7264    0.0553    0.4607 H   0  0  0  0  0  0  0  0  0  0  0  0
   -6.9497    1.3998    0.0000 H   0  0  0  0  0  0  0  0  0  0  0  0
   -5.8002   -1.8022   -0.4234 H   0  0  0  0  0  0  0  0  0  0  0  0
   -4.2964   -4.5970   -1.4383 H   0  0  0  0  0  0  0  0  0  0  0  0
   -4.9570   -4.5166    0.3384 H   0  0  0  0  0  0  0  0  0  0  0  0
   -6.7736   -4.0242   -0.5392 H   0  0  0  0  0  0  0  0  0  0  0  0
   -1.6726   -2.4259   -0.1870 H   0  0  0  0  0  0  0  0  0  0  0  0
   -3.4085   -7.0098   -0.8511 H   0  0  0  0  0  0  0  0  0  0  0  0
   -3.4432   -6.8473    0.9632 H   0  0  0  0  0  0  0  0  0  0  0  0
   -4.4589   -6.5205    0.0000 H   0  0  0  0  0  0  0  0  0  0  0  0
   -0.0018   -5.7795   -0.6591 H   0  0  0  0  0  0  0  0  0  0  0  0
    1.4058   -6.4157    0.8849 H   0  0  0  0  0  0  0  0  0  0  0  0
    1.9339   -6.2071   -1.0974 H   0  0  0  0  0  0  0  0  0  0  0  0
    2.2758   -7.0039    0.0000 H   0  0  0  0  0  0  0  0  0  0  0  0
    6.3104   -5.1021    1.1554 H   0  0  0  0  0  0  0  0  0  0  0  0
    7.8884   -8.2858    0.7240 H   0  0  0  0  0  0  0  0  0  0  0  0
    8.1310   -7.8814   -1.0410 H   0  0  0  0  0  0  0  0  0  0  0  0
    9.1128   -8.0547    0.0000 H   0  0  0  0  0  0  0  0  0  0  0  0
    8.2307   -5.2176   -0.1948 H   0  0  0  0  0  0  0  0  0  0  0  0
    9.0265   -6.2328    1.9024 H   0  0  0  0  0  0  0  0  0  0  0  0
    9.9825   -6.0034   -0.9526 H   0  0  0  0  0  0  0  0  0  0  0  0
   11.2502   -5.0316   -0.3713 H   0  0  0  0  0  0  0  0  0  0  0  0
   11.0099   -6.3826    0.0000 H   0  0  0  0  0  0  0  0  0  0  0  0
   10.9384   -3.3447    0.7938 H   0  0  0  0  0  0  0  0  0  0  0  0
  1  2  1  0  0  0  0
  1 65  1  0  0  0  0
  1 66  1  0  0  0  0
  1 67  1  0  0  0  0
  2  3  1  0  0  0  0
  3  4  1  0  0  0  0
  3 68  1  0  0  0  0
  3 69  1  0  0  0  0
  4  5  1  0  0  0  0
  4 70  1  0  0  0  0
  4 71  1  0  0  0  0
  5 72  1  0  0  0  0
  5 73  1  0  0  0  0
  6  5  1  0  0  0  0
  6  7  1  0  0  0  0
  6 74  1  1  0  0  0
  7  8  1  0  0  0  0
  8  9  1  1  0  0  0
  8 10  1  0  0  0  0
  8 57  1  0  0  0  0
  9 75  1  0  0  0  0
 10 11  1  0  0  0  0
 10 12  1  0  0  0  0
 10 76  1  1  0  0  0
 11 77  1  0  0  0  0
 11 78  1  0  0  0  0
 11 79  1  0  0  0  0
 12 13  1  0  0  0  0
 12 80  1  0  0  0  0
 13 14  1  0  0  0  0
 13 81  1  0  0  0  0
 13 82  1  0  0  0  0
 14 15  1  0  0  0  0
 14 17  1  0  0  0  0
 14 83  1  0  0  0  0
 15 16  1  0  0  0  0
 16 84  1  0  0  0  0
 16 85  1  0  0  0  0
 16 86  1  0  0  0  0
 17 18  1  0  0  0  0
 17 19  1  0  0  0  0
 17 87  1  0  0  0  0
 18 88  1  0  0  0  0
 19 20  2  0  0  0  0
 19 89  1  0  0  0  0
 20 21  1  0  0  0  0
 20 22  1  0  0  0  0
 21 90  1  0  0  0  0
 21 91  1  0  0  0  0
 21 92  1  0  0  0  0
 22 23  2  0  0  0  0
 22 93  1  0  0  0  0
 23 24  1  0  0  0  0
 23 25  1  0  0  0  0
 24 94  1  0  0  0  0
 24 95  1  0  0  0  0
 24 96  1  0  0  0  0
 25 26  2  0  0  0  0
 25 97  1  0  0  0  0
 26 27  1  0  0  0  0
 26 28  1  0  0  0  0
 27 98  1  0  0  0  0
 27 99  1  0  0  0  0
 27100  1  0  0  0  0
 28 29  1  0  0  0  0
 28 41  1  0  0  0  0
 28101  1  0  0  0  0
 30 29  1  0  0  0  0
 30 31  1  0  0  0  0
 30102  1  1  0  0  0
 31 32  1  0  0  0  0
 32 33  1  0  0  0  0
 32 34  1  0  0  0  0
 32103  1  6  0  0  0
 33104  1  0  0  0  0
 33105  1  0  0  0  0
 33106  1  0  0  0  0
 34 35  1  0  0  0  0
 34 37  1  0  0  0  0
 34107  1  1  0  0  0
 35 36  1  0  0  0  0
 36108  1  0  0  0  0
 36109  1  0  0  0  0
 36110  1  0  0  0  0
 37 38  1  0  0  0  0
 37 39  1  0  0  0  0
 37111  1  6  0  0  0
 38112  1  0  0  0  0
 39 40  1  0  0  0  0
 39 30  1  0  0  0  0
 39113  1  1  0  0  0
 40114  1  0  0  0  0
 41 42  1  0  0  0  0
 41 43  1  0  0  0  0
 41115  1  0  0  0  0
 42116  1  0  0  0  0
 42117  1  0  0  0  0
 42118  1  0  0  0  0
 43 44  2  0  0  0  0
 43119  1  0  0  0  0
 44 45  1  0  0  0  0
 44 47  1  0  0  0  0
 45 46  1  0  0  0  0
 45120  1  0  0  0  0
 45121  1  0  0  0  0
 46122  1  0  0  0  0
 47 48  2  0  0  0  0
 47123  1  0  0  0  0
 48 49  1  0  0  0  0
 48 51  1  0  0  0  0
 49 50  1  0  0  0  0
 50124  1  0  0  0  0
 50125  1  0  0  0  0
 50126  1  0  0  0  0
 51 52  2  0  0  0  0
 51127  1  0  0  0  0
 52 53  1  0  0  0  0
 52 54  1  0  0  0  0
 53128  1  0  0  0  0
 53129  1  0  0  0  0
 53130  1  0  0  0  0
 54 55  2  0  0  0  0
 54 56  1  0  0  0  0
 56 12  1  0  0  0  0
 57 58  1  0  0  0  0
 57 60  1  0  0  0  0
 57131  1  6  0  0  0
 58 59  1  0  0  0  0
 59132  1  0  0  0  0
 59133  1  0  0  0  0
 59134  1  0  0  0  0
 60 61  1  0  0  0  0
 60 62  1  0  0  0  0
 60135  1  1  0  0  0
 61136  1  0  0  0  0
 62 63  1  0  0  0  0
 62 64  1  1  0  0  0
 62  6  1  0  0  0  0
 63137  1  0  0  0  0
 63138  1  0  0  0  0
 63139  1  0  0  0  0
 64140  1  0  0  0  0
M  END
>  <IDENTIFIER>
CNP0283940.1

>  <Energy>
42709.2

$$$$
