
 OpenBabel09042520073D

 35 34  0  0  0  0  0  0  0  0999 V2000
    6.6717   -0.3404   -0.0523 C   0  0  0  0  0  0  0  0  0  0  0  0
    5.2538    0.0699   -0.3024 C   0  0  0  0  0  0  0  0  0  0  0  0
    4.3128   -0.0943    0.6431 C   0  0  0  0  0  0  0  0  0  0  0  0
    2.8599    0.3112    0.4718 C   0  0  1  0  0  0  0  0  0  0  0  0
    2.6291    0.9131   -0.7812 O   0  0  0  0  0  0  0  0  0  0  0  0
    1.8998   -0.8889    0.6975 C   0  0  1  0  0  0  0  0  0  0  0  0
    2.1264   -1.4929    1.9500 O   0  0  0  0  0  0  0  0  0  0  0  0
    0.4566   -0.4460    0.5336 C   0  0  0  0  0  0  0  0  0  0  0  0
   -0.4890   -0.5736    1.4827 C   0  0  0  0  0  0  0  0  0  0  0  0
   -1.8693   -0.0892    1.2695 C   0  0  0  0  0  0  0  0  0  0  0  0
   -2.6857   -0.2071    2.1711 O   0  0  0  0  0  0  0  0  0  0  0  0
   -2.1965    0.5371    0.1074 O   0  0  0  0  0  0  0  0  0  0  0  0
   -3.4353    1.0517   -0.2322 C   0  0  0  0  0  0  0  0  0  0  0  0
   -4.4490   -0.0521   -0.6075 C   0  0  1  0  0  0  0  0  0  0  0  0
   -4.7024   -0.9041    0.4797 O   0  0  0  0  0  0  0  0  0  0  0  0
   -5.7726    0.5398   -1.1284 C   0  0  0  0  0  0  0  0  0  0  0  0
   -5.5621    1.2896   -2.2959 O   0  0  0  0  0  0  0  0  0  0  0  0
    7.2895   -0.1204   -0.9482 H   0  0  0  0  0  0  0  0  0  0  0  0
    6.7202   -1.4290    0.1605 H   0  0  0  0  0  0  0  0  0  0  0  0
    7.0811    0.2236    0.8124 H   0  0  0  0  0  0  0  0  0  0  0  0
    5.0128    0.5084   -1.2655 H   0  0  0  0  0  0  0  0  0  0  0  0
    4.6022   -0.5306    1.5957 H   0  0  0  0  0  0  0  0  0  0  0  0
    2.6423    1.0745    1.2502 H   0  0  0  0  0  0  0  0  0  0  0  0
    2.6699    0.2003   -1.4721 H   0  0  0  0  0  0  0  0  0  0  0  0
    2.1067   -1.6530   -0.0829 H   0  0  0  0  0  0  0  0  0  0  0  0
    2.0976   -0.7803    2.6414 H   0  0  0  0  0  0  0  0  0  0  0  0
    0.1912    0.0072   -0.4174 H   0  0  0  0  0  0  0  0  0  0  0  0
   -0.2542   -1.0275    2.4404 H   0  0  0  0  0  0  0  0  0  0  0  0
   -3.2798    1.6907   -1.1261 H   0  0  0  0  0  0  0  0  0  0  0  0
   -3.8206    1.7028    0.5828 H   0  0  0  0  0  0  0  0  0  0  0  0
   -4.0102   -0.6646   -1.4252 H   0  0  0  0  0  0  0  0  0  0  0  0
   -5.1513   -0.3655    1.1838 H   0  0  0  0  0  0  0  0  0  0  0  0
   -6.2674    1.1563   -0.3414 H   0  0  0  0  0  0  0  0  0  0  0  0
   -6.4728   -0.2870   -1.3734 H   0  0  0  0  0  0  0  0  0  0  0  0
   -5.4667    2.2384   -2.0197 H   0  0  0  0  0  0  0  0  0  0  0  0
  1  2  1  0  0  0  0
  1 18  1  0  0  0  0
  1 19  1  0  0  0  0
  1 20  1  0  0  0  0
  2  3  2  0  0  0  0
  2 21  1  0  0  0  0
  3  4  1  0  0  0  0
  3 22  1  0  0  0  0
  4  5  1  0  0  0  0
  4  6  1  0  0  0  0
  4 23  1  1  0  0  0
  5 24  1  0  0  0  0
  6  7  1  0  0  0  0
  6  8  1  0  0  0  0
  6 25  1  6  0  0  0
  7 26  1  0  0  0  0
  8  9  2  0  0  0  0
  8 27  1  0  0  0  0
  9 10  1  0  0  0  0
  9 28  1  0  0  0  0
 10 11  2  0  0  0  0
 10 12  1  0  0  0  0
 12 13  1  0  0  0  0
 13 14  1  0  0  0  0
 13 29  1  0  0  0  0
 13 30  1  0  0  0  0
 14 15  1  0  0  0  0
 14 16  1  0  0  0  0
 14 31  1  6  0  0  0
 15 32  1  0  0  0  0
 16 17  1  0  0  0  0
 16 33  1  0  0  0  0
 16 34  1  0  0  0  0
 17 35  1  0  0  0  0
M  END
>  <IDENTIFIER>
CNP0301788.1

>  <Energy>
165.924

$$$$
