
 OpenBabel09062510283D

 43 44  0  0  0  0  0  0  0  0999 V2000
    5.3450    1.9676    0.3476 C   0  0  0  0  0  0  0  0  0  0  0  0
    5.0593    0.5240   -0.0536 C   0  0  0  0  0  0  0  0  0  0  0  0
    3.6715    0.3959   -0.6983 C   0  0  0  0  0  0  0  0  0  0  0  0
    3.3841   -1.0241   -1.2127 C   0  0  0  0  0  0  0  0  0  0  0  0
    3.3375   -2.1209   -0.1291 C   0  0  0  0  0  0  0  0  0  0  0  0
    2.2231   -1.9440    0.9176 C   0  0  0  0  0  0  0  0  0  0  0  0
    0.8684   -1.9164    0.2607 C   0  0  0  0  0  0  0  0  0  0  0  0
   -0.0104   -0.9229    0.4645 C   0  0  0  0  0  0  0  0  0  0  0  0
   -1.3413   -0.9088   -0.2420 C   0  0  2  0  0  0  0  0  0  0  0  0
   -1.5782    0.4146   -1.0044 C   0  0  0  0  0  0  0  0  0  0  0  0
   -2.9718    0.7245   -0.5929 C   0  0  0  0  0  0  0  0  0  0  0  0
   -3.3535   -0.1260    0.3438 C   0  0  0  0  0  0  0  0  0  0  0  0
   -2.4065   -1.0350    0.6276 O   0  0  0  0  0  0  0  0  0  0  0  0
   -4.7356   -0.1055    0.9534 C   0  0  2  0  0  0  0  0  0  0  0  0
   -5.5649   -1.0552    0.3304 O   0  0  0  0  0  0  0  0  0  0  0  0
   -5.3287    1.3171    0.8752 C   0  0  0  0  0  0  0  0  0  0  0  0
   -5.2534    1.9283   -0.5383 C   0  0  0  0  0  0  0  0  0  0  0  0
   -3.8597    1.7889   -1.1103 C   0  0  0  0  0  0  0  0  0  0  0  0
   -3.5198    2.4596   -2.0717 O   0  0  0  0  0  0  0  0  0  0  0  0
    6.3554    2.0338    0.8034 H   0  0  0  0  0  0  0  0  0  0  0  0
    4.5945    2.3182    1.0875 H   0  0  0  0  0  0  0  0  0  0  0  0
    5.3154    2.6284   -0.5452 H   0  0  0  0  0  0  0  0  0  0  0  0
    5.1236   -0.1123    0.8534 H   0  0  0  0  0  0  0  0  0  0  0  0
    5.8370    0.1977   -0.7786 H   0  0  0  0  0  0  0  0  0  0  0  0
    3.6292    1.0790   -1.5752 H   0  0  0  0  0  0  0  0  0  0  0  0
    2.8831    0.7133    0.0170 H   0  0  0  0  0  0  0  0  0  0  0  0
    4.1687   -1.2958   -1.9523 H   0  0  0  0  0  0  0  0  0  0  0  0
    2.4139   -1.0119   -1.7544 H   0  0  0  0  0  0  0  0  0  0  0  0
    4.3167   -2.1914    0.3881 H   0  0  0  0  0  0  0  0  0  0  0  0
    3.1737   -3.0931   -0.6436 H   0  0  0  0  0  0  0  0  0  0  0  0
    2.3983   -1.0305    1.5259 H   0  0  0  0  0  0  0  0  0  0  0  0
    2.2598   -2.8174    1.6029 H   0  0  0  0  0  0  0  0  0  0  0  0
    0.6094   -2.7400   -0.3996 H   0  0  0  0  0  0  0  0  0  0  0  0
    0.2311   -0.1106    1.1456 H   0  0  0  0  0  0  0  0  0  0  0  0
   -1.4283   -1.7656   -0.9491 H   0  0  0  0  0  0  0  0  0  0  0  0
   -1.4539    0.2686   -2.0979 H   0  0  0  0  0  0  0  0  0  0  0  0
   -0.9497    1.2574   -0.6413 H   0  0  0  0  0  0  0  0  0  0  0  0
   -4.6595   -0.3701    2.0294 H   0  0  0  0  0  0  0  0  0  0  0  0
   -5.5740   -0.8601   -0.6438 H   0  0  0  0  0  0  0  0  0  0  0  0
   -4.7047    1.9612    1.5374 H   0  0  0  0  0  0  0  0  0  0  0  0
   -6.3673    1.3414    1.2662 H   0  0  0  0  0  0  0  0  0  0  0  0
   -5.5221    3.0030   -0.4483 H   0  0  0  0  0  0  0  0  0  0  0  0
   -5.9726    1.4476   -1.2346 H   0  0  0  0  0  0  0  0  0  0  0  0
  1  2  1  0  0  0  0
  1 20  1  0  0  0  0
  1 21  1  0  0  0  0
  1 22  1  0  0  0  0
  2  3  1  0  0  0  0
  2 23  1  0  0  0  0
  2 24  1  0  0  0  0
  3  4  1  0  0  0  0
  3 25  1  0  0  0  0
  3 26  1  0  0  0  0
  4  5  1  0  0  0  0
  4 27  1  0  0  0  0
  4 28  1  0  0  0  0
  5  6  1  0  0  0  0
  5 29  1  0  0  0  0
  5 30  1  0  0  0  0
  6  7  1  0  0  0  0
  6 31  1  0  0  0  0
  6 32  1  0  0  0  0
  7  8  2  0  0  0  0
  7 33  1  0  0  0  0
  8 34  1  0  0  0  0
  9  8  1  0  0  0  0
  9 10  1  0  0  0  0
  9 35  1  6  0  0  0
 10 11  1  0  0  0  0
 10 36  1  0  0  0  0
 10 37  1  0  0  0  0
 11 12  2  0  0  0  0
 12 13  1  0  0  0  0
 12 14  1  0  0  0  0
 13  9  1  0  0  0  0
 14 15  1  0  0  0  0
 14 16  1  0  0  0  0
 14 38  1  1  0  0  0
 15 39  1  0  0  0  0
 16 17  1  0  0  0  0
 16 40  1  0  0  0  0
 16 41  1  0  0  0  0
 17 18  1  0  0  0  0
 17 42  1  0  0  0  0
 17 43  1  0  0  0  0
 18 19  2  0  0  0  0
 18 11  1  0  0  0  0
M  END
>  <IDENTIFIER>
CNP0254729.2

>  <Energy>
293.66

$$$$
