
 OpenBabel09132511153D

139145  0  0  0  0  0  0  0  0999 V2000
   13.8620   -2.3131    0.5781 C   0  0  0  0  0  0  0  0  0  0  0  0
   12.4799   -1.7324    0.4926 C   0  0  0  0  0  0  0  0  0  0  0  0
   12.0890   -0.6132    1.1446 C   0  0  0  0  0  0  0  0  0  0  0  0
   13.0223    0.1797    2.0370 C   0  0  0  0  0  0  0  0  0  0  0  0
   10.6902   -0.1282    1.0060 C   0  0  0  0  0  0  0  0  0  0  0  0
   10.3404    0.8662    1.6279 O   0  0  0  0  0  0  0  0  0  0  0  0
    9.8064   -0.7877    0.2035 O   0  0  0  0  0  0  0  0  0  0  0  0
    8.4443   -0.5236    0.1385 C   0  0  1  0  0  0  0  0  0  0  0  0
    8.0716    0.0167   -1.2668 C   0  0  2  0  0  0  0  0  0  0  0  0
    8.8936    1.1021   -1.6362 O   0  0  0  0  0  0  0  0  0  0  0  0
    6.5386    0.3724   -1.4074 C   0  0  2  0  0  0  0  0  0  0  0  0
    6.2572    0.5996   -2.9358 C   0  0  0  0  0  0  0  0  0  0  0  0
    6.9833    1.6826   -3.4487 O   0  0  0  0  0  0  0  0  0  0  0  0
    6.1221    1.6167   -0.5161 C   0  0  1  0  0  0  0  0  0  0  0  0
    6.9138    2.7514   -0.7903 O   0  0  0  0  0  0  0  0  0  0  0  0
    4.6187    1.9673   -0.6786 C   0  0  0  0  0  0  0  0  0  0  0  0
    3.6081    0.8058   -0.3425 C   0  0  2  0  0  0  0  0  0  0  0  0
    3.5891    0.6584    1.2141 C   0  0  0  0  0  0  0  0  0  0  0  0
    4.1599   -0.5080   -0.9728 C   0  0  0  0  0  0  0  0  0  0  0  0
    3.3473   -1.3758   -1.6204 C   0  0  0  0  0  0  0  0  0  0  0  0
    1.8542   -1.2523   -1.7553 C   0  0  0  0  0  0  0  0  0  0  0  0
    1.2139   -0.1516   -0.8727 C   0  0  2  0  0  0  0  0  0  0  0  0
   -0.3756    0.0266   -1.1166 C   0  0  1  0  0  0  0  0  0  0  0  0
   -0.7231    0.3068   -2.6240 C   0  0  0  0  0  0  0  0  0  0  0  0
   -1.1342   -1.2824   -0.7171 C   0  0  0  0  0  0  0  0  0  0  0  0
   -2.6750   -1.1328   -0.8053 C   0  0  0  0  0  0  0  0  0  0  0  0
   -3.2070   -0.0027    0.1002 C   0  0  2  0  0  0  0  0  0  0  0  0
   -4.5512    0.2982   -0.2160 O   0  0  0  0  0  0  0  0  0  0  0  0
   -5.5384   -0.6571    0.0671 C   0  0  2  0  0  0  0  0  0  0  0  0
   -5.7252   -1.5340   -1.0566 O   0  0  0  0  0  0  0  0  0  0  0  0
   -6.8039   -1.1888   -1.9228 C   0  0  2  0  0  0  0  0  0  0  0  0
   -6.4877    0.0429   -2.7695 C   0  0  0  0  0  0  0  0  0  0  0  0
   -5.4330    0.6402   -2.6400 O   0  0  0  0  0  0  0  0  0  0  0  0
   -7.3427    0.4529   -3.7314 O   0  0  0  0  0  0  0  0  0  0  0  0
   -8.1756   -1.0977   -1.1659 C   0  0  1  0  0  0  0  0  0  0  0  0
   -8.8866   -2.3080   -1.2243 O   0  0  0  0  0  0  0  0  0  0  0  0
   -8.0447   -0.6496    0.3083 C   0  0  2  0  0  0  0  0  0  0  0  0
   -9.1567    0.1620    0.6535 O   0  0  0  0  0  0  0  0  0  0  0  0
  -10.0413   -0.4254    1.5885 C   0  0  2  0  0  0  0  0  0  0  0  0
  -11.2065   -0.8454    0.8700 O   0  0  0  0  0  0  0  0  0  0  0  0
  -12.4495   -0.7999    1.5846 C   0  0  2  0  0  0  0  0  0  0  0  0
  -13.2921    0.4151    1.1464 C   0  0  0  0  0  0  0  0  0  0  0  0
  -13.5385    0.3634   -0.2326 O   0  0  0  0  0  0  0  0  0  0  0  0
  -12.2770   -0.9485    3.1140 C   0  0  1  0  0  0  0  0  0  0  0  0
  -11.6936   -2.2121    3.3271 O   0  0  0  0  0  0  0  0  0  0  0  0
  -11.3414    0.1401    3.7052 C   0  0  2  0  0  0  0  0  0  0  0  0
  -12.0386    1.2145    4.2866 O   0  0  0  0  0  0  0  0  0  0  0  0
  -10.3455    0.6565    2.6474 C   0  0  1  0  0  0  0  0  0  0  0  0
   -9.1859    1.1614    3.2590 O   0  0  0  0  0  0  0  0  0  0  0  0
   -6.7868    0.1822    0.4492 C   0  0  1  0  0  0  0  0  0  0  0  0
   -6.6469    0.7224    1.7394 O   0  0  0  0  0  0  0  0  0  0  0  0
   -2.4387    1.3754   -0.0280 C   0  0  1  0  0  0  0  0  0  0  0  0
   -2.9725    2.2416   -1.2151 C   0  0  0  0  0  0  0  0  0  0  0  0
   -2.7583    2.1858    1.2805 C   0  0  0  0  0  0  0  0  0  0  0  0
   -4.1405    2.3556    1.4559 O   0  0  0  0  0  0  0  0  0  0  0  0
   -0.8732    1.1459   -0.1193 C   0  0  2  0  0  0  0  0  0  0  0  0
   -0.0655    2.4599   -0.3466 C   0  0  0  0  0  0  0  0  0  0  0  0
    1.4138    2.2398   -0.0356 C   0  0  0  0  0  0  0  0  0  0  0  0
    2.1088    1.1526   -0.9136 C   0  0  1  0  0  0  0  0  0  0  0  0
    2.2248    1.7140   -2.3715 C   0  0  0  0  0  0  0  0  0  0  0  0
    5.6746   -0.8534   -0.9457 C   0  0  2  0  0  0  0  0  0  0  0  0
    6.1260   -1.4485    0.4221 C   0  0  0  0  0  0  0  0  0  0  0  0
    7.6323   -1.8050    0.4933 C   0  0  0  0  0  0  0  0  0  0  0  0
    7.9723   -3.0049   -0.4304 C   0  0  0  0  0  0  0  0  0  0  0  0
    7.9721   -2.2306    1.9421 C   0  0  0  0  0  0  0  0  0  0  0  0
   13.9214   -3.2306   -0.0436 H   0  0  0  0  0  0  0  0  0  0  0  0
   14.0952   -2.5851    1.6293 H   0  0  0  0  0  0  0  0  0  0  0  0
   14.6084   -1.5821    0.2026 H   0  0  0  0  0  0  0  0  0  0  0  0
   11.7695   -2.2663   -0.1326 H   0  0  0  0  0  0  0  0  0  0  0  0
   14.0454   -0.2390    2.1007 H   0  0  0  0  0  0  0  0  0  0  0  0
   12.6068    0.2134    3.0662 H   0  0  0  0  0  0  0  0  0  0  0  0
   13.1059    1.2173    1.6508 H   0  0  0  0  0  0  0  0  0  0  0  0
    8.1777    0.2641    0.8760 H   0  0  0  0  0  0  0  0  0  0  0  0
    8.3143   -0.7912   -1.9851 H   0  0  0  0  0  0  0  0  0  0  0  0
    9.0876    1.6496   -0.8326 H   0  0  0  0  0  0  0  0  0  0  0  0
    5.1789    0.7538   -3.1404 H   0  0  0  0  0  0  0  0  0  0  0  0
    6.5496   -0.3210   -3.4926 H   0  0  0  0  0  0  0  0  0  0  0  0
    6.8099    1.6955   -4.4261 H   0  0  0  0  0  0  0  0  0  0  0  0
    6.2890    1.3918    0.5506 H   0  0  0  0  0  0  0  0  0  0  0  0
    6.5664    3.2117   -1.5968 H   0  0  0  0  0  0  0  0  0  0  0  0
    4.5656    2.2587   -1.7308 H   0  0  0  0  0  0  0  0  0  0  0  0
    4.3647    2.8747   -0.0892 H   0  0  0  0  0  0  0  0  0  0  0  0
    4.5615    0.5407    1.6802 H   0  0  0  0  0  0  0  0  0  0  0  0
    2.9489   -0.1787    1.5535 H   0  0  0  0  0  0  0  0  0  0  0  0
    3.2810    1.5932    1.7158 H   0  0  0  0  0  0  0  0  0  0  0  0
    3.7766   -2.2508   -2.1007 H   0  0  0  0  0  0  0  0  0  0  0  0
    1.4052   -2.2272   -1.4767 H   0  0  0  0  0  0  0  0  0  0  0  0
    1.6842   -1.0876   -2.8338 H   0  0  0  0  0  0  0  0  0  0  0  0
    1.2937   -0.5108    0.1732 H   0  0  0  0  0  0  0  0  0  0  0  0
   -0.2637   -0.4323   -3.3024 H   0  0  0  0  0  0  0  0  0  0  0  0
   -0.5383    1.3212   -2.9709 H   0  0  0  0  0  0  0  0  0  0  0  0
   -1.7746    0.2089   -2.8831 H   0  0  0  0  0  0  0  0  0  0  0  0
   -0.8734   -1.5595    0.3293 H   0  0  0  0  0  0  0  0  0  0  0  0
   -0.8343   -2.1274   -1.3714 H   0  0  0  0  0  0  0  0  0  0  0  0
   -3.1450   -2.0919   -0.4958 H   0  0  0  0  0  0  0  0  0  0  0  0
   -3.0199   -0.9799   -1.8392 H   0  0  0  0  0  0  0  0  0  0  0  0
   -3.0856   -0.3644    1.1481 H   0  0  0  0  0  0  0  0  0  0  0  0
   -5.2787   -1.3009    0.9379 H   0  0  0  0  0  0  0  0  0  0  0  0
   -6.9070   -1.9900   -2.6861 H   0  0  0  0  0  0  0  0  0  0  0  0
   -8.1689   -0.0126   -3.9201 H   0  0  0  0  0  0  0  0  0  0  0  0
   -8.7858   -0.3525   -1.7201 H   0  0  0  0  0  0  0  0  0  0  0  0
   -8.2899   -3.0191   -0.8744 H   0  0  0  0  0  0  0  0  0  0  0  0
   -7.8785   -1.5373    0.9623 H   0  0  0  0  0  0  0  0  0  0  0  0
   -9.6054   -1.3000    2.1221 H   0  0  0  0  0  0  0  0  0  0  0  0
  -13.0348   -1.6920    1.2678 H   0  0  0  0  0  0  0  0  0  0  0  0
  -12.8375    1.3907    1.4023 H   0  0  0  0  0  0  0  0  0  0  0  0
  -14.2717    0.3853    1.6700 H   0  0  0  0  0  0  0  0  0  0  0  0
  -12.7341    0.7382   -0.6805 H   0  0  0  0  0  0  0  0  0  0  0  0
  -13.2692   -0.9383    3.6285 H   0  0  0  0  0  0  0  0  0  0  0  0
  -11.8849   -2.4711    4.2657 H   0  0  0  0  0  0  0  0  0  0  0  0
  -10.7943   -0.3553    4.5356 H   0  0  0  0  0  0  0  0  0  0  0  0
  -12.7015    1.5473    3.6311 H   0  0  0  0  0  0  0  0  0  0  0  0
  -10.8021    1.4923    2.0823 H   0  0  0  0  0  0  0  0  0  0  0  0
   -8.7129    0.3933    3.6732 H   0  0  0  0  0  0  0  0  0  0  0  0
   -6.8960    1.0354   -0.2587 H   0  0  0  0  0  0  0  0  0  0  0  0
   -6.6078   -0.0363    2.3791 H   0  0  0  0  0  0  0  0  0  0  0  0
   -4.0482    2.4823   -1.0840 H   0  0  0  0  0  0  0  0  0  0  0  0
   -2.8975    1.7742   -2.1994 H   0  0  0  0  0  0  0  0  0  0  0  0
   -2.4598    3.2232   -1.2551 H   0  0  0  0  0  0  0  0  0  0  0  0
   -2.2974    3.1916    1.2693 H   0  0  0  0  0  0  0  0  0  0  0  0
   -2.3488    1.6287    2.1566 H   0  0  0  0  0  0  0  0  0  0  0  0
   -4.2729    2.6408    2.3977 H   0  0  0  0  0  0  0  0  0  0  0  0
   -0.6000    0.7683    0.8949 H   0  0  0  0  0  0  0  0  0  0  0  0
   -0.3930    3.2502    0.3536 H   0  0  0  0  0  0  0  0  0  0  0  0
   -0.2027    2.8623   -1.3678 H   0  0  0  0  0  0  0  0  0  0  0  0
    1.3864    1.9361    1.0263 H   0  0  0  0  0  0  0  0  0  0  0  0
    1.9644    3.2024   -0.1026 H   0  0  0  0  0  0  0  0  0  0  0  0
    2.7107    2.7063   -2.3958 H   0  0  0  0  0  0  0  0  0  0  0  0
    1.2979    1.9817   -2.8494 H   0  0  0  0  0  0  0  0  0  0  0  0
    2.7632    1.0184   -3.0446 H   0  0  0  0  0  0  0  0  0  0  0  0
    5.8626   -1.6834   -1.6593 H   0  0  0  0  0  0  0  0  0  0  0  0
    5.5090   -2.3431    0.6605 H   0  0  0  0  0  0  0  0  0  0  0  0
    5.9850   -0.7344    1.2262 H   0  0  0  0  0  0  0  0  0  0  0  0
    7.3868   -3.8988   -0.1258 H   0  0  0  0  0  0  0  0  0  0  0  0
    9.0510   -3.2601   -0.3541 H   0  0  0  0  0  0  0  0  0  0  0  0
    7.7490   -2.8243   -1.4976 H   0  0  0  0  0  0  0  0  0  0  0  0
    7.3734   -3.1175    2.2420 H   0  0  0  0  0  0  0  0  0  0  0  0
    7.7549   -1.4088    2.6585 H   0  0  0  0  0  0  0  0  0  0  0  0
    9.0481   -2.4914    2.0382 H   0  0  0  0  0  0  0  0  0  0  0  0
  1  2  1  0  0  0  0
  1 66  1  0  0  0  0
  1 67  1  0  0  0  0
  1 68  1  0  0  0  0
  2  3  2  0  0  0  0
  2 69  1  0  0  0  0
  3  4  1  0  0  0  0
  3  5  1  0  0  0  0
  4 70  1  0  0  0  0
  4 71  1  0  0  0  0
  4 72  1  0  0  0  0
  5  6  2  0  0  0  0
  5  7  1  0  0  0  0
  8  7  1  0  0  0  0
  8  9  1  0  0  0  0
  8 73  1  1  0  0  0
  9 10  1  0  0  0  0
  9 11  1  0  0  0  0
  9 74  1  6  0  0  0
 10 75  1  0  0  0  0
 11 12  1  6  0  0  0
 11 14  1  0  0  0  0
 12 13  1  0  0  0  0
 12 76  1  0  0  0  0
 12 77  1  0  0  0  0
 13 78  1  0  0  0  0
 14 15  1  0  0  0  0
 14 16  1  0  0  0  0
 14 79  1  1  0  0  0
 15 80  1  0  0  0  0
 16 17  1  0  0  0  0
 16 81  1  0  0  0  0
 16 82  1  0  0  0  0
 17 18  1  1  0  0  0
 17 19  1  0  0  0  0
 18 83  1  0  0  0  0
 18 84  1  0  0  0  0
 18 85  1  0  0  0  0
 19 20  2  0  0  0  0
 19 61  1  0  0  0  0
 20 21  1  0  0  0  0
 20 86  1  0  0  0  0
 21 87  1  0  0  0  0
 21 88  1  0  0  0  0
 22 21  1  0  0  0  0
 22 23  1  0  0  0  0
 22 89  1  1  0  0  0
 23 24  1  6  0  0  0
 23 25  1  0  0  0  0
 24 90  1  0  0  0  0
 24 91  1  0  0  0  0
 24 92  1  0  0  0  0
 25 26  1  0  0  0  0
 25 93  1  0  0  0  0
 25 94  1  0  0  0  0
 26 27  1  0  0  0  0
 26 95  1  0  0  0  0
 26 96  1  0  0  0  0
 27 28  1  0  0  0  0
 27 52  1  0  0  0  0
 27 97  1  1  0  0  0
 29 28  1  0  0  0  0
 29 30  1  0  0  0  0
 29 98  1  1  0  0  0
 30 31  1  0  0  0  0
 31 32  1  0  0  0  0
 31 35  1  0  0  0  0
 31 99  1  6  0  0  0
 32 33  2  0  0  0  0
 32 34  1  0  0  0  0
 34100  1  0  0  0  0
 35 36  1  0  0  0  0
 35 37  1  0  0  0  0
 35101  1  6  0  0  0
 36102  1  0  0  0  0
 37 38  1  0  0  0  0
 37 50  1  0  0  0  0
 37103  1  1  0  0  0
 39 38  1  0  0  0  0
 39 40  1  0  0  0  0
 39104  1  1  0  0  0
 40 41  1  0  0  0  0
 41 42  1  0  0  0  0
 41 44  1  0  0  0  0
 41105  1  6  0  0  0
 42 43  1  0  0  0  0
 42106  1  0  0  0  0
 42107  1  0  0  0  0
 43108  1  0  0  0  0
 44 45  1  0  0  0  0
 44 46  1  0  0  0  0
 44109  1  1  0  0  0
 45110  1  0  0  0  0
 46 47  1  0  0  0  0
 46 48  1  0  0  0  0
 46111  1  1  0  0  0
 47112  1  0  0  0  0
 48 49  1  0  0  0  0
 48 39  1  0  0  0  0
 48113  1  6  0  0  0
 49114  1  0  0  0  0
 50 51  1  0  0  0  0
 50 29  1  0  0  0  0
 50115  1  6  0  0  0
 51116  1  0  0  0  0
 52 53  1  6  0  0  0
 52 54  1  0  0  0  0
 52 56  1  0  0  0  0
 53117  1  0  0  0  0
 53118  1  0  0  0  0
 53119  1  0  0  0  0
 54 55  1  0  0  0  0
 54120  1  0  0  0  0
 54121  1  0  0  0  0
 55122  1  0  0  0  0
 56 57  1  0  0  0  0
 56 23  1  0  0  0  0
 56123  1  1  0  0  0
 57 58  1  0  0  0  0
 57124  1  0  0  0  0
 57125  1  0  0  0  0
 58 59  1  0  0  0  0
 58126  1  0  0  0  0
 58127  1  0  0  0  0
 59 60  1  6  0  0  0
 59 17  1  0  0  0  0
 59 22  1  0  0  0  0
 60128  1  0  0  0  0
 60129  1  0  0  0  0
 60130  1  0  0  0  0
 61 62  1  0  0  0  0
 61 11  1  0  0  0  0
 61131  1  6  0  0  0
 62 63  1  0  0  0  0
 62132  1  0  0  0  0
 62133  1  0  0  0  0
 63 64  1  0  0  0  0
 63 65  1  0  0  0  0
 63  8  1  0  0  0  0
 64134  1  0  0  0  0
 64135  1  0  0  0  0
 64136  1  0  0  0  0
 65137  1  0  0  0  0
 65138  1  0  0  0  0
 65139  1  0  0  0  0
M  END
>  <IDENTIFIER>
CNP0230791.1

>  <Energy>
1622.54

$$$$
