
 OpenBabel09102520453D

129130  0  0  0  0  0  0  0  0999 V2000
    3.7916   -2.3927    4.5492 C   0  0  0  0  0  0  0  0  0  0  0  0
    4.4848   -2.5545    3.2313 C   0  0  0  0  0  0  0  0  0  0  0  0
    4.2249   -1.9240    2.0562 C   0  0  0  0  0  0  0  0  0  0  0  0
    5.0568   -2.3060    0.9515 N   0  0  0  0  0  0  0  0  0  0  0  0
    5.5867   -1.4030    0.0733 C   0  0  0  0  0  0  0  0  0  0  0  0
    5.3313   -0.2120    0.2022 O   0  0  0  0  0  0  0  0  0  0  0  0
    6.5155   -1.8312   -1.0673 C   0  0  1  0  0  0  0  0  0  0  0  0
    6.7789   -0.6778   -1.9408 N   0  0  0  0  0  0  0  0  0  0  0  0
    7.8950   -2.4315   -0.6101 C   0  0  1  0  0  0  0  0  0  0  0  0
    7.7899   -3.7341    0.2057 C   0  0  0  0  0  0  0  0  0  0  0  0
    8.8571   -2.6553   -1.8127 C   0  0  0  0  0  0  0  0  0  0  0  0
    8.3442   -3.6218   -2.8836 C   0  0  0  0  0  0  0  0  0  0  0  0
    3.1122   -0.9333    1.7918 C   0  0  0  0  0  0  0  0  0  0  0  0
    2.7649   -0.8089    0.6248 O   0  0  0  0  0  0  0  0  0  0  0  0
    2.4719   -0.1965    2.7486 N   0  0  0  0  0  0  0  0  0  0  0  0
    1.3438    0.6755    2.4336 C   0  0  1  0  0  0  0  0  0  0  0  0
    0.1039    0.3058    3.2724 C   0  0  0  0  0  0  0  0  0  0  0  0
   -0.3508   -1.4322    2.9905 S   0  0  0  0  0  0  0  0  0  0  0  0
   -1.9375   -1.2704    2.0724 C   0  0  0  0  0  0  0  0  0  0  0  0
   -1.7769   -0.7699    0.6045 C   0  0  1  0  0  0  0  0  0  0  0  0
   -2.6351   -1.4433   -0.4840 C   0  0  0  0  0  0  0  0  0  0  0  0
   -2.6009   -0.9433   -1.6009 O   0  0  0  0  0  0  0  0  0  0  0  0
   -3.3765   -2.5779   -0.2806 N   0  0  0  0  0  0  0  0  0  0  0  0
   -4.2185   -3.1935   -1.3086 C   0  0  2  0  0  0  0  0  0  0  0  0
   -5.6324   -3.3978   -0.7501 C   0  0  0  0  0  0  0  0  0  0  0  0
   -5.7842   -3.3246    0.4631 O   0  0  0  0  0  0  0  0  0  0  0  0
   -6.7382   -3.6220   -1.5345 N   0  0  0  0  0  0  0  0  0  0  0  0
   -6.7964   -3.5003   -2.9780 C   0  0  0  0  0  0  0  0  0  0  0  0
   -8.1756   -2.8902   -3.1954 C   0  0  0  0  0  0  0  0  0  0  0  0
   -8.9990   -3.6928   -2.2028 C   0  0  0  0  0  0  0  0  0  0  0  0
   -8.0841   -3.6968   -0.9749 C   0  0  1  0  0  0  0  0  0  0  0  0
   -8.3445   -4.9196   -0.1132 C   0  0  0  0  0  0  0  0  0  0  0  0
   -9.4273   -5.0318    0.4398 O   0  0  0  0  0  0  0  0  0  0  0  0
   -7.4329   -5.9052    0.0416 O   0  0  0  0  0  0  0  0  0  0  0  0
   -3.5584   -4.5159   -1.7987 C   0  0  1  0  0  0  0  0  0  0  0  0
   -3.3003   -5.5490   -0.6830 C   0  0  0  0  0  0  0  0  0  0  0  0
   -4.2883   -5.0906   -2.8536 O   0  0  0  0  0  0  0  0  0  0  0  0
   -1.9650    0.6809    0.5211 N   0  0  0  0  0  0  0  0  0  0  0  0
   -3.2011    1.2859    0.5754 C   0  0  0  0  0  0  0  0  0  0  0  0
   -4.1856    0.6046    0.8292 O   0  0  0  0  0  0  0  0  0  0  0  0
   -3.4414    2.7847    0.2907 C   0  0  2  0  0  0  0  0  0  0  0  0
   -4.4668    2.9407   -0.8825 C   0  0  0  0  0  0  0  0  0  0  0  0
   -5.0854    4.3493   -1.1087 C   0  0  0  0  0  0  0  0  0  0  0  0
   -6.0892    4.2736   -2.2747 C   0  0  0  0  0  0  0  0  0  0  0  0
   -4.0610    5.4500   -1.4147 C   0  0  0  0  0  0  0  0  0  0  0  0
   -2.2037    3.5278    0.0331 N   0  0  0  0  0  0  0  0  0  0  0  0
   -1.3773    3.2945   -1.0292 C   0  0  0  0  0  0  0  0  0  0  0  0
   -1.6566    2.4205   -1.8388 O   0  0  0  0  0  0  0  0  0  0  0  0
   -0.0640    4.0743   -1.1820 C   0  0  2  0  0  0  0  0  0  0  0  0
    0.7177    3.5460   -2.4154 C   0  0  0  0  0  0  0  0  0  0  0  0
   -0.0337    3.7434   -3.5864 O   0  0  0  0  0  0  0  0  0  0  0  0
    0.7286    3.9213    0.0405 N   0  0  0  0  0  0  0  0  0  0  0  0
    1.9801    4.4428    0.2295 C   0  0  0  0  0  0  0  0  0  0  0  0
    2.5143    5.0960   -0.6534 O   0  0  0  0  0  0  0  0  0  0  0  0
    2.7435    4.1137    1.5175 C   0  0  2  0  0  0  0  0  0  0  0  0
    4.2504    4.5418    1.4743 C   0  0  1  0  0  0  0  0  0  0  0  0
    4.4236    6.0777    1.4059 C   0  0  0  0  0  0  0  0  0  0  0  0
    5.1004    3.9641    2.6366 C   0  0  0  0  0  0  0  0  0  0  0  0
    4.7403    4.4783    4.0314 C   0  0  0  0  0  0  0  0  0  0  0  0
    2.6049    2.6732    1.6867 N   0  0  0  0  0  0  0  0  0  0  0  0
    1.7331    2.1266    2.5859 C   0  0  0  0  0  0  0  0  0  0  0  0
    1.1620    2.8300    3.4096 O   0  0  0  0  0  0  0  0  0  0  0  0
    4.2253   -3.1148    5.2742 H   0  0  0  0  0  0  0  0  0  0  0  0
    2.7067   -2.5993    4.4505 H   0  0  0  0  0  0  0  0  0  0  0  0
    3.9861   -1.3874    4.9706 H   0  0  0  0  0  0  0  0  0  0  0  0
    5.2972   -3.2789    3.2377 H   0  0  0  0  0  0  0  0  0  0  0  0
    5.3125   -3.2972    0.8709 H   0  0  0  0  0  0  0  0  0  0  0  0
    5.9683   -2.5865   -1.6709 H   0  0  0  0  0  0  0  0  0  0  0  0
    7.2808    0.0740   -1.4116 H   0  0  0  0  0  0  0  0  0  0  0  0
    5.8820   -0.2938   -2.3188 H   0  0  0  0  0  0  0  0  0  0  0  0
    8.4005   -1.6850    0.0423 H   0  0  0  0  0  0  0  0  0  0  0  0
    7.2048   -4.5049   -0.3399 H   0  0  0  0  0  0  0  0  0  0  0  0
    7.3507   -3.5519    1.2030 H   0  0  0  0  0  0  0  0  0  0  0  0
    8.8018   -4.1400    0.4157 H   0  0  0  0  0  0  0  0  0  0  0  0
    9.8296   -3.0362   -1.4301 H   0  0  0  0  0  0  0  0  0  0  0  0
    9.0715   -1.6814   -2.3020 H   0  0  0  0  0  0  0  0  0  0  0  0
    8.1631   -4.6304   -2.4610 H   0  0  0  0  0  0  0  0  0  0  0  0
    9.1091   -3.7136   -3.6834 H   0  0  0  0  0  0  0  0  0  0  0  0
    7.4124   -3.2400   -3.3483 H   0  0  0  0  0  0  0  0  0  0  0  0
    2.7783   -0.2139    3.7235 H   0  0  0  0  0  0  0  0  0  0  0  0
    1.0281    0.5634    1.3743 H   0  0  0  0  0  0  0  0  0  0  0  0
   -0.7511    0.9654    3.0120 H   0  0  0  0  0  0  0  0  0  0  0  0
    0.3013    0.4382    4.3575 H   0  0  0  0  0  0  0  0  0  0  0  0
   -2.7436   -0.7535    2.6355 H   0  0  0  0  0  0  0  0  0  0  0  0
   -2.2112   -2.3311    2.1015 H   0  0  0  0  0  0  0  0  0  0  0  0
   -0.7326   -1.0033    0.3017 H   0  0  0  0  0  0  0  0  0  0  0  0
   -3.3511   -3.0591    0.6208 H   0  0  0  0  0  0  0  0  0  0  0  0
   -4.2768   -2.5064   -2.1755 H   0  0  0  0  0  0  0  0  0  0  0  0
   -6.7910   -4.5178   -3.4273 H   0  0  0  0  0  0  0  0  0  0  0  0
   -6.0055   -2.8731   -3.4326 H   0  0  0  0  0  0  0  0  0  0  0  0
   -8.5392   -2.9387   -4.2433 H   0  0  0  0  0  0  0  0  0  0  0  0
   -8.1533   -1.8267   -2.8628 H   0  0  0  0  0  0  0  0  0  0  0  0
   -9.0741   -4.7263   -2.6148 H   0  0  0  0  0  0  0  0  0  0  0  0
  -10.0245   -3.3136   -2.0061 H   0  0  0  0  0  0  0  0  0  0  0  0
   -8.2448   -2.7689   -0.3843 H   0  0  0  0  0  0  0  0  0  0  0  0
   -6.5857   -5.9147   -0.4222 H   0  0  0  0  0  0  0  0  0  0  0  0
   -2.5583   -4.2543   -2.2093 H   0  0  0  0  0  0  0  0  0  0  0  0
   -4.2472   -5.8577   -0.1970 H   0  0  0  0  0  0  0  0  0  0  0  0
   -2.6170   -5.1415    0.0893 H   0  0  0  0  0  0  0  0  0  0  0  0
   -2.8155   -6.4496   -1.1166 H   0  0  0  0  0  0  0  0  0  0  0  0
   -5.0033   -5.6576   -2.4635 H   0  0  0  0  0  0  0  0  0  0  0  0
   -1.1257    1.2347    0.3198 H   0  0  0  0  0  0  0  0  0  0  0  0
   -3.9161    3.1990    1.2080 H   0  0  0  0  0  0  0  0  0  0  0  0
   -5.3308    2.2749   -0.6637 H   0  0  0  0  0  0  0  0  0  0  0  0
   -4.0264    2.5737   -1.8310 H   0  0  0  0  0  0  0  0  0  0  0  0
   -5.6434    4.6436   -0.1928 H   0  0  0  0  0  0  0  0  0  0  0  0
   -5.5715    3.9973   -3.2197 H   0  0  0  0  0  0  0  0  0  0  0  0
   -6.5909    5.2539   -2.4240 H   0  0  0  0  0  0  0  0  0  0  0  0
   -6.8754    3.5163   -2.0690 H   0  0  0  0  0  0  0  0  0  0  0  0
   -3.4568    5.1930   -2.3106 H   0  0  0  0  0  0  0  0  0  0  0  0
   -3.3962    5.6269   -0.5496 H   0  0  0  0  0  0  0  0  0  0  0  0
   -4.5867    6.4113   -1.6038 H   0  0  0  0  0  0  0  0  0  0  0  0
   -1.9448    4.2621    0.7078 H   0  0  0  0  0  0  0  0  0  0  0  0
   -0.2928    5.1516   -1.3274 H   0  0  0  0  0  0  0  0  0  0  0  0
    0.9575    2.4658   -2.2574 H   0  0  0  0  0  0  0  0  0  0  0  0
    1.6829    4.0615   -2.5622 H   0  0  0  0  0  0  0  0  0  0  0  0
   -0.1630    2.8548   -4.0092 H   0  0  0  0  0  0  0  0  0  0  0  0
    0.3231    3.3606    0.7997 H   0  0  0  0  0  0  0  0  0  0  0  0
    2.2382    4.6481    2.3519 H   0  0  0  0  0  0  0  0  0  0  0  0
    4.6885    4.1052    0.5474 H   0  0  0  0  0  0  0  0  0  0  0  0
    3.9766    6.5690    2.2940 H   0  0  0  0  0  0  0  0  0  0  0  0
    3.9482    6.5256    0.5149 H   0  0  0  0  0  0  0  0  0  0  0  0
    5.5023    6.3370    1.3533 H   0  0  0  0  0  0  0  0  0  0  0  0
    6.1683    4.2157    2.4488 H   0  0  0  0  0  0  0  0  0  0  0  0
    5.0247    2.8557    2.6342 H   0  0  0  0  0  0  0  0  0  0  0  0
    4.8890    5.5752    4.1037 H   0  0  0  0  0  0  0  0  0  0  0  0
    5.4160    4.0047    4.7751 H   0  0  0  0  0  0  0  0  0  0  0  0
    3.6932    4.2236    4.2888 H   0  0  0  0  0  0  0  0  0  0  0  0
    3.0328    2.0611    0.9744 H   0  0  0  0  0  0  0  0  0  0  0  0
  1  2  1  0  0  0  0
  1 63  1  0  0  0  0
  1 64  1  0  0  0  0
  1 65  1  0  0  0  0
  2  3  2  3  0  0  0
  2 66  1  0  0  0  0
  3  4  1  0  0  0  0
  3 13  1  0  0  0  0
  4  5  1  0  0  0  0
  4 67  1  0  0  0  0
  5  6  2  0  0  0  0
  5  7  1  0  0  0  0
  7  8  1  0  0  0  0
  7  9  1  0  0  0  0
  7 68  1  6  0  0  0
  8 69  1  0  0  0  0
  8 70  1  0  0  0  0
  9 10  1  0  0  0  0
  9 11  1  0  0  0  0
  9 71  1  1  0  0  0
 10 72  1  0  0  0  0
 10 73  1  0  0  0  0
 10 74  1  0  0  0  0
 11 12  1  0  0  0  0
 11 75  1  0  0  0  0
 11 76  1  0  0  0  0
 12 77  1  0  0  0  0
 12 78  1  0  0  0  0
 12 79  1  0  0  0  0
 13 14  2  0  0  0  0
 13 15  1  0  0  0  0
 15 80  1  0  0  0  0
 16 15  1  0  0  0  0
 16 17  1  0  0  0  0
 16 81  1  6  0  0  0
 17 18  1  0  0  0  0
 17 82  1  0  0  0  0
 17 83  1  0  0  0  0
 18 19  1  0  0  0  0
 19 20  1  0  0  0  0
 19 84  1  0  0  0  0
 19 85  1  0  0  0  0
 20 21  1  0  0  0  0
 20 38  1  0  0  0  0
 20 86  1  6  0  0  0
 21 22  2  0  0  0  0
 21 23  1  0  0  0  0
 23 87  1  0  0  0  0
 24 23  1  0  0  0  0
 24 25  1  0  0  0  0
 24 35  1  0  0  0  0
 24 88  1  6  0  0  0
 25 26  2  0  0  0  0
 25 27  1  0  0  0  0
 27 28  1  0  0  0  0
 28 29  1  0  0  0  0
 28 89  1  0  0  0  0
 28 90  1  0  0  0  0
 29 30  1  0  0  0  0
 29 91  1  0  0  0  0
 29 92  1  0  0  0  0
 30 31  1  0  0  0  0
 30 93  1  0  0  0  0
 30 94  1  0  0  0  0
 31 32  1  0  0  0  0
 31 27  1  0  0  0  0
 31 95  1  1  0  0  0
 32 33  2  0  0  0  0
 32 34  1  0  0  0  0
 34 96  1  0  0  0  0
 35 36  1  0  0  0  0
 35 37  1  0  0  0  0
 35 97  1  6  0  0  0
 36 98  1  0  0  0  0
 36 99  1  0  0  0  0
 36100  1  0  0  0  0
 37101  1  0  0  0  0
 38 39  1  0  0  0  0
 38102  1  0  0  0  0
 39 40  2  0  0  0  0
 39 41  1  0  0  0  0
 41 42  1  0  0  0  0
 41 46  1  0  0  0  0
 41103  1  1  0  0  0
 42 43  1  0  0  0  0
 42104  1  0  0  0  0
 42105  1  0  0  0  0
 43 44  1  0  0  0  0
 43 45  1  0  0  0  0
 43106  1  0  0  0  0
 44107  1  0  0  0  0
 44108  1  0  0  0  0
 44109  1  0  0  0  0
 45110  1  0  0  0  0
 45111  1  0  0  0  0
 45112  1  0  0  0  0
 46 47  1  0  0  0  0
 46113  1  0  0  0  0
 47 48  2  0  0  0  0
 47 49  1  0  0  0  0
 49 50  1  0  0  0  0
 49 52  1  0  0  0  0
 49114  1  6  0  0  0
 50 51  1  0  0  0  0
 50115  1  0  0  0  0
 50116  1  0  0  0  0
 51117  1  0  0  0  0
 52 53  1  0  0  0  0
 52118  1  0  0  0  0
 53 54  2  0  0  0  0
 53 55  1  0  0  0  0
 55 56  1  0  0  0  0
 55 60  1  0  0  0  0
 55119  1  1  0  0  0
 56 57  1  0  0  0  0
 56 58  1  0  0  0  0
 56120  1  6  0  0  0
 57121  1  0  0  0  0
 57122  1  0  0  0  0
 57123  1  0  0  0  0
 58 59  1  0  0  0  0
 58124  1  0  0  0  0
 58125  1  0  0  0  0
 59126  1  0  0  0  0
 59127  1  0  0  0  0
 59128  1  0  0  0  0
 60 61  1  0  0  0  0
 60129  1  0  0  0  0
 61 62  2  0  0  0  0
 61 16  1  0  0  0  0
M  END
>  <IDENTIFIER>
CNP0589564.1

>  <Energy>
1051.19

$$$$
