
 OpenBabel09122505053D

100105  0  0  0  0  0  0  0  0999 V2000
   -7.1715    0.5697   -3.2555 C   0  0  0  0  0  0  0  0  0  0  0  0
   -6.1125   -0.0770   -2.7158 C   0  0  0  0  0  0  0  0  0  0  0  0
   -5.0366   -0.5186   -3.6733 C   0  0  0  0  0  0  0  0  0  0  0  0
   -5.9545   -0.3657   -1.1930 C   0  0  2  0  0  0  0  0  0  0  0  0
   -7.1676    0.1326   -0.3513 C   0  0  0  0  0  0  0  0  0  0  0  0
   -6.7135    1.4892    0.2072 C   0  0  0  0  0  0  0  0  0  0  0  0
   -5.3052    1.1248    0.6910 C   0  0  2  0  0  0  0  0  0  0  0  0
   -5.4749    0.2633    1.9659 C   0  0  0  0  0  0  0  0  0  0  0  0
   -5.2172   -0.9330    1.9758 O   0  0  0  0  0  0  0  0  0  0  0  0
   -5.9564    0.8555    3.0904 O   0  0  0  0  0  0  0  0  0  0  0  0
   -6.1238    0.2006    4.2923 C   0  0  0  0  0  0  0  0  0  0  0  0
   -4.3774    2.3099    1.0331 C   0  0  0  0  0  0  0  0  0  0  0  0
   -2.9618    1.7689    1.3621 C   0  0  0  0  0  0  0  0  0  0  0  0
   -2.3001    0.9123    0.2039 C   0  0  2  0  0  0  0  0  0  0  0  0
   -2.0156    1.9348   -0.9662 C   0  0  0  0  0  0  0  0  0  0  0  0
   -3.3298   -0.2109   -0.2701 C   0  0  2  0  0  0  0  0  0  0  0  0
   -2.7171   -1.0792   -1.3814 C   0  0  0  0  0  0  0  0  0  0  0  0
   -1.4128   -1.7716   -0.9218 C   0  0  0  0  0  0  0  0  0  0  0  0
   -0.3482   -0.7385   -0.4607 C   0  0  2  0  0  0  0  0  0  0  0  0
    1.2084   -1.2277   -0.3239 C   0  0  1  0  0  0  0  0  0  0  0  0
    1.2757   -2.7770   -0.4399 C   0  0  0  0  0  0  0  0  0  0  0  0
    2.0794   -0.6461   -1.5179 C   0  0  0  0  0  0  0  0  0  0  0  0
    3.4731   -0.1134   -1.1241 C   0  0  0  0  0  0  0  0  0  0  0  0
    4.2189   -0.9764   -0.1027 C   0  0  2  0  0  0  0  0  0  0  0  0
    4.5916   -2.2141   -0.6948 O   0  0  0  0  0  0  0  0  0  0  0  0
    6.3336   -2.3227   -0.7724 S   0  0  0  0  0  0  0  0  0  0  0  0
    6.6386   -3.2169   -1.9832 O   0  0  0  0  0  0  0  0  0  0  0  0
    6.7609   -3.2226    0.3972 O   0  0  0  0  0  0  0  0  0  0  0  0
    7.2676   -0.7832   -0.8352 C   0  0  0  0  0  0  0  0  0  0  0  0
    7.4535   -0.1240   -2.0538 C   0  0  0  0  0  0  0  0  0  0  0  0
    8.0593    1.1353   -2.0833 C   0  0  0  0  0  0  0  0  0  0  0  0
    8.4770    1.7476   -0.8915 C   0  0  0  0  0  0  0  0  0  0  0  0
    9.0757    3.1233   -0.9002 C   0  0  0  0  0  0  0  0  0  0  0  0
    8.3053    1.0756    0.3283 C   0  0  0  0  0  0  0  0  0  0  0  0
    7.7048   -0.1850    0.3557 C   0  0  0  0  0  0  0  0  0  0  0  0
    3.4259   -1.1463    1.2465 C   0  0  0  0  0  0  0  0  0  0  0  0
    4.0798   -0.2206    2.3287 C   0  0  0  0  0  0  0  0  0  0  0  0
    3.6353   -2.5709    1.8565 C   0  0  0  0  0  0  0  0  0  0  0  0
    1.8706   -0.7961    1.0520 C   0  0  1  0  0  0  0  0  0  0  0  0
    1.5243    0.6818    1.4440 C   0  0  0  0  0  0  0  0  0  0  0  0
    0.1867    1.2356    0.9454 C   0  0  0  0  0  0  0  0  0  0  0  0
   -0.9254    0.1879    0.6992 C   0  0  1  0  0  0  0  0  0  0  0  0
   -1.2236   -0.6092    2.0269 C   0  0  0  0  0  0  0  0  0  0  0  0
   -4.7401    0.4213   -0.5767 C   0  0  1  0  0  0  0  0  0  0  0  0
   -7.2299    0.7508   -4.3246 H   0  0  0  0  0  0  0  0  0  0  0  0
   -8.0029    0.9605   -2.6911 H   0  0  0  0  0  0  0  0  0  0  0  0
   -5.2923   -0.3093   -4.7346 H   0  0  0  0  0  0  0  0  0  0  0  0
   -4.8626   -1.6089   -3.5768 H   0  0  0  0  0  0  0  0  0  0  0  0
   -4.1187    0.0555   -3.4739 H   0  0  0  0  0  0  0  0  0  0  0  0
   -5.8784   -1.4646   -1.0430 H   0  0  0  0  0  0  0  0  0  0  0  0
   -7.2905   -0.5594    0.5091 H   0  0  0  0  0  0  0  0  0  0  0  0
   -8.1694    0.0834   -0.8147 H   0  0  0  0  0  0  0  0  0  0  0  0
   -7.3771    1.8922    1.0027 H   0  0  0  0  0  0  0  0  0  0  0  0
   -6.6676    2.2286   -0.6247 H   0  0  0  0  0  0  0  0  0  0  0  0
   -6.5194    0.9132    5.0437 H   0  0  0  0  0  0  0  0  0  0  0  0
   -5.1470   -0.1909    4.6512 H   0  0  0  0  0  0  0  0  0  0  0  0
   -6.8438   -0.6374    4.1751 H   0  0  0  0  0  0  0  0  0  0  0  0
   -4.7752    2.8757    1.9037 H   0  0  0  0  0  0  0  0  0  0  0  0
   -4.3364    3.0293    0.1913 H   0  0  0  0  0  0  0  0  0  0  0  0
   -3.1037    1.1623    2.2702 H   0  0  0  0  0  0  0  0  0  0  0  0
   -2.3090    2.6203    1.6433 H   0  0  0  0  0  0  0  0  0  0  0  0
   -2.9083    2.4552   -1.3428 H   0  0  0  0  0  0  0  0  0  0  0  0
   -1.5541    1.4953   -1.8651 H   0  0  0  0  0  0  0  0  0  0  0  0
   -1.3631    2.7622   -0.6243 H   0  0  0  0  0  0  0  0  0  0  0  0
   -3.5016   -0.9314    0.5269 H   0  0  0  0  0  0  0  0  0  0  0  0
   -2.4771   -0.4698   -2.2682 H   0  0  0  0  0  0  0  0  0  0  0  0
   -3.4378   -1.8694   -1.6773 H   0  0  0  0  0  0  0  0  0  0  0  0
   -1.0632   -2.3306   -1.8121 H   0  0  0  0  0  0  0  0  0  0  0  0
   -1.6209   -2.4959   -0.1064 H   0  0  0  0  0  0  0  0  0  0  0  0
   -0.3085   -0.0855   -1.3389 H   0  0  0  0  0  0  0  0  0  0  0  0
    0.8360   -3.1463   -1.3845 H   0  0  0  0  0  0  0  0  0  0  0  0
    0.7554   -3.2668    0.4110 H   0  0  0  0  0  0  0  0  0  0  0  0
    2.3067   -3.1410   -0.5218 H   0  0  0  0  0  0  0  0  0  0  0  0
    1.6157    0.2322   -2.0133 H   0  0  0  0  0  0  0  0  0  0  0  0
    2.1685   -1.4083   -2.3239 H   0  0  0  0  0  0  0  0  0  0  0  0
    3.3471    0.8883   -0.6740 H   0  0  0  0  0  0  0  0  0  0  0  0
    4.0852    0.0445   -2.0399 H   0  0  0  0  0  0  0  0  0  0  0  0
    5.0990   -0.3625    0.1367 H   0  0  0  0  0  0  0  0  0  0  0  0
    7.1013   -0.5719   -2.9737 H   0  0  0  0  0  0  0  0  0  0  0  0
    8.1781    1.6412   -3.0332 H   0  0  0  0  0  0  0  0  0  0  0  0
    9.1369    3.5329   -1.9307 H   0  0  0  0  0  0  0  0  0  0  0  0
   10.0971    3.0947   -0.4658 H   0  0  0  0  0  0  0  0  0  0  0  0
    8.4422    3.8045   -0.2937 H   0  0  0  0  0  0  0  0  0  0  0  0
    8.6140    1.5385    1.2579 H   0  0  0  0  0  0  0  0  0  0  0  0
    7.5448   -0.6779    1.3063 H   0  0  0  0  0  0  0  0  0  0  0  0
    5.1400   -0.5088    2.5046 H   0  0  0  0  0  0  0  0  0  0  0  0
    3.5463   -0.2943    3.3006 H   0  0  0  0  0  0  0  0  0  0  0  0
    4.1186    0.8415    2.0171 H   0  0  0  0  0  0  0  0  0  0  0  0
    4.7143   -2.7672    2.0313 H   0  0  0  0  0  0  0  0  0  0  0  0
    3.2725   -3.4123    1.2539 H   0  0  0  0  0  0  0  0  0  0  0  0
    3.1206   -2.6497    2.8389 H   0  0  0  0  0  0  0  0  0  0  0  0
    1.3958   -1.3953    1.8247 H   0  0  0  0  0  0  0  0  0  0  0  0
    2.2699    1.4229    1.1006 H   0  0  0  0  0  0  0  0  0  0  0  0
    1.5340    0.7244    2.5550 H   0  0  0  0  0  0  0  0  0  0  0  0
    0.4191    1.6975   -0.0382 H   0  0  0  0  0  0  0  0  0  0  0  0
   -0.1214    2.0608    1.6195 H   0  0  0  0  0  0  0  0  0  0  0  0
   -1.4465    0.0756    2.8651 H   0  0  0  0  0  0  0  0  0  0  0  0
   -0.4356   -1.2224    2.4451 H   0  0  0  0  0  0  0  0  0  0  0  0
   -2.0448   -1.3356    1.9308 H   0  0  0  0  0  0  0  0  0  0  0  0
   -4.5909    1.2283   -1.3187 H   0  0  0  0  0  0  0  0  0  0  0  0
  1  2  2  0  0  0  0
  1 45  1  0  0  0  0
  1 46  1  0  0  0  0
  2  3  1  0  0  0  0
  3 47  1  0  0  0  0
  3 48  1  0  0  0  0
  3 49  1  0  0  0  0
  4  2  1  0  0  0  0
  4  5  1  0  0  0  0
  4 50  1  1  0  0  0
  5  6  1  0  0  0  0
  5 51  1  0  0  0  0
  5 52  1  0  0  0  0
  6  7  1  0  0  0  0
  6 53  1  0  0  0  0
  6 54  1  0  0  0  0
  7  8  1  1  0  0  0
  7 12  1  0  0  0  0
  8  9  2  0  0  0  0
  8 10  1  0  0  0  0
 10 11  1  0  0  0  0
 11 55  1  0  0  0  0
 11 56  1  0  0  0  0
 11 57  1  0  0  0  0
 12 13  1  0  0  0  0
 12 58  1  0  0  0  0
 12 59  1  0  0  0  0
 13 14  1  0  0  0  0
 13 60  1  0  0  0  0
 13 61  1  0  0  0  0
 14 15  1  6  0  0  0
 14 16  1  0  0  0  0
 15 62  1  0  0  0  0
 15 63  1  0  0  0  0
 15 64  1  0  0  0  0
 16 17  1  0  0  0  0
 16 44  1  0  0  0  0
 16 65  1  1  0  0  0
 17 18  1  0  0  0  0
 17 66  1  0  0  0  0
 17 67  1  0  0  0  0
 18 68  1  0  0  0  0
 18 69  1  0  0  0  0
 19 18  1  0  0  0  0
 19 20  1  0  0  0  0
 19 70  1  6  0  0  0
 20 21  1  6  0  0  0
 20 22  1  0  0  0  0
 21 71  1  0  0  0  0
 21 72  1  0  0  0  0
 21 73  1  0  0  0  0
 22 23  1  0  0  0  0
 22 74  1  0  0  0  0
 22 75  1  0  0  0  0
 23 24  1  0  0  0  0
 23 76  1  0  0  0  0
 23 77  1  0  0  0  0
 24 25  1  0  0  0  0
 24 36  1  0  0  0  0
 24 78  1  1  0  0  0
 25 26  1  0  0  0  0
 26 27  2  0  0  0  0
 26 28  2  0  0  0  0
 26 29  1  0  0  0  0
 29 30  2  0  0  0  0
 30 31  1  0  0  0  0
 30 79  1  0  0  0  0
 31 32  2  0  0  0  0
 31 80  1  0  0  0  0
 32 33  1  0  0  0  0
 32 34  1  0  0  0  0
 33 81  1  0  0  0  0
 33 82  1  0  0  0  0
 33 83  1  0  0  0  0
 34 35  2  0  0  0  0
 34 84  1  0  0  0  0
 35 29  1  0  0  0  0
 35 85  1  0  0  0  0
 36 37  1  0  0  0  0
 36 38  1  0  0  0  0
 36 39  1  0  0  0  0
 37 86  1  0  0  0  0
 37 87  1  0  0  0  0
 37 88  1  0  0  0  0
 38 89  1  0  0  0  0
 38 90  1  0  0  0  0
 38 91  1  0  0  0  0
 39 40  1  0  0  0  0
 39 20  1  0  0  0  0
 39 92  1  1  0  0  0
 40 41  1  0  0  0  0
 40 93  1  0  0  0  0
 40 94  1  0  0  0  0
 41 42  1  0  0  0  0
 41 95  1  0  0  0  0
 41 96  1  0  0  0  0
 42 43  1  1  0  0  0
 42 14  1  0  0  0  0
 42 19  1  0  0  0  0
 43 97  1  0  0  0  0
 43 98  1  0  0  0  0
 43 99  1  0  0  0  0
 44  4  1  0  0  0  0
 44  7  1  0  0  0  0
 44100  1  6  0  0  0
M  END
>  <IDENTIFIER>
CNP0211549.6

>  <Energy>
1770.82

$$$$
