
 OpenBabel09122505083D

 53 56  0  0  0  0  0  0  0  0999 V2000
   -1.0467    2.1430   -1.6902 C   0  0  0  0  0  0  0  0  0  0  0  0
   -1.2478    0.7850   -1.5634 O   0  0  0  0  0  0  0  0  0  0  0  0
   -2.3173    0.2533   -0.9318 C   0  0  0  0  0  0  0  0  0  0  0  0
   -2.1881   -0.4015    0.3234 C   0  0  0  0  0  0  0  0  0  0  0  0
   -0.8911   -0.5946    1.0704 C   0  0  0  0  0  0  0  0  0  0  0  0
   -0.9492   -1.0097    2.4148 C   0  0  0  0  0  0  0  0  0  0  0  0
    0.2149   -1.1958    3.1718 C   0  0  0  0  0  0  0  0  0  0  0  0
    0.1291   -1.5842    4.4617 O   0  0  0  0  0  0  0  0  0  0  0  0
    1.4729   -0.9763    2.5880 C   0  0  0  0  0  0  0  0  0  0  0  0
    2.6065   -1.1486    3.3036 O   0  0  0  0  0  0  0  0  0  0  0  0
    1.5701   -0.5753    1.2490 C   0  0  0  0  0  0  0  0  0  0  0  0
    2.8216   -0.3852    0.7371 O   0  0  0  0  0  0  0  0  0  0  0  0
    3.2201    0.0303   -0.5311 C   0  0  2  0  0  0  0  0  0  0  0  0
    3.9808   -0.9904   -1.1699 O   0  0  0  0  0  0  0  0  0  0  0  0
    5.2005   -1.2452   -0.4855 C   0  0  0  0  0  0  0  0  0  0  0  0
    6.1164    0.0042   -0.4692 C   0  0  1  0  0  0  0  0  0  0  0  0
    6.5334    0.3421   -1.7736 O   0  0  0  0  0  0  0  0  0  0  0  0
    5.3844    1.1948    0.1919 C   0  0  2  0  0  0  0  0  0  0  0  0
    5.2681    1.0452    1.5900 O   0  0  0  0  0  0  0  0  0  0  0  0
    4.0069    1.3667   -0.4814 C   0  0  2  0  0  0  0  0  0  0  0  0
    3.2589    2.4014    0.1080 O   0  0  0  0  0  0  0  0  0  0  0  0
    0.3866   -0.3913    0.5018 C   0  0  0  0  0  0  0  0  0  0  0  0
   -3.2915   -0.8638    0.9128 O   0  0  0  0  0  0  0  0  0  0  0  0
   -4.5094   -0.7788    0.3928 C   0  0  0  0  0  0  0  0  0  0  0  0
   -5.5912   -1.3098    1.1027 C   0  0  0  0  0  0  0  0  0  0  0  0
   -6.8864   -1.2412    0.5764 C   0  0  0  0  0  0  0  0  0  0  0  0
   -7.9350   -1.7509    1.2541 O   0  0  0  0  0  0  0  0  0  0  0  0
   -7.0994   -0.6389   -0.6657 C   0  0  0  0  0  0  0  0  0  0  0  0
   -6.0276   -0.0973   -1.3919 C   0  0  0  0  0  0  0  0  0  0  0  0
   -6.2614    0.4795   -2.5908 O   0  0  0  0  0  0  0  0  0  0  0  0
   -4.7153   -0.1631   -0.8599 C   0  0  0  0  0  0  0  0  0  0  0  0
   -3.5893    0.3613   -1.5202 C   0  0  0  0  0  0  0  0  0  0  0  0
   -3.7031    0.9067   -2.6058 O   0  0  0  0  0  0  0  0  0  0  0  0
   -0.1048    2.3181   -2.2494 H   0  0  0  0  0  0  0  0  0  0  0  0
   -0.9453    2.5989   -0.6813 H   0  0  0  0  0  0  0  0  0  0  0  0
   -1.8834    2.6269   -2.2330 H   0  0  0  0  0  0  0  0  0  0  0  0
   -1.9051   -1.1817    2.8941 H   0  0  0  0  0  0  0  0  0  0  0  0
   -0.7195   -1.7419    4.8992 H   0  0  0  0  0  0  0  0  0  0  0  0
    2.6061   -1.4230    4.2311 H   0  0  0  0  0  0  0  0  0  0  0  0
    2.3592    0.2335   -1.1857 H   0  0  0  0  0  0  0  0  0  0  0  0
    5.7356   -2.0629   -1.0132 H   0  0  0  0  0  0  0  0  0  0  0  0
    4.9967   -1.6384    0.5331 H   0  0  0  0  0  0  0  0  0  0  0  0
    7.0382   -0.2258    0.1075 H   0  0  0  0  0  0  0  0  0  0  0  0
    5.7647    0.2678   -2.3947 H   0  0  0  0  0  0  0  0  0  0  0  0
    5.9898    2.1139    0.0349 H   0  0  0  0  0  0  0  0  0  0  0  0
    4.9668    0.1311    1.8089 H   0  0  0  0  0  0  0  0  0  0  0  0
    4.1892    1.6610   -1.5376 H   0  0  0  0  0  0  0  0  0  0  0  0
    3.0447    2.1307    1.0380 H   0  0  0  0  0  0  0  0  0  0  0  0
    0.4712   -0.1123   -0.5158 H   0  0  0  0  0  0  0  0  0  0  0  0
   -5.4220   -1.7785    2.0646 H   0  0  0  0  0  0  0  0  0  0  0  0
   -7.8321   -2.1750    2.1179 H   0  0  0  0  0  0  0  0  0  0  0  0
   -8.1042   -0.5906   -1.0680 H   0  0  0  0  0  0  0  0  0  0  0  0
   -7.1474    0.5324   -2.9771 H   0  0  0  0  0  0  0  0  0  0  0  0
  1  2  1  0  0  0  0
  1 34  1  0  0  0  0
  1 35  1  0  0  0  0
  1 36  1  0  0  0  0
  2  3  1  0  0  0  0
  3  4  2  0  0  0  0
  4  5  1  0  0  0  0
  4 23  1  0  0  0  0
  5  6  2  0  0  0  0
  6  7  1  0  0  0  0
  6 37  1  0  0  0  0
  7  8  1  0  0  0  0
  7  9  2  0  0  0  0
  8 38  1  0  0  0  0
  9 10  1  0  0  0  0
  9 11  1  0  0  0  0
 10 39  1  0  0  0  0
 11 12  1  0  0  0  0
 11 22  2  0  0  0  0
 13 12  1  0  0  0  0
 13 14  1  0  0  0  0
 13 40  1  6  0  0  0
 14 15  1  0  0  0  0
 15 16  1  0  0  0  0
 15 41  1  0  0  0  0
 15 42  1  0  0  0  0
 16 17  1  0  0  0  0
 16 18  1  0  0  0  0
 16 43  1  1  0  0  0
 17 44  1  0  0  0  0
 18 19  1  0  0  0  0
 18 20  1  0  0  0  0
 18 45  1  6  0  0  0
 19 46  1  0  0  0  0
 20 21  1  0  0  0  0
 20 13  1  0  0  0  0
 20 47  1  6  0  0  0
 21 48  1  0  0  0  0
 22  5  1  0  0  0  0
 22 49  1  0  0  0  0
 23 24  1  0  0  0  0
 24 25  2  0  0  0  0
 25 26  1  0  0  0  0
 25 50  1  0  0  0  0
 26 27  1  0  0  0  0
 26 28  2  0  0  0  0
 27 51  1  0  0  0  0
 28 29  1  0  0  0  0
 28 52  1  0  0  0  0
 29 30  1  0  0  0  0
 29 31  2  0  0  0  0
 30 53  1  0  0  0  0
 31 32  1  0  0  0  0
 31 24  1  0  0  0  0
 32 33  2  0  0  0  0
 32  3  1  0  0  0  0
M  END
>  <IDENTIFIER>
CNP0307226.2

>  <Energy>
516.383

$$$$
