
 OpenBabel09072516133D

 46 48  0  0  0  0  0  0  0  0999 V2000
    7.2945    3.7992    1.0739 O   0  0  0  0  0  0  0  0  0  0  0  0
    6.2186    3.0203    0.8410 C   0  0  0  0  0  0  0  0  0  0  0  0
    4.9551    3.3821    1.3227 C   0  0  0  0  0  0  0  0  0  0  0  0
    3.8499    2.5658    1.0736 C   0  0  0  0  0  0  0  0  0  0  0  0
    3.9841    1.3731    0.3390 C   0  0  0  0  0  0  0  0  0  0  0  0
    2.7594    0.5540    0.1128 C   0  0  0  0  0  0  0  0  0  0  0  0
    2.7163   -0.6143   -0.5661 C   0  0  0  0  0  0  0  0  0  0  0  0
    1.4775   -1.4246   -0.7859 C   0  0  0  0  0  0  0  0  0  0  0  0
    1.5869   -2.6225   -1.5110 C   0  0  0  0  0  0  0  0  0  0  0  0
    0.4613   -3.4223   -1.7480 C   0  0  0  0  0  0  0  0  0  0  0  0
    0.5677   -4.5724   -2.4446 O   0  0  0  0  0  0  0  0  0  0  0  0
   -0.7870   -3.0287   -1.2607 C   0  0  0  0  0  0  0  0  0  0  0  0
   -0.9341   -1.8409   -0.5357 C   0  0  0  0  0  0  0  0  0  0  0  0
   -2.1871   -1.5241   -0.0978 O   0  0  0  0  0  0  0  0  0  0  0  0
   -2.6258   -0.4066    0.6013 C   0  0  2  0  0  0  0  0  0  0  0  0
   -3.1500   -0.8684    1.8540 O   0  0  0  0  0  0  0  0  0  0  0  0
   -4.2062   -0.0574    2.3202 C   0  0  0  0  0  0  0  0  0  0  0  0
   -5.4511   -0.1916    1.4076 C   0  0  1  0  0  0  0  0  0  0  0  0
   -6.3315    0.8780    1.6507 O   0  0  0  0  0  0  0  0  0  0  0  0
   -5.0443   -0.2859   -0.0993 C   0  0  2  0  0  0  0  0  0  0  0  0
   -5.0181   -1.6237   -0.5496 O   0  0  0  0  0  0  0  0  0  0  0  0
   -3.6603    0.3516   -0.3019 C   0  0  1  0  0  0  0  0  0  0  0  0
   -3.7270    1.7115    0.0484 O   0  0  0  0  0  0  0  0  0  0  0  0
    0.2077   -1.0426   -0.3008 C   0  0  0  0  0  0  0  0  0  0  0  0
    5.2622    1.0176   -0.1424 C   0  0  0  0  0  0  0  0  0  0  0  0
    6.3668    1.8386    0.1095 C   0  0  0  0  0  0  0  0  0  0  0  0
    7.2317    4.6246    1.5758 H   0  0  0  0  0  0  0  0  0  0  0  0
    4.8269    4.2951    1.8905 H   0  0  0  0  0  0  0  0  0  0  0  0
    2.8833    2.8698    1.4582 H   0  0  0  0  0  0  0  0  0  0  0  0
    1.8556    0.9603    0.5417 H   0  0  0  0  0  0  0  0  0  0  0  0
    3.6270   -1.0145   -0.9918 H   0  0  0  0  0  0  0  0  0  0  0  0
    2.5497   -2.9387   -1.8949 H   0  0  0  0  0  0  0  0  0  0  0  0
    1.4123   -4.8824   -2.8012 H   0  0  0  0  0  0  0  0  0  0  0  0
   -1.6533   -3.6515   -1.4490 H   0  0  0  0  0  0  0  0  0  0  0  0
   -1.7975    0.2899    0.8021 H   0  0  0  0  0  0  0  0  0  0  0  0
   -3.8444    0.9939    2.3748 H   0  0  0  0  0  0  0  0  0  0  0  0
   -4.4724   -0.3230    3.3647 H   0  0  0  0  0  0  0  0  0  0  0  0
   -6.0083   -1.1214    1.6538 H   0  0  0  0  0  0  0  0  0  0  0  0
   -5.8870    1.7143    1.3551 H   0  0  0  0  0  0  0  0  0  0  0  0
   -5.8185    0.2244   -0.7128 H   0  0  0  0  0  0  0  0  0  0  0  0
   -4.6481   -2.2042    0.1648 H   0  0  0  0  0  0  0  0  0  0  0  0
   -3.3595    0.2909   -1.3749 H   0  0  0  0  0  0  0  0  0  0  0  0
   -2.9030    2.1398   -0.3037 H   0  0  0  0  0  0  0  0  0  0  0  0
    0.1176   -0.1344    0.2516 H   0  0  0  0  0  0  0  0  0  0  0  0
    5.4285    0.1164   -0.7116 H   0  0  0  0  0  0  0  0  0  0  0  0
    7.3420    1.5542   -0.2657 H   0  0  0  0  0  0  0  0  0  0  0  0
  1  2  1  0  0  0  0
  1 27  1  0  0  0  0
  2  3  2  0  0  0  0
  3  4  1  0  0  0  0
  3 28  1  0  0  0  0
  4  5  2  0  0  0  0
  4 29  1  0  0  0  0
  5  6  1  0  0  0  0
  5 25  1  0  0  0  0
  6  7  2  0  0  0  0
  6 30  1  0  0  0  0
  7  8  1  0  0  0  0
  7 31  1  0  0  0  0
  8  9  2  0  0  0  0
  9 10  1  0  0  0  0
  9 32  1  0  0  0  0
 10 11  1  0  0  0  0
 10 12  2  0  0  0  0
 11 33  1  0  0  0  0
 12 13  1  0  0  0  0
 12 34  1  0  0  0  0
 13 14  1  0  0  0  0
 13 24  2  0  0  0  0
 15 14  1  0  0  0  0
 15 16  1  0  0  0  0
 15 35  1  1  0  0  0
 16 17  1  0  0  0  0
 17 18  1  0  0  0  0
 17 36  1  0  0  0  0
 17 37  1  0  0  0  0
 18 19  1  0  0  0  0
 18 20  1  0  0  0  0
 18 38  1  1  0  0  0
 19 39  1  0  0  0  0
 20 21  1  0  0  0  0
 20 22  1  0  0  0  0
 20 40  1  6  0  0  0
 21 41  1  0  0  0  0
 22 23  1  0  0  0  0
 22 15  1  0  0  0  0
 22 42  1  6  0  0  0
 23 43  1  0  0  0  0
 24  8  1  0  0  0  0
 24 44  1  0  0  0  0
 25 26  2  0  0  0  0
 25 45  1  0  0  0  0
 26  2  1  0  0  0  0
 26 46  1  0  0  0  0
M  END
>  <IDENTIFIER>
CNP0277250.1

>  <Energy>
464.5

$$$$
