
 OpenBabel09112520332D

272276  0  0  0  0  0  0  0  0999 V2000
   -5.3674  -33.6303    0.0000 C   0  0  0  0  0  0  0  0  0  0  0  0
   -4.8543  -32.2208    0.0000 C   0  0  0  0  0  0  0  0  0  0  0  0
   -3.7301  -30.9474   -0.3022 C   0  0  0  0  0  0  0  0  0  0  0  0
   -3.8629  -29.3017   -0.0165 C   0  0  0  0  0  0  0  0  0  0  0  0
   -2.5738  -28.2228   -0.2322 C   0  0  0  0  0  0  0  0  0  0  0  0
   -2.8022  -26.5826    0.0000 C   0  0  0  0  0  0  0  0  0  0  0  0
   -2.2892  -25.1731    0.0000 C   0  0  0  0  0  0  0  0  0  0  0  0
   -1.7762  -23.7636    0.0000 C   0  0  0  0  0  0  0  0  0  0  0  0
   -1.2631  -22.3540    0.0000 C   0  0  0  0  0  0  0  0  0  0  0  0
   -0.7501  -20.9445    0.0000 C   0  0  0  0  0  0  0  0  0  0  0  0
   -0.2371  -19.5350    0.0000 C   0  0  0  0  0  0  0  0  0  0  0  0
    0.9598  -18.4977    0.5858 C   0  0  0  0  0  0  0  0  0  0  0  0
    1.0307  -16.7665    0.7250 C   0  0  0  0  0  0  0  0  0  0  0  0
    1.5205  -15.4199   -0.2057 C   0  0  0  0  0  0  0  0  0  0  0  0
    1.6850  -13.8384    0.4485 C   0  0  0  0  0  0  0  0  0  0  0  0
    2.2266  -12.4021   -0.3256 C   0  0  0  0  0  0  0  0  0  0  0  0
    2.2528  -10.8767    0.4447 C   0  0  0  0  0  0  0  0  0  0  0  0
    2.4768   -9.2130   -0.0044 C   0  0  0  0  0  0  0  0  0  0  0  0
    3.8672   -8.2586    0.0000 C   0  0  0  0  0  0  0  0  0  0  0  0
    4.3802   -6.8491   -0.0000 C   0  0  0  0  0  0  0  0  0  0  0  0
    4.8932   -5.4396    0.0000 C   0  0  0  0  0  0  0  0  0  0  0  0
    5.9936   -4.9835   -0.9800 C   0  0  0  0  0  0  0  0  0  0  0  0
    6.4607   -3.7065   -0.3592 C   0  0  0  0  0  0  0  0  0  0  0  0
    7.4723   -3.7495    0.3125 O   0  0  0  0  0  0  0  0  0  0  0  0
    5.6248   -2.6255   -0.3234 N   0  0  0  0  0  0  0  0  0  0  0  0
    5.6567   -1.5905    0.7090 C   0  0  1  0  0  0  0  0  0  0  0  0
    4.2383   -0.7154    0.5970 C   0  0  0  0  0  0  0  0  0  0  0  0
    3.0066   -1.5065    0.3743 O   0  0  0  0  0  0  0  0  0  0  0  0
    1.6255   -1.0062    0.6627 C   0  0  2  0  0  0  0  0  0  0  0  0
    0.6656   -1.9549    0.1674 O   0  0  0  0  0  0  0  0  0  0  0  0
   -0.7271   -1.7973    0.6175 C   0  0  2  0  0  0  0  0  0  0  0  0
   -1.5324   -2.8768   -0.1167 C   0  0  0  0  0  0  0  0  0  0  0  0
   -1.5541   -2.6201   -1.4909 O   0  0  0  0  0  0  0  0  0  0  0  0
   -1.3791   -0.3396    0.4406 C   0  0  1  0  0  0  0  0  0  0  0  0
   -2.7387   -0.2129   -0.1873 O   0  0  0  0  0  0  0  0  0  0  0  0
   -3.9758   -0.6580    0.4963 C   0  0  2  0  0  0  0  0  0  0  0  0
   -4.6642   -1.5808   -0.3519 O   0  0  0  0  0  0  0  0  0  0  0  0
   -5.9203   -2.0291    0.1998 C   0  0  2  0  0  0  0  0  0  0  0  0
   -6.0978   -3.4594   -0.3142 C   0  0  0  0  0  0  0  0  0  0  0  0
   -6.2415   -3.4618   -1.7077 O   0  0  0  0  0  0  0  0  0  0  0  0
   -7.1061   -1.0138   -0.1541 C   0  0  2  0  0  0  0  0  0  0  0  0
   -8.4383   -1.2588    0.4773 O   0  0  0  0  0  0  0  0  0  0  0  0
   -9.1856   -2.5398    0.2482 C   0  0  2  0  0  0  0  0  0  0  0  0
   -8.8886   -3.3636    1.3705 O   0  0  0  0  0  0  0  0  0  0  0  0
   -9.5608   -4.6213    1.4955 C   0  0  2  0  0  0  0  0  0  0  0  0
   -8.6390   -5.7824    1.0836 C   0  0  0  0  0  0  0  0  0  0  0  0
   -9.2297   -7.0262    1.3492 O   0  0  0  0  0  0  0  0  0  0  0  0
  -10.9501   -4.7294    0.8225 C   0  0  2  0  0  0  0  0  0  0  0  0
  -11.6966   -5.7346    1.4627 O   0  0  0  0  0  0  0  0  0  0  0  0
  -11.6445   -3.3799    0.9367 C   0  0  2  0  0  0  0  0  0  0  0  0
  -12.9746   -3.4647    0.4891 O   0  0  0  0  0  0  0  0  0  0  0  0
  -10.8458   -2.4414    0.0000 C   0  0  1  0  0  0  0  0  0  0  0  0
  -11.1063   -0.9642    0.0000 C   0  0  0  0  0  0  0  0  0  0  0  0
  -11.3668    0.5130    0.0000 C   0  0  0  0  0  0  0  0  0  0  0  0
  -12.7763    1.0261    0.0000 C   0  0  0  0  0  0  0  0  0  0  0  0
  -10.5729    0.7621   -1.0007 O   0  0  0  0  0  0  0  0  0  0  0  0
   -6.4539    0.4982    0.0510 C   0  0  2  0  0  0  0  0  0  0  0  0
   -7.3392    1.4916    0.6695 O   0  0  0  0  0  0  0  0  0  0  0  0
   -8.1075    2.5231   -0.0488 C   0  0  2  0  0  0  0  0  0  0  0  0
   -8.0684    2.2977   -1.5835 C   0  0  0  0  0  0  0  0  0  0  0  0
   -8.3863    1.2134   -2.0380 O   0  0  0  0  0  0  0  0  0  0  0  0
   -7.6266    3.2243   -2.4683 O   0  0  0  0  0  0  0  0  0  0  0  0
   -7.6372    3.9584    0.3690 C   0  0  0  0  0  0  0  0  0  0  0  0
   -8.8147    5.0324    0.4079 C   0  0  2  0  0  0  0  0  0  0  0  0
   -9.3255    5.0729    1.7210 O   0  0  0  0  0  0  0  0  0  0  0  0
   -9.9823    4.6427   -0.5647 C   0  0  1  0  0  0  0  0  0  0  0  0
  -11.1402    5.5050   -0.7415 N   0  0  0  0  0  0  0  0  0  0  0  0
  -11.4572    6.5786    0.0000 C   0  0  0  0  0  0  0  0  0  0  0  0
  -12.8668    7.0916    0.0000 C   0  0  0  0  0  0  0  0  0  0  0  0
  -10.6615    7.0648    0.7904 O   0  0  0  0  0  0  0  0  0  0  0  0
  -10.5372    3.2893    0.0000 C   0  0  3  0  0  0  0  0  0  0  0  0
  -11.6863    2.3251    0.0000 C   0  0  2  0  0  0  0  0  0  0  0  0
  -12.4344    3.4779    0.5742 O   0  0  0  0  0  0  0  0  0  0  0  0
  -12.8354    1.3609    0.0000 C   0  0  1  0  0  0  0  0  0  0  0  0
  -13.6172    1.5420   -2.0538 C   0  0  0  0  0  0  0  0  0  0  0  0
  -14.3727    2.7037   -2.3731 O   0  0  0  0  0  0  0  0  0  0  0  0
  -13.9819    1.9662    1.6232 O   0  0  0  0  0  0  0  0  0  0  0  0
  -15.5064    2.0325    1.1802 C   0  0  2  0  0  0  0  0  0  0  0  0
  -15.8433    0.8507    0.2283 C   0  0  0  0  0  0  0  0  0  0  0  0
  -16.2081    1.0357   -0.9207 O   0  0  0  0  0  0  0  0  0  0  0  0
  -15.6632   -0.4099    0.6839 O   0  0  0  0  0  0  0  0  0  0  0  0
  -15.7431    3.4775    0.5904 C   0  0  0  0  0  0  0  0  0  0  0  0
  -17.1922    4.0640    0.6572 C   0  0  2  0  0  0  0  0  0  0  0  0
  -17.4493    4.5962    1.9329 O   0  0  0  0  0  0  0  0  0  0  0  0
  -18.2058    2.9606    0.3957 C   0  0  1  0  0  0  0  0  0  0  0  0
  -19.6217    3.4142    0.2250 N   0  0  0  0  0  0  0  0  0  0  0  0
  -20.3162    4.6381    0.0000 C   0  0  0  0  0  0  0  0  0  0  0  0
  -21.7934    4.3776    0.0000 C   0  0  0  0  0  0  0  0  0  0  0  0
  -19.7659    5.7277   -0.0633 O   0  0  0  0  0  0  0  0  0  0  0  0
  -17.9671    1.8273    1.5557 C   0  0  3  0  0  0  0  0  0  0  0  0
  -18.7126    0.3317    1.3858 C   0  0  1  0  0  0  0  0  0  0  0  0
  -18.1606   -0.5038    2.3667 O   0  0  0  0  0  0  0  0  0  0  0  0
  -18.9009   -0.5696    0.0000 C   0  0  2  0  0  0  0  0  0  0  0  0
  -19.6349    0.1886   -0.9306 O   0  0  0  0  0  0  0  0  0  0  0  0
  -19.4139   -1.9791    0.0000 C   0  0  0  0  0  0  0  0  0  0  0  0
  -19.9269   -3.3886    0.0000 O   0  0  0  0  0  0  0  0  0  0  0  0
  -16.5650    1.8070    2.1395 O   0  0  0  0  0  0  0  0  0  0  0  0
   -9.4264    2.4476    0.4868 O   0  0  0  0  0  0  0  0  0  0  0  0
   -5.0649    0.4816    0.8837 C   0  0  1  0  0  0  0  0  0  0  0  0
   -5.4022    0.2939    2.2307 O   0  0  0  0  0  0  0  0  0  0  0  0
   -0.3237    0.4159   -0.4407 C   0  0  2  0  0  0  0  0  0  0  0  0
   -0.7039    1.7564   -0.6227 O   0  0  0  0  0  0  0  0  0  0  0  0
    1.1962    0.3768    0.0584 C   0  0  1  0  0  0  0  0  0  0  0  0
    2.0191    0.6998   -1.0324 O   0  0  0  0  0  0  0  0  0  0  0  0
    7.0878   -0.7667    0.8087 C   0  0  1  0  0  0  0  0  0  0  0  0
    6.8542    0.1855    1.8174 O   0  0  0  0  0  0  0  0  0  0  0  0
    8.5836   -1.4330    1.1659 C   0  0  0  0  0  0  0  0  0  0  0  0
    9.6968   -1.6010    0.0000 C   0  0  0  0  0  0  0  0  0  0  0  0
   11.1063   -2.1140   -0.0000 C   0  0  0  0  0  0  0  0  0  0  0  0
   12.5158   -2.6270   -0.0000 C   0  0  0  0  0  0  0  0  0  0  0  0
   13.7081   -3.5280   -0.8256 C   0  0  0  0  0  0  0  0  0  0  0  0
   15.2040   -4.0302   -0.1262 C   0  0  0  0  0  0  0  0  0  0  0  0
   16.7365   -4.2867   -0.8629 C   0  0  0  0  0  0  0  0  0  0  0  0
   18.0279   -5.1228   -0.1122 C   0  0  0  0  0  0  0  0  0  0  0  0
   19.5808   -5.7401   -0.5890 C   0  0  0  0  0  0  0  0  0  0  0  0
   21.1622   -5.1352   -0.4831 C   0  0  0  0  0  0  0  0  0  0  0  0
   22.7183   -5.7855   -0.9018 C   0  0  0  0  0  0  0  0  0  0  0  0
   23.7922   -6.7313    0.0000 C   0  0  0  0  0  0  0  0  0  0  0  0
   25.2017   -7.2443    0.0000 C   0  0  0  0  0  0  0  0  0  0  0  0
   26.6112   -7.7573    0.0000 C   0  0  0  0  0  0  0  0  0  0  0  0
   28.0208   -8.2704    0.0000 C   0  0  0  0  0  0  0  0  0  0  0  0
   -6.4208  -33.3615    0.2396 H   0  0  0  0  0  0  0  0  0  0  0  0
   -4.8719  -34.0412    0.9302 H   0  0  0  0  0  0  0  0  0  0  0  0
   -5.7334  -34.6358    0.0000 H   0  0  0  0  0  0  0  0  0  0  0  0
   -3.9441  -32.7937   -0.3083 H   0  0  0  0  0  0  0  0  0  0  0  0
   -4.9919  -31.9582    1.0788 H   0  0  0  0  0  0  0  0  0  0  0  0
   -3.4453  -31.0104   -1.3787 H   0  0  0  0  0  0  0  0  0  0  0  0
   -2.8135  -31.1868    0.2938 H   0  0  0  0  0  0  0  0  0  0  0  0
   -4.7010  -28.9419   -0.6490 H   0  0  0  0  0  0  0  0  0  0  0  0
   -4.1782  -29.1896    1.0419 H   0  0  0  0  0  0  0  0  0  0  0  0
   -2.2136  -28.3502   -1.2746 H   0  0  0  0  0  0  0  0  0  0  0  0
   -1.7565  -28.5473    0.4451 H   0  0  0  0  0  0  0  0  0  0  0  0
   -3.2915  -26.6155    1.0020 H   0  0  0  0  0  0  0  0  0  0  0  0
   -3.6576  -26.4552   -0.7045 H   0  0  0  0  0  0  0  0  0  0  0  0
   -1.8358  -25.3580   -1.0103 H   0  0  0  0  0  0  0  0  0  0  0  0
   -1.5012  -25.4785    0.7387 H   0  0  0  0  0  0  0  0  0  0  0  0
   -2.2550  -23.5895    1.0075 H   0  0  0  0  0  0  0  0  0  0  0  0
   -2.6198  -23.4876   -0.6996 H   0  0  0  0  0  0  0  0  0  0  0  0
   -0.9646  -22.4587   -1.0843 H   0  0  0  0  0  0  0  0  0  0  0  0
   -0.4251  -22.7735    0.6466 H   0  0  0  0  0  0  0  0  0  0  0  0
   -0.9255  -20.8685    1.1070 H   0  0  0  0  0  0  0  0  0  0  0  0
    0.3315  -21.1870   -0.2423 H   0  0  0  0  0  0  0  0  0  0  0  0
   -0.2255  -19.2814   -1.0862 H   0  0  0  0  0  0  0  0  0  0  0  0
   -1.1355  -18.9678    0.3501 H   0  0  0  0  0  0  0  0  0  0  0  0
    1.9364  -18.8426    0.1861 H   0  0  0  0  0  0  0  0  0  0  0  0
    0.9543  -18.7982    1.6557 H   0  0  0  0  0  0  0  0  0  0  0  0
    0.0545  -16.4784    1.1668 H   0  0  0  0  0  0  0  0  0  0  0  0
    1.7719  -16.6698    1.5473 H   0  0  0  0  0  0  0  0  0  0  0  0
    2.5212  -15.6795   -0.6102 H   0  0  0  0  0  0  0  0  0  0  0  0
    0.8267  -15.3505   -1.0691 H   0  0  0  0  0  0  0  0  0  0  0  0
    0.6791  -13.5914    0.8463 H   0  0  0  0  0  0  0  0  0  0  0  0
    2.3556  -13.9563    1.3249 H   0  0  0  0  0  0  0  0  0  0  0  0
    1.5692  -12.2782   -1.2116 H   0  0  0  0  0  0  0  0  0  0  0  0
    3.2516  -12.5963   -0.7039 H   0  0  0  0  0  0  0  0  0  0  0  0
    1.1934  -10.8503    0.7790 H   0  0  0  0  0  0  0  0  0  0  0  0
    2.8503  -11.0109    1.3702 H   0  0  0  0  0  0  0  0  0  0  0  0
    1.9211   -9.0345   -0.9484 H   0  0  0  0  0  0  0  0  0  0  0  0
    1.8925   -8.6903    0.7839 H   0  0  0  0  0  0  0  0  0  0  0  0
    4.2738   -8.6288    0.9736 H   0  0  0  0  0  0  0  0  0  0  0  0
    4.4393   -8.8007   -0.7998 H   0  0  0  0  0  0  0  0  0  0  0  0
    4.0011   -6.7166   -1.0413 H   0  0  0  0  0  0  0  0  0  0  0  0
    5.4429   -7.2078    0.0435 H   0  0  0  0  0  0  0  0  0  0  0  0
    4.0224   -4.7453   -0.0589 H   0  0  0  0  0  0  0  0  0  0  0  0
    5.2912   -5.3249    1.0414 H   0  0  0  0  0  0  0  0  0  0  0  0
    5.6460   -4.8704   -2.0288 H   0  0  0  0  0  0  0  0  0  0  0  0
    6.8311   -5.7168   -0.9511 H   0  0  0  0  0  0  0  0  0  0  0  0
    4.7956   -2.6586   -0.9339 H   0  0  0  0  0  0  0  0  0  0  0  0
    5.5633   -2.1281    1.6777 H   0  0  0  0  0  0  0  0  0  0  0  0
    4.3570   -0.0414   -0.2757 H   0  0  0  0  0  0  0  0  0  0  0  0
    4.1292   -0.0898    1.5079 H   0  0  0  0  0  0  0  0  0  0  0  0
    1.4890   -0.9848    1.7674 H   0  0  0  0  0  0  0  0  0  0  0  0
   -0.7915   -2.0762    1.6913 H   0  0  0  0  0  0  0  0  0  0  0  0
   -2.5654   -2.9197    0.2842 H   0  0  0  0  0  0  0  0  0  0  0  0
   -1.0539   -3.8649    0.0710 H   0  0  0  0  0  0  0  0  0  0  0  0
   -2.1058   -3.3389   -1.8937 H   0  0  0  0  0  0  0  0  0  0  0  0
   -1.3721    0.1875    1.4185 H   0  0  0  0  0  0  0  0  0  0  0  0
   -3.6537   -1.1778    1.4306 H   0  0  0  0  0  0  0  0  0  0  0  0
   -5.8419   -2.1088    1.3104 H   0  0  0  0  0  0  0  0  0  0  0  0
   -5.1938   -4.0462   -0.0333 H   0  0  0  0  0  0  0  0  0  0  0  0
   -6.9510   -3.9470    0.1572 H   0  0  0  0  0  0  0  0  0  0  0  0
   -6.3366   -4.4138   -1.9719 H   0  0  0  0  0  0  0  0  0  0  0  0
   -7.2845   -1.0735   -1.2491 H   0  0  0  0  0  0  0  0  0  0  0  0
   -8.7816   -3.0232   -0.6660 H   0  0  0  0  0  0  0  0  0  0  0  0
   -9.7512   -4.7083    2.5886 H   0  0  0  0  0  0  0  0  0  0  0  0
   -8.4289   -5.7232   -0.0056 H   0  0  0  0  0  0  0  0  0  0  0  0
   -7.6626   -5.7101    1.6145 H   0  0  0  0  0  0  0  0  0  0  0  0
   -9.1513   -7.1743    2.3275 H   0  0  0  0  0  0  0  0  0  0  0  0
  -10.8256   -4.9838   -0.2596 H   0  0  0  0  0  0  0  0  0  0  0  0
  -12.3541   -6.0753    0.8012 H   0  0  0  0  0  0  0  0  0  0  0  0
  -11.6113   -3.0111    1.9902 H   0  0  0  0  0  0  0  0  0  0  0  0
  -13.5221   -3.7516    1.2659 H   0  0  0  0  0  0  0  0  0  0  0  0
  -10.9809   -2.8085   -1.0543 H   0  0  0  0  0  0  0  0  0  0  0  0
  -10.8643   -0.8854    1.0860 H   0  0  0  0  0  0  0  0  0  0  0  0
  -12.0841   -1.3190   -0.1535 H   0  0  0  0  0  0  0  0  0  0  0  0
  -13.5126   -0.2915   -0.6579 H   0  0  0  0  0  0  0  0  0  0  0  0
  -13.0236   -0.0844    1.2138 H   0  0  0  0  0  0  0  0  0  0  0  0
  -13.7818    1.3921    0.0000 H   0  0  0  0  0  0  0  0  0  0  0  0
   -6.1030    0.8310   -0.9489 H   0  0  0  0  0  0  0  0  0  0  0  0
   -7.3348    4.1170   -2.2530 H   0  0  0  0  0  0  0  0  0  0  0  0
   -7.2224    3.9240    1.4003 H   0  0  0  0  0  0  0  0  0  0  0  0
   -6.7669    4.2785   -0.2351 H   0  0  0  0  0  0  0  0  0  0  0  0
   -8.3988    6.0319    0.1422 H   0  0  0  0  0  0  0  0  0  0  0  0
   -8.7033    5.6318    2.2564 H   0  0  0  0  0  0  0  0  0  0  0  0
   -9.4849    4.6065   -1.5657 H   0  0  0  0  0  0  0  0  0  0  0  0
  -11.8491    5.1716   -1.4135 H   0  0  0  0  0  0  0  0  0  0  0  0
  -12.6027    8.1431   -0.2451 H   0  0  0  0  0  0  0  0  0  0  0  0
  -13.0488    6.9374    1.0862 H   0  0  0  0  0  0  0  0  0  0  0  0
  -13.8723    7.4575    0.0000 H   0  0  0  0  0  0  0  0  0  0  0  0
  -10.6111    3.0386   -1.0786 H   0  0  0  0  0  0  0  0  0  0  0  0
  -11.3948    2.2760    1.1875 H   0  0  0  0  0  0  0  0  0  0  0  0
  -13.0298    4.0040   -0.0281 H   0  0  0  0  0  0  0  0  0  0  0  0
  -12.6710    2.5094   -1.1828 H   0  0  0  0  0  0  0  0  0  0  0  0
  -12.8104    1.3711   -2.8263 H   0  0  0  0  0  0  0  0  0  0  0  0
  -14.2993    0.6921   -2.2765 H   0  0  0  0  0  0  0  0  0  0  0  0
  -14.6008    2.6408   -3.3378 H   0  0  0  0  0  0  0  0  0  0  0  0
  -15.7892   -1.1839    0.1174 H   0  0  0  0  0  0  0  0  0  0  0  0
  -15.1024    4.2060    1.1342 H   0  0  0  0  0  0  0  0  0  0  0  0
  -15.3878    3.4810   -0.4477 H   0  0  0  0  0  0  0  0  0  0  0  0
  -17.2864    4.8735   -0.1049 H   0  0  0  0  0  0  0  0  0  0  0  0
  -17.0118    5.4859    1.9683 H   0  0  0  0  0  0  0  0  0  0  0  0
  -17.9373    2.5082   -0.5750 H   0  0  0  0  0  0  0  0  0  0  0  0
  -20.2249    2.5785    0.2280 H   0  0  0  0  0  0  0  0  0  0  0  0
  -22.1094    5.4321   -0.1513 H   0  0  0  0  0  0  0  0  0  0  0  0
  -21.8105    3.8353   -0.9710 H   0  0  0  0  0  0  0  0  0  0  0  0
  -22.8471    4.1918    0.0000 H   0  0  0  0  0  0  0  0  0  0  0  0
  -18.5142    2.2605    2.4220 H   0  0  0  0  0  0  0  0  0  0  0  0
  -19.7767    0.5246    1.6406 H   0  0  0  0  0  0  0  0  0  0  0  0
  -18.6188   -0.2733    3.2317 H   0  0  0  0  0  0  0  0  0  0  0  0
  -17.9045   -0.6658   -0.4624 H   0  0  0  0  0  0  0  0  0  0  0  0
  -20.5508    0.3113   -0.5681 H   0  0  0  0  0  0  0  0  0  0  0  0
  -18.6049   -2.2612    0.7097 H   0  0  0  0  0  0  0  0  0  0  0  0
  -20.3141   -1.6254    0.5478 H   0  0  0  0  0  0  0  0  0  0  0  0
  -19.9749   -3.6375   -0.9579 H   0  0  0  0  0  0  0  0  0  0  0  0
   -4.5820    1.4916    0.7878 H   0  0  0  0  0  0  0  0  0  0  0  0
   -4.6642    0.6774    2.7775 H   0  0  0  0  0  0  0  0  0  0  0  0
   -0.3320   -0.1175   -1.4255 H   0  0  0  0  0  0  0  0  0  0  0  0
   -1.3279    1.7832   -1.3935 H   0  0  0  0  0  0  0  0  0  0  0  0
    1.3716    1.1116    0.8805 H   0  0  0  0  0  0  0  0  0  0  0  0
    2.0311    1.6911   -1.1018 H   0  0  0  0  0  0  0  0  0  0  0  0
    7.2006   -0.2188   -0.1563 H   0  0  0  0  0  0  0  0  0  0  0  0
    7.3079    1.0272    1.5481 H   0  0  0  0  0  0  0  0  0  0  0  0
    8.4732   -2.3174    1.8220 H   0  0  0  0  0  0  0  0  0  0  0  0
    9.0915   -0.7047    1.8363 H   0  0  0  0  0  0  0  0  0  0  0  0
    9.1415   -2.1292   -0.8173 H   0  0  0  0  0  0  0  0  0  0  0  0
    9.7805   -0.5458   -0.3571 H   0  0  0  0  0  0  0  0  0  0  0  0
   11.2485   -1.8658   -1.0824 H   0  0  0  0  0  0  0  0  0  0  0  0
   10.7223   -3.1580    0.1156 H   0  0  0  0  0  0  0  0  0  0  0  0
   13.0812   -1.6748    0.1224 H   0  0  0  0  0  0  0  0  0  0  0  0
   12.5938   -3.0917    1.0130 H   0  0  0  0  0  0  0  0  0  0  0  0
   13.9355   -2.9628   -1.7503 H   0  0  0  0  0  0  0  0  0  0  0  0
   13.2212   -4.4704   -1.1634 H   0  0  0  0  0  0  0  0  0  0  0  0
   15.3992   -3.3538    0.7285 H   0  0  0  0  0  0  0  0  0  0  0  0
   14.9469   -5.0073    0.3415 H   0  0  0  0  0  0  0  0  0  0  0  0
   16.5384   -4.8363   -1.8052 H   0  0  0  0  0  0  0  0  0  0  0  0
   17.1132   -3.2809   -1.1460 H   0  0  0  0  0  0  0  0  0  0  0  0
   18.1726   -4.6732    0.8911 H   0  0  0  0  0  0  0  0  0  0  0  0
   17.4911   -6.0791    0.0723 H   0  0  0  0  0  0  0  0  0  0  0  0
   19.4505   -6.1334   -1.6187 H   0  0  0  0  0  0  0  0  0  0  0  0
   19.6854   -6.6348    0.0611 H   0  0  0  0  0  0  0  0  0  0  0  0
   21.2798   -4.7366    0.5467 H   0  0  0  0  0  0  0  0  0  0  0  0
   21.0839   -4.2451   -1.1429 H   0  0  0  0  0  0  0  0  0  0  0  0
   22.6239   -6.2336   -1.9124 H   0  0  0  0  0  0  0  0  0  0  0  0
   23.3273   -4.8654   -1.0357 H   0  0  0  0  0  0  0  0  0  0  0  0
   23.7611   -6.1634    0.9601 H   0  0  0  0  0  0  0  0  0  0  0  0
   23.1198   -7.6196    0.1526 H   0  0  0  0  0  0  0  0  0  0  0  0
   24.9454   -7.8549   -0.9077 H   0  0  0  0  0  0  0  0  0  0  0  0
   24.9961   -7.8861    0.9080 H   0  0  0  0  0  0  0  0  0  0  0  0
   26.8123   -7.0655    0.8756 H   0  0  0  0  0  0  0  0  0  0  0  0
   26.8365   -7.1844   -0.9419 H   0  0  0  0  0  0  0  0  0  0  0  0
   27.9564   -8.8262    0.9651 H   0  0  0  0  0  0  0  0  0  0  0  0
   28.6246   -7.3201    0.0702 H   0  0  0  0  0  0  0  0  0  0  0  0
   29.0263   -8.6364    0.0000 H   0  0  0  0  0  0  0  0  0  0  0  0
  1  2  1  0  0  0  0
  1122  1  0  0  0  0
  1123  1  0  0  0  0
  1124  1  0  0  0  0
  2  3  1  0  0  0  0
  2125  1  0  0  0  0
  2126  1  0  0  0  0
  3  4  1  0  0  0  0
  3127  1  0  0  0  0
  3128  1  0  0  0  0
  4  5  1  0  0  0  0
  4129  1  0  0  0  0
  4130  1  0  0  0  0
  5  6  1  0  0  0  0
  5131  1  0  0  0  0
  5132  1  0  0  0  0
  6  7  1  0  0  0  0
  6133  1  0  0  0  0
  6134  1  0  0  0  0
  7  8  1  0  0  0  0
  7135  1  0  0  0  0
  7136  1  0  0  0  0
  8  9  1  0  0  0  0
  8137  1  0  0  0  0
  8138  1  0  0  0  0
  9 10  1  0  0  0  0
  9139  1  0  0  0  0
  9140  1  0  0  0  0
 10 11  1  0  0  0  0
 10141  1  0  0  0  0
 10142  1  0  0  0  0
 11 12  1  0  0  0  0
 11143  1  0  0  0  0
 11144  1  0  0  0  0
 12 13  1  0  0  0  0
 12145  1  0  0  0  0
 12146  1  0  0  0  0
 13 14  1  0  0  0  0
 13147  1  0  0  0  0
 13148  1  0  0  0  0
 14 15  1  0  0  0  0
 14149  1  0  0  0  0
 14150  1  0  0  0  0
 15 16  1  0  0  0  0
 15151  1  0  0  0  0
 15152  1  0  0  0  0
 16 17  1  0  0  0  0
 16153  1  0  0  0  0
 16154  1  0  0  0  0
 17 18  1  0  0  0  0
 17155  1  0  0  0  0
 17156  1  0  0  0  0
 18 19  1  0  0  0  0
 18157  1  0  0  0  0
 18158  1  0  0  0  0
 19 20  1  0  0  0  0
 19159  1  0  0  0  0
 19160  1  0  0  0  0
 20 21  1  0  0  0  0
 20161  1  0  0  0  0
 20162  1  0  0  0  0
 21 22  1  0  0  0  0
 21163  1  0  0  0  0
 21164  1  0  0  0  0
 22 23  1  0  0  0  0
 22165  1  0  0  0  0
 22166  1  0  0  0  0
 23 24  2  0  0  0  0
 23 25  1  0  0  0  0
 25 26  1  0  0  0  0
 25167  1  0  0  0  0
 26 27  1  0  0  0  0
 26105  1  0  0  0  0
 26168  1  6  0  0  0
 27 28  1  0  0  0  0
 27169  1  0  0  0  0
 27170  1  0  0  0  0
 29 28  1  0  0  0  0
 29 30  1  0  0  0  0
 29171  1  1  0  0  0
 30 31  1  0  0  0  0
 31 32  1  0  0  0  0
 31 34  1  0  0  0  0
 31172  1  1  0  0  0
 32 33  1  0  0  0  0
 32173  1  0  0  0  0
 32174  1  0  0  0  0
 33175  1  0  0  0  0
 34 35  1  0  0  0  0
 34101  1  0  0  0  0
 34176  1  6  0  0  0
 36 35  1  0  0  0  0
 36 37  1  0  0  0  0
 36177  1  1  0  0  0
 37 38  1  0  0  0  0
 38 39  1  0  0  0  0
 38 41  1  0  0  0  0
 38178  1  1  0  0  0
 39 40  1  0  0  0  0
 39179  1  0  0  0  0
 39180  1  0  0  0  0
 40181  1  0  0  0  0
 41 42  1  0  0  0  0
 41 57  1  0  0  0  0
 41182  1  1  0  0  0
 43 42  1  0  0  0  0
 43 44  1  0  0  0  0
 43183  1  1  0  0  0
 44 45  1  0  0  0  0
 45 46  1  0  0  0  0
 45 48  1  0  0  0  0
 45184  1  1  0  0  0
 46 47  1  0  0  0  0
 46185  1  0  0  0  0
 46186  1  0  0  0  0
 47187  1  0  0  0  0
 48 49  1  0  0  0  0
 48 50  1  0  0  0  0
 48188  1  1  0  0  0
 49189  1  0  0  0  0
 50 51  1  0  0  0  0
 50 52  1  0  0  0  0
 50190  1  1  0  0  0
 51191  1  0  0  0  0
 52 53  1  0  0  0  0
 52 43  1  0  0  0  0
 52192  1  6  0  0  0
 53 54  1  0  0  0  0
 53193  1  0  0  0  0
 53194  1  0  0  0  0
 54 55  1  0  0  0  0
 54 56  2  0  0  0  0
 55195  1  0  0  0  0
 55196  1  0  0  0  0
 55197  1  0  0  0  0
 57 58  1  0  0  0  0
 57 99  1  0  0  0  0
 57198  1  1  0  0  0
 59 58  1  1  0  0  0
 59 60  1  0  0  0  0
 59 63  1  0  0  0  0
 60 61  2  0  0  0  0
 60 62  1  0  0  0  0
 62199  1  0  0  0  0
 63 64  1  0  0  0  0
 63200  1  0  0  0  0
 63201  1  0  0  0  0
 64 65  1  0  0  0  0
 64 66  1  0  0  0  0
 64202  1  6  0  0  0
 65203  1  0  0  0  0
 66 67  1  0  0  0  0
 66 71  1  0  0  0  0
 66204  1  1  0  0  0
 67 68  1  0  0  0  0
 67205  1  0  0  0  0
 68 69  1  0  0  0  0
 68 70  2  0  0  0  0
 69206  1  0  0  0  0
 69207  1  0  0  0  0
 69208  1  0  0  0  0
 71 72  1  0  0  0  0
 71 98  1  0  0  0  0
 71209  1  0  0  0  0
 72 73  1  0  0  0  0
 72 74  1  0  0  0  0
 72210  1  6  0  0  0
 73211  1  0  0  0  0
 74 75  1  0  0  0  0
 74 77  1  0  0  0  0
 74212  1  6  0  0  0
 75 76  1  0  0  0  0
 75213  1  0  0  0  0
 75214  1  0  0  0  0
 76215  1  0  0  0  0
 78 77  1  1  0  0  0
 78 79  1  0  0  0  0
 78 82  1  0  0  0  0
 79 80  2  0  0  0  0
 79 81  1  0  0  0  0
 81216  1  0  0  0  0
 82 83  1  0  0  0  0
 82217  1  0  0  0  0
 82218  1  0  0  0  0
 83 84  1  0  0  0  0
 83 85  1  0  0  0  0
 83219  1  6  0  0  0
 84220  1  0  0  0  0
 85 86  1  0  0  0  0
 85 90  1  0  0  0  0
 85221  1  1  0  0  0
 86 87  1  0  0  0  0
 86222  1  0  0  0  0
 87 88  1  0  0  0  0
 87 89  2  0  0  0  0
 88223  1  0  0  0  0
 88224  1  0  0  0  0
 88225  1  0  0  0  0
 90 91  1  0  0  0  0
 90 97  1  0  0  0  0
 90226  1  0  0  0  0
 91 92  1  0  0  0  0
 91 93  1  0  0  0  0
 91227  1  6  0  0  0
 92228  1  0  0  0  0
 93 94  1  0  0  0  0
 93 95  1  0  0  0  0
 93229  1  6  0  0  0
 94230  1  0  0  0  0
 95 96  1  0  0  0  0
 95231  1  0  0  0  0
 95232  1  0  0  0  0
 96233  1  0  0  0  0
 97 78  1  0  0  0  0
 98 59  1  0  0  0  0
 99100  1  0  0  0  0
 99 36  1  0  0  0  0
 99234  1  6  0  0  0
100235  1  0  0  0  0
101102  1  0  0  0  0
101103  1  0  0  0  0
101236  1  1  0  0  0
102237  1  0  0  0  0
103104  1  0  0  0  0
103 29  1  0  0  0  0
103238  1  6  0  0  0
104239  1  0  0  0  0
105106  1  0  0  0  0
105107  1  0  0  0  0
105240  1  6  0  0  0
106241  1  0  0  0  0
107108  1  0  0  0  0
107242  1  0  0  0  0
107243  1  0  0  0  0
108109  1  0  0  0  0
108244  1  0  0  0  0
108245  1  0  0  0  0
109110  1  0  0  0  0
109246  1  0  0  0  0
109247  1  0  0  0  0
110111  1  0  0  0  0
110248  1  0  0  0  0
110249  1  0  0  0  0
111112  1  0  0  0  0
111250  1  0  0  0  0
111251  1  0  0  0  0
112113  1  0  0  0  0
112252  1  0  0  0  0
112253  1  0  0  0  0
113114  1  0  0  0  0
113254  1  0  0  0  0
113255  1  0  0  0  0
114115  1  0  0  0  0
114256  1  0  0  0  0
114257  1  0  0  0  0
115116  1  0  0  0  0
115258  1  0  0  0  0
115259  1  0  0  0  0
116117  1  0  0  0  0
116260  1  0  0  0  0
116261  1  0  0  0  0
117118  1  0  0  0  0
117262  1  0  0  0  0
117263  1  0  0  0  0
118119  1  0  0  0  0
118264  1  0  0  0  0
118265  1  0  0  0  0
119120  1  0  0  0  0
119266  1  0  0  0  0
119267  1  0  0  0  0
120121  1  0  0  0  0
120268  1  0  0  0  0
120269  1  0  0  0  0
121270  1  0  0  0  0
121271  1  0  0  0  0
121272  1  0  0  0  0
M  END
>  <IDENTIFIER>
CNP0001863.1

>  <Energy>
1.96142e+12

$$$$
