
 OpenBabel09122517513D

 45 47  0  0  0  0  0  0  0  0999 V2000
   -4.9110    0.7468   -0.7962 C   0  0  0  0  0  0  0  0  0  0  0  0
   -3.7223    0.5167    0.1877 C   0  0  0  0  0  0  0  0  0  0  0  0
   -4.2776   -0.4499    1.2802 C   0  0  0  0  0  0  0  0  0  0  0  0
   -3.0898    1.8116    0.7498 C   0  0  2  0  0  0  0  0  0  0  0  0
   -2.5195    2.5049   -0.5084 C   0  0  0  0  0  0  0  0  0  0  0  0
   -2.0311    1.3232   -1.3609 C   0  0  0  0  0  0  0  0  0  0  0  0
   -2.3792    0.0970   -0.4748 C   0  0  2  0  0  0  0  0  0  0  0  0
   -2.3600   -1.2198   -1.2610 C   0  0  0  0  0  0  0  0  0  0  0  0
   -1.3962    0.0888    0.7288 C   0  0  1  0  0  0  0  0  0  0  0  0
   -0.0670    0.1948    0.3428 O   0  0  0  0  0  0  0  0  0  0  0  0
    0.9118   -0.6976    0.6519 C   0  0  0  0  0  0  0  0  0  0  0  0
    0.6615   -1.6949    1.3165 O   0  0  0  0  0  0  0  0  0  0  0  0
    2.2917   -0.4439    0.1799 C   0  0  0  0  0  0  0  0  0  0  0  0
    3.3070   -1.2813    0.4720 C   0  0  0  0  0  0  0  0  0  0  0  0
    4.7219   -1.0968    0.0421 C   0  0  0  0  0  0  0  0  0  0  0  0
    5.1580   -0.0112   -0.7474 C   0  0  0  0  0  0  0  0  0  0  0  0
    6.5042    0.1007   -1.1139 C   0  0  0  0  0  0  0  0  0  0  0  0
    7.4281   -0.8607   -0.7006 C   0  0  0  0  0  0  0  0  0  0  0  0
    7.0098   -1.9385    0.0802 C   0  0  0  0  0  0  0  0  0  0  0  0
    5.6671   -2.0570    0.4490 C   0  0  0  0  0  0  0  0  0  0  0  0
   -1.8650    1.3033    1.5505 C   0  0  0  0  0  0  0  0  0  0  0  0
   -5.7732    1.1852   -0.2494 H   0  0  0  0  0  0  0  0  0  0  0  0
   -5.2347   -0.2218   -1.2335 H   0  0  0  0  0  0  0  0  0  0  0  0
   -4.7014    1.4215   -1.6442 H   0  0  0  0  0  0  0  0  0  0  0  0
   -5.1612    0.0083    1.7737 H   0  0  0  0  0  0  0  0  0  0  0  0
   -3.5759   -0.7070    2.0923 H   0  0  0  0  0  0  0  0  0  0  0  0
   -4.5970   -1.4069    0.8152 H   0  0  0  0  0  0  0  0  0  0  0  0
   -3.7262    2.4977    1.3489 H   0  0  0  0  0  0  0  0  0  0  0  0
   -1.7267    3.2473   -0.2715 H   0  0  0  0  0  0  0  0  0  0  0  0
   -3.3255    3.0450   -1.0497 H   0  0  0  0  0  0  0  0  0  0  0  0
   -0.9579    1.3844   -1.6411 H   0  0  0  0  0  0  0  0  0  0  0  0
   -2.6086    1.3007   -2.3100 H   0  0  0  0  0  0  0  0  0  0  0  0
   -1.3468   -1.3982   -1.6799 H   0  0  0  0  0  0  0  0  0  0  0  0
   -3.0870   -1.1815   -2.0990 H   0  0  0  0  0  0  0  0  0  0  0  0
   -2.6254   -2.0707   -0.5995 H   0  0  0  0  0  0  0  0  0  0  0  0
   -1.5654   -0.8316    1.3292 H   0  0  0  0  0  0  0  0  0  0  0  0
    2.4506    0.4499   -0.4088 H   0  0  0  0  0  0  0  0  0  0  0  0
    3.0908   -2.1625    1.0709 H   0  0  0  0  0  0  0  0  0  0  0  0
    4.4795    0.7548   -1.0895 H   0  0  0  0  0  0  0  0  0  0  0  0
    6.8315    0.9357   -1.7198 H   0  0  0  0  0  0  0  0  0  0  0  0
    8.4686   -0.7705   -0.9854 H   0  0  0  0  0  0  0  0  0  0  0  0
    7.7262   -2.6839    0.4010 H   0  0  0  0  0  0  0  0  0  0  0  0
    5.3660   -2.9023    1.0561 H   0  0  0  0  0  0  0  0  0  0  0  0
   -1.0937    2.0932    1.6886 H   0  0  0  0  0  0  0  0  0  0  0  0
   -2.1726    0.9623    2.5622 H   0  0  0  0  0  0  0  0  0  0  0  0
  1  2  1  0  0  0  0
  1 22  1  0  0  0  0
  1 23  1  0  0  0  0
  1 24  1  0  0  0  0
  2  3  1  0  0  0  0
  2  4  1  0  0  0  0
  3 25  1  0  0  0  0
  3 26  1  0  0  0  0
  3 27  1  0  0  0  0
  4  5  1  0  0  0  0
  4 28  1  1  0  0  0
  5  6  1  0  0  0  0
  5 29  1  0  0  0  0
  5 30  1  0  0  0  0
  6  7  1  0  0  0  0
  6 31  1  0  0  0  0
  6 32  1  0  0  0  0
  7  8  1  6  0  0  0
  7  9  1  0  0  0  0
  7  2  1  0  0  0  0
  8 33  1  0  0  0  0
  8 34  1  0  0  0  0
  8 35  1  0  0  0  0
  9 10  1  0  0  0  0
  9 21  1  0  0  0  0
  9 36  1  1  0  0  0
 10 11  1  0  0  0  0
 11 12  2  0  0  0  0
 11 13  1  0  0  0  0
 13 14  2  0  0  0  0
 13 37  1  0  0  0  0
 14 15  1  0  0  0  0
 14 38  1  0  0  0  0
 15 16  2  0  0  0  0
 16 17  1  0  0  0  0
 16 39  1  0  0  0  0
 17 18  2  0  0  0  0
 17 40  1  0  0  0  0
 18 19  1  0  0  0  0
 18 41  1  0  0  0  0
 19 20  2  0  0  0  0
 19 42  1  0  0  0  0
 20 15  1  0  0  0  0
 20 43  1  0  0  0  0
 21  4  1  0  0  0  0
 21 44  1  0  0  0  0
 21 45  1  0  0  0  0
M  END
>  <IDENTIFIER>
CNP0167155.2

>  <Energy>
542.021

$$$$
