
 OpenBabel09082520463D

 63 65  0  0  0  0  0  0  0  0999 V2000
    2.4994    0.4454    2.4780 O   0  0  0  0  0  0  0  0  0  0  0  0
    1.9472    1.1811    1.6725 C   0  0  0  0  0  0  0  0  0  0  0  0
    2.6902    1.6954    0.4542 C   0  0  0  0  0  0  0  0  0  0  0  0
    4.1394    1.1910    0.3340 C   0  0  0  0  0  0  0  0  0  0  0  0
    4.2190   -0.3056    0.1407 C   0  0  0  0  0  0  0  0  0  0  0  0
    4.8870   -1.1076    1.0808 C   0  0  0  0  0  0  0  0  0  0  0  0
    4.9600   -2.4921    0.9032 C   0  0  0  0  0  0  0  0  0  0  0  0
    4.3675   -3.0919   -0.2176 C   0  0  0  0  0  0  0  0  0  0  0  0
    4.4299   -4.4261   -0.4002 O   0  0  0  0  0  0  0  0  0  0  0  0
    3.7058   -2.2976   -1.1590 C   0  0  0  0  0  0  0  0  0  0  0  0
    3.6337   -0.9125   -0.9847 C   0  0  0  0  0  0  0  0  0  0  0  0
    0.5283    1.6190    1.9342 C   0  0  0  0  0  0  0  0  0  0  0  0
   -0.4864    1.2108    0.8435 C   0  0  1  0  0  0  0  0  0  0  0  0
   -0.7692   -0.3066    0.7697 C   0  0  0  0  0  0  0  0  0  0  0  0
    0.3537   -1.1528    0.1511 C   0  0  0  0  0  0  0  0  0  0  0  0
   -0.0837   -2.5917    0.0354 C   0  0  0  0  0  0  0  0  0  0  0  0
   -0.2700   -3.3689    1.1895 C   0  0  0  0  0  0  0  0  0  0  0  0
   -0.6844   -4.6989    1.0859 C   0  0  0  0  0  0  0  0  0  0  0  0
   -0.9288   -5.2686   -0.1722 C   0  0  0  0  0  0  0  0  0  0  0  0
   -1.3371   -6.5512   -0.2707 O   0  0  0  0  0  0  0  0  0  0  0  0
   -0.7470   -4.4948   -1.3337 C   0  0  0  0  0  0  0  0  0  0  0  0
   -0.9836   -5.0066   -2.5602 O   0  0  0  0  0  0  0  0  0  0  0  0
   -0.3187   -3.1662   -1.2245 C   0  0  0  0  0  0  0  0  0  0  0  0
   -1.7231    1.8445    1.1512 O   0  0  0  0  0  0  0  0  0  0  0  0
   -2.2118    2.6498    0.0877 C   0  0  2  0  0  0  0  0  0  0  0  0
   -1.9271    4.0090    0.3868 O   0  0  0  0  0  0  0  0  0  0  0  0
   -2.3295    4.8527   -0.6800 C   0  0  0  0  0  0  0  0  0  0  0  0
   -3.8570    4.7982   -0.8762 C   0  0  1  0  0  0  0  0  0  0  0  0
   -4.2667    5.6576   -1.9100 O   0  0  0  0  0  0  0  0  0  0  0  0
   -4.2836    3.3454   -1.1563 C   0  0  2  0  0  0  0  0  0  0  0  0
   -5.6791    3.2312   -1.2780 O   0  0  0  0  0  0  0  0  0  0  0  0
   -3.7367    2.4352   -0.0381 C   0  0  1  0  0  0  0  0  0  0  0  0
   -4.0426    1.0856   -0.2943 O   0  0  0  0  0  0  0  0  0  0  0  0
    2.7139    2.8045    0.5158 H   0  0  0  0  0  0  0  0  0  0  0  0
    2.1405    1.4201   -0.4675 H   0  0  0  0  0  0  0  0  0  0  0  0
    4.7005    1.5064    1.2411 H   0  0  0  0  0  0  0  0  0  0  0  0
    4.6183    1.6798   -0.5418 H   0  0  0  0  0  0  0  0  0  0  0  0
    5.3496   -0.6627    1.9531 H   0  0  0  0  0  0  0  0  0  0  0  0
    5.4770   -3.0969    1.6373 H   0  0  0  0  0  0  0  0  0  0  0  0
    4.8811   -5.0094    0.2265 H   0  0  0  0  0  0  0  0  0  0  0  0
    3.2473   -2.7529   -2.0279 H   0  0  0  0  0  0  0  0  0  0  0  0
    3.1198   -0.3159   -1.7273 H   0  0  0  0  0  0  0  0  0  0  0  0
    0.5446    2.7284    2.0021 H   0  0  0  0  0  0  0  0  0  0  0  0
    0.1768    1.2278    2.9148 H   0  0  0  0  0  0  0  0  0  0  0  0
   -0.0701    1.5408   -0.1320 H   0  0  0  0  0  0  0  0  0  0  0  0
   -1.6495   -0.4384    0.1019 H   0  0  0  0  0  0  0  0  0  0  0  0
   -1.0523   -0.6814    1.7778 H   0  0  0  0  0  0  0  0  0  0  0  0
    1.2861   -1.1214    0.7435 H   0  0  0  0  0  0  0  0  0  0  0  0
    0.5661   -0.7386   -0.8587 H   0  0  0  0  0  0  0  0  0  0  0  0
   -0.0888   -2.9458    2.1697 H   0  0  0  0  0  0  0  0  0  0  0  0
   -0.8190   -5.2856    1.9860 H   0  0  0  0  0  0  0  0  0  0  0  0
   -1.4704   -7.1110    0.5075 H   0  0  0  0  0  0  0  0  0  0  0  0
   -1.2975   -5.9113   -2.6979 H   0  0  0  0  0  0  0  0  0  0  0  0
   -0.1859   -2.5782   -2.1247 H   0  0  0  0  0  0  0  0  0  0  0  0
   -1.7795    2.3687   -0.9052 H   0  0  0  0  0  0  0  0  0  0  0  0
   -1.7839    4.5873   -1.6139 H   0  0  0  0  0  0  0  0  0  0  0  0
   -2.0421    5.8954   -0.4273 H   0  0  0  0  0  0  0  0  0  0  0  0
   -4.3346    5.1390    0.0687 H   0  0  0  0  0  0  0  0  0  0  0  0
   -3.8055    5.3688   -2.7410 H   0  0  0  0  0  0  0  0  0  0  0  0
   -3.8289    3.0275   -2.1221 H   0  0  0  0  0  0  0  0  0  0  0  0
   -6.0789    3.5128   -0.4146 H   0  0  0  0  0  0  0  0  0  0  0  0
   -4.2077    2.7179    0.9290 H   0  0  0  0  0  0  0  0  0  0  0  0
   -3.5965    0.8308   -1.1444 H   0  0  0  0  0  0  0  0  0  0  0  0
  1  2  2  0  0  0  0
  2  3  1  0  0  0  0
  2 12  1  0  0  0  0
  3  4  1  0  0  0  0
  3 34  1  0  0  0  0
  3 35  1  0  0  0  0
  4  5  1  0  0  0  0
  4 36  1  0  0  0  0
  4 37  1  0  0  0  0
  5  6  2  0  0  0  0
  6  7  1  0  0  0  0
  6 38  1  0  0  0  0
  7  8  2  0  0  0  0
  7 39  1  0  0  0  0
  8  9  1  0  0  0  0
  8 10  1  0  0  0  0
  9 40  1  0  0  0  0
 10 11  2  0  0  0  0
 10 41  1  0  0  0  0
 11  5  1  0  0  0  0
 11 42  1  0  0  0  0
 12 43  1  0  0  0  0
 12 44  1  0  0  0  0
 13 12  1  0  0  0  0
 13 14  1  0  0  0  0
 13 24  1  0  0  0  0
 13 45  1  6  0  0  0
 14 15  1  0  0  0  0
 14 46  1  0  0  0  0
 14 47  1  0  0  0  0
 15 16  1  0  0  0  0
 15 48  1  0  0  0  0
 15 49  1  0  0  0  0
 16 17  2  0  0  0  0
 17 18  1  0  0  0  0
 17 50  1  0  0  0  0
 18 19  2  0  0  0  0
 18 51  1  0  0  0  0
 19 20  1  0  0  0  0
 19 21  1  0  0  0  0
 20 52  1  0  0  0  0
 21 22  1  0  0  0  0
 21 23  2  0  0  0  0
 22 53  1  0  0  0  0
 23 16  1  0  0  0  0
 23 54  1  0  0  0  0
 25 24  1  0  0  0  0
 25 26  1  0  0  0  0
 25 55  1  6  0  0  0
 26 27  1  0  0  0  0
 27 28  1  0  0  0  0
 27 56  1  0  0  0  0
 27 57  1  0  0  0  0
 28 29  1  0  0  0  0
 28 30  1  0  0  0  0
 28 58  1  1  0  0  0
 29 59  1  0  0  0  0
 30 31  1  0  0  0  0
 30 32  1  0  0  0  0
 30 60  1  6  0  0  0
 31 61  1  0  0  0  0
 32 33  1  0  0  0  0
 32 25  1  0  0  0  0
 32 62  1  1  0  0  0
 33 63  1  0  0  0  0
M  END
>  <IDENTIFIER>
CNP0293631.3

>  <Energy>
367.61

$$$$
