
 OpenBabel09122511043D

 53 55  0  0  0  0  0  0  0  0999 V2000
   -5.9280   -1.1198   -1.6070 C   0  0  0  0  0  0  0  0  0  0  0  0
   -4.8501   -0.0393   -1.6814 C   0  0  0  0  0  0  0  0  0  0  0  0
   -4.3484    0.3859   -0.2837 C   0  0  1  0  0  0  0  0  0  0  0  0
   -3.6523   -0.7829    0.4939 C   0  0  0  0  0  0  0  0  0  0  0  0
   -2.5498   -0.2620    1.3567 N   0  0  2  0  0  0  0  0  0  0  0  0
   -3.0660    0.9196    2.1011 C   0  0  0  0  0  0  0  0  0  0  0  0
   -3.2545    2.1284    1.1320 C   0  0  0  0  0  0  0  0  0  0  0  0
   -3.3449    1.5737   -0.3161 C   0  0  1  0  0  0  0  0  0  0  0  0
   -1.9405    1.0276   -0.7013 C   0  0  0  0  0  0  0  0  0  0  0  0
   -1.4085    0.1944    0.5061 C   0  0  2  0  0  0  0  0  0  0  0  0
   -0.4718   -0.9567    0.0808 C   0  0  0  0  0  0  0  0  0  0  0  0
    0.0523   -1.7026    1.2418 N   0  0  0  0  0  0  0  0  0  0  0  0
    1.0597   -0.9598    2.0242 C   0  0  0  0  0  0  0  0  0  0  0  0
    2.3073   -0.6671    1.2212 C   0  0  0  0  0  0  0  0  0  0  0  0
    2.6548    0.6507    0.9044 C   0  0  0  0  0  0  0  0  0  0  0  0
    3.7992    0.9222    0.1492 C   0  0  0  0  0  0  0  0  0  0  0  0
    4.6449   -0.1201   -0.3027 C   0  0  0  0  0  0  0  0  0  0  0  0
    5.8329    0.1573   -1.0837 N   0  0  0  0  0  0  0  0  0  0  0  0
    6.9451   -0.7806   -1.1742 C   0  0  0  0  0  0  0  0  0  0  0  0
    5.9999    1.3930   -1.8387 C   0  0  0  0  0  0  0  0  0  0  0  0
    4.2811   -1.4453    0.0389 C   0  0  0  0  0  0  0  0  0  0  0  0
    3.1287   -1.7109    0.7826 C   0  0  0  0  0  0  0  0  0  0  0  0
   -6.2783   -1.3625   -2.6325 H   0  0  0  0  0  0  0  0  0  0  0  0
   -6.7941   -0.7590   -1.0126 H   0  0  0  0  0  0  0  0  0  0  0  0
   -5.5275   -2.0461   -1.1456 H   0  0  0  0  0  0  0  0  0  0  0  0
   -5.2915    0.8484   -2.1849 H   0  0  0  0  0  0  0  0  0  0  0  0
   -4.0138   -0.4112   -2.3087 H   0  0  0  0  0  0  0  0  0  0  0  0
   -5.2370    0.7507    0.2821 H   0  0  0  0  0  0  0  0  0  0  0  0
   -3.2166   -1.5080   -0.2249 H   0  0  0  0  0  0  0  0  0  0  0  0
   -4.4030   -1.3558    1.0796 H   0  0  0  0  0  0  0  0  0  0  0  0
   -2.4109    1.2002    2.9536 H   0  0  0  0  0  0  0  0  0  0  0  0
   -4.0502    0.6448    2.5458 H   0  0  0  0  0  0  0  0  0  0  0  0
   -2.3821    2.8176    1.1743 H   0  0  0  0  0  0  0  0  0  0  0  0
   -4.1532    2.7042    1.4417 H   0  0  0  0  0  0  0  0  0  0  0  0
   -3.6749    2.3695   -1.0181 H   0  0  0  0  0  0  0  0  0  0  0  0
   -1.2098    1.8346   -0.9285 H   0  0  0  0  0  0  0  0  0  0  0  0
   -2.0431    0.4137   -1.6194 H   0  0  0  0  0  0  0  0  0  0  0  0
   -0.7987    0.8996    1.1116 H   0  0  0  0  0  0  0  0  0  0  0  0
    0.3596   -0.5617   -0.5430 H   0  0  0  0  0  0  0  0  0  0  0  0
   -1.0336   -1.6634   -0.5646 H   0  0  0  0  0  0  0  0  0  0  0  0
    0.4762   -2.5979    0.9048 H   0  0  0  0  0  0  0  0  0  0  0  0
    1.3450   -1.5569    2.9168 H   0  0  0  0  0  0  0  0  0  0  0  0
    0.6155   -0.0275    2.4245 H   0  0  0  0  0  0  0  0  0  0  0  0
    2.0334    1.4743    1.2343 H   0  0  0  0  0  0  0  0  0  0  0  0
    4.0102    1.9607   -0.0492 H   0  0  0  0  0  0  0  0  0  0  0  0
    6.8353   -1.6695   -0.5297 H   0  0  0  0  0  0  0  0  0  0  0  0
    7.8778   -0.2786   -0.8394 H   0  0  0  0  0  0  0  0  0  0  0  0
    7.0758   -1.1122   -2.2261 H   0  0  0  0  0  0  0  0  0  0  0  0
    5.1130    2.0493   -1.8257 H   0  0  0  0  0  0  0  0  0  0  0  0
    6.1791    1.1492   -2.9077 H   0  0  0  0  0  0  0  0  0  0  0  0
    6.8729    1.9589   -1.4503 H   0  0  0  0  0  0  0  0  0  0  0  0
    4.8572   -2.2999   -0.2773 H   0  0  0  0  0  0  0  0  0  0  0  0
    2.8794   -2.7378    1.0196 H   0  0  0  0  0  0  0  0  0  0  0  0
  1  2  1  0  0  0  0
  1 23  1  0  0  0  0
  1 24  1  0  0  0  0
  1 25  1  0  0  0  0
  2 26  1  0  0  0  0
  2 27  1  0  0  0  0
  3  2  1  0  0  0  0
  3  4  1  0  0  0  0
  3 28  1  1  0  0  0
  4 29  1  0  0  0  0
  4 30  1  0  0  0  0
  5  4  1  6  0  0  0
  5  6  1  0  0  0  0
  6  7  1  0  0  0  0
  6 31  1  0  0  0  0
  6 32  1  0  0  0  0
  7 33  1  0  0  0  0
  7 34  1  0  0  0  0
  8  7  1  0  0  0  0
  8  9  1  0  0  0  0
  8  3  1  0  0  0  0
  8 35  1  6  0  0  0
  9 10  1  0  0  0  0
  9 36  1  0  0  0  0
  9 37  1  0  0  0  0
 10 11  1  0  0  0  0
 10  5  1  0  0  0  0
 10 38  1  1  0  0  0
 11 12  1  0  0  0  0
 11 39  1  0  0  0  0
 11 40  1  0  0  0  0
 12 13  1  0  0  0  0
 12 41  1  0  0  0  0
 13 14  1  0  0  0  0
 13 42  1  0  0  0  0
 13 43  1  0  0  0  0
 14 15  2  0  0  0  0
 15 16  1  0  0  0  0
 15 44  1  0  0  0  0
 16 17  2  0  0  0  0
 16 45  1  0  0  0  0
 17 18  1  0  0  0  0
 17 21  1  0  0  0  0
 18 19  1  0  0  0  0
 18 20  1  0  0  0  0
 19 46  1  0  0  0  0
 19 47  1  0  0  0  0
 19 48  1  0  0  0  0
 20 49  1  0  0  0  0
 20 50  1  0  0  0  0
 20 51  1  0  0  0  0
 21 22  2  0  0  0  0
 21 52  1  0  0  0  0
 22 14  1  0  0  0  0
 22 53  1  0  0  0  0
M  END
>  <IDENTIFIER>
CNP0419244.2

>  <Energy>
540.259

$$$$
