
 OpenBabel09052522562D

164163  0  0  0  0  0  0  0  0999 V2000
   19.4856   11.2500    0.0000 C   0  0  0  0  0  0  0  0  0  0  0  0
   18.1865   10.5000    0.0000 C   0  0  0  0  0  0  0  0  0  0  0  0
   16.8875    9.7500    0.0000 C   0  0  0  0  0  2  0  0  0  0  0  0
   15.5885    9.0000    0.0000 C   0  0  0  0  0  0  0  0  0  0  0  0
   13.9460    8.6502   -0.0735 C   0  0  0  0  0  0  0  0  0  0  0  0
   13.3395    7.0670    0.0699 C   0  0  0  0  0  0  0  0  0  0  0  0
   11.6913    6.7500    0.0000 C   0  0  0  0  0  0  0  0  0  0  0  0
   10.3923    6.0000    0.0000 C   0  0  0  0  0  0  0  0  0  0  0  0
    9.0933    5.2500    0.0000 C   0  0  0  0  0  0  0  0  0  0  0  0
    7.7942    4.5000    0.0000 C   0  0  0  0  0  0  0  0  0  0  0  0
    6.4952    3.7500    0.0000 C   0  0  0  0  0  0  0  0  0  0  0  0
    5.1962    3.0000    0.0000 C   0  0  0  0  0  0  0  0  0  0  0  0
    3.5239    2.9754   -0.0103 C   0  0  0  0  0  0  0  0  0  0  0  0
    2.7281    1.4854   -0.0405 C   0  0  0  0  0  0  0  0  0  0  0  0
    1.0629    1.2455    0.0497 C   0  0  0  0  0  0  0  0  0  0  0  0
    0.3749   -0.2496   -0.0600 C   0  0  0  0  0  0  0  0  0  0  0  0
    1.1498   -1.1651   -0.2824 O   0  0  0  0  0  0  0  0  0  0  0  0
   -1.0307   -0.5916    0.0824 O   0  0  0  0  0  0  0  0  0  0  0  0
   -1.6640   -1.8965   -0.1880 C   0  0  0  0  0  0  0  0  0  0  0  0
   -3.2687   -2.2708    0.1742 C   0  0  2  0  0  0  0  0  0  0  0  0
   -3.7105   -3.8639   -0.2202 C   0  0  0  0  0  0  0  0  0  0  0  0
   -4.9831   -4.5620    0.0688 O   0  0  0  0  0  0  0  0  0  0  0  0
   -5.1962   -6.0000    0.0000 C   0  0  0  0  0  0  0  0  0  0  0  0
   -4.1728   -6.6812   -0.0655 O   0  0  0  0  0  0  0  0  0  0  0  0
   -6.4952   -6.7500    0.0000 C   0  0  0  0  0  0  0  0  0  0  0  0
   -7.7942   -7.5000    0.0000 C   0  0  0  0  0  0  0  0  0  0  0  0
   -9.0933   -8.2500    0.0000 C   0  0  0  0  0  0  0  0  0  0  0  0
  -10.3923   -9.0000    0.0000 C   0  0  0  0  0  0  0  0  0  0  0  0
  -11.6913   -9.7500    0.0000 C   0  0  0  0  0  0  0  0  0  0  0  0
  -13.3417  -10.0629    0.0154 C   0  0  0  0  0  0  0  0  0  0  0  0
  -13.9435  -11.6543   -0.0056 C   0  0  0  0  0  0  0  0  0  0  0  0
  -15.5885  -12.0000    0.0000 C   0  0  0  0  0  0  0  0  0  0  0  0
  -16.8875  -12.7500    0.0000 C   0  0  0  0  0  2  0  0  0  0  0  0
  -18.1865  -13.5000    0.0000 C   0  0  0  0  0  0  0  0  0  0  0  0
  -19.4856  -14.2500    0.0000 C   0  0  0  0  0  0  0  0  0  0  0  0
  -20.7846  -15.0000    0.0000 C   0  0  0  0  0  2  0  0  0  0  0  0
  -22.0836  -15.7500    0.0000 C   0  0  0  0  0  0  0  0  0  0  0  0
  -23.6116  -16.3046   -0.4294 C   0  0  0  0  0  0  0  0  0  0  0  0
  -24.4557  -17.4771    0.4726 C   0  0  0  0  0  0  0  0  0  0  0  0
  -25.9808  -18.0000    0.0000 C   0  0  0  0  0  0  0  0  0  0  0  0
  -27.2798  -18.7500    0.0000 C   0  0  0  0  0  0  0  0  0  0  0  0
  -28.5788  -19.5000    0.0000 C   0  0  0  0  0  0  0  0  0  0  0  0
  -30.2370  -19.2728    0.0024 C   0  0  0  0  0  0  0  0  0  0  0  0
  -31.0748  -20.6932   -0.1723 C   0  0  0  0  0  0  0  0  0  0  0  0
  -32.4760  -21.7500    0.0000 C   0  0  3  0  0  0  0  0  0  0  0  0
  -33.7750  -22.5000    0.0000 C   0  0  0  0  0  0  0  0  0  0  0  0
  -31.7260  -23.0490    0.0000 C   0  0  0  0  0  0  0  0  0  0  0  0
  -30.9760  -24.3481    0.0000 C   0  0  0  0  0  0  0  0  0  0  0  0
   -4.0888   -1.2472   -0.3539 O   0  0  0  0  0  0  0  0  0  0  0  0
   -5.3733   -0.9086    0.0236 C   0  0  0  0  0  0  0  0  0  0  0  0
   -6.1858   -1.7811    0.2865 O   0  0  0  0  0  0  0  0  0  0  0  0
   -5.7094    0.5636    0.3645 C   0  0  0  0  0  0  0  0  0  0  0  0
   -6.9345    1.3530   -0.2724 C   0  0  0  0  0  0  0  0  0  0  0  0
   -6.9998    2.7826    0.3915 C   0  0  0  0  0  0  0  0  0  0  0  0
   -7.7664    4.0655   -0.1413 C   0  0  0  0  0  0  0  0  0  0  0  0
   -9.2986    4.4995    0.0613 C   0  0  0  0  0  0  0  0  0  0  0  0
   -9.3481    6.0933    0.0000 C   0  0  0  0  0  0  0  0  0  0  0  0
  -10.0981    7.3923    0.0000 C   0  0  0  0  0  0  0  0  0  0  0  0
  -10.8481    8.6913    0.0000 C   0  0  0  0  0  0  0  0  0  0  0  0
  -11.5981    9.9904    0.0000 C   0  0  0  0  0  0  0  0  0  0  0  0
  -11.3814   11.0300    1.1288 C   0  0  0  0  0  0  0  0  0  0  0  0
  -12.8971    9.2404    0.0000 C   0  0  0  0  0  0  0  0  0  0  0  0
   19.8728   10.8403   -0.9623 H   0  0  0  0  0  0  0  0  0  0  0  0
   19.1119   12.3063   -0.0857 H   0  0  0  0  0  0  0  0  0  0  0  0
   20.4123   11.7850    0.0000 H   0  0  0  0  0  0  0  0  0  0  0  0
   17.8642   10.9774    0.9539 H   0  0  0  0  0  0  0  0  0  0  0  0
   17.7789   11.0075   -0.9130 H   0  0  0  0  0  0  0  0  0  0  0  0
   15.7698    8.4900    0.9691 H   0  0  0  0  0  0  0  0  0  0  0  0
   15.8939    8.2760   -0.7840 H   0  0  0  0  0  0  0  0  0  0  0  0
   13.5822    9.0406   -1.0472 H   0  0  0  0  0  0  0  0  0  0  0  0
   13.4582    9.2508    0.7226 H   0  0  0  0  0  0  0  0  0  0  0  0
   13.8181    6.4660   -0.7316 H   0  0  0  0  0  0  0  0  0  0  0  0
   13.7026    6.6692    1.0409 H   0  0  0  0  0  0  0  0  0  0  0  0
   11.4260    7.4983    0.7876 H   0  0  0  0  0  0  0  0  0  0  0  0
   11.5310    7.3249   -0.9488 H   0  0  0  0  0  0  0  0  0  0  0  0
   10.6240    5.6094    1.0273 H   0  0  0  0  0  0  0  0  0  0  0  0
   10.9181    5.3804   -0.7988 H   0  0  0  0  0  0  0  0  0  0  0  0
    8.9188    5.5898   -1.0654 H   0  0  0  0  0  0  0  0  0  0  0  0
    9.5792    4.2166   -0.0561 H   0  0  0  0  0  0  0  0  0  0  0  0
    7.3080    5.5307    0.0732 H   0  0  0  0  0  0  0  0  0  0  0  0
    7.9753    4.1486    1.0628 H   0  0  0  0  0  0  0  0  0  0  0  0
    5.9893    4.3297    0.8386 H   0  0  0  0  0  0  0  0  0  0  0  0
    6.2334    4.1772   -1.0047 H   0  0  0  0  0  0  0  0  0  0  0  0
    5.3512    2.3453    0.8938 H   0  0  0  0  0  0  0  0  0  0  0  0
    5.3694    2.2933   -0.8483 H   0  0  0  0  0  0  0  0  0  0  0  0
    3.1850    3.5185    0.8964 H   0  0  0  0  0  0  0  0  0  0  0  0
    3.1796    3.5502   -0.8955 H   0  0  0  0  0  0  0  0  0  0  0  0
    3.0594    0.9908   -0.9775 H   0  0  0  0  0  0  0  0  0  0  0  0
    3.1506    0.8983    0.8016 H   0  0  0  0  0  0  0  0  0  0  0  0
    0.7449    1.6764    1.0207 H   0  0  0  0  0  0  0  0  0  0  0  0
    0.6060    1.8588   -0.7544 H   0  0  0  0  0  0  0  0  0  0  0  0
   -1.0610   -2.6674    0.3399 H   0  0  0  0  0  0  0  0  0  0  0  0
   -1.5366   -2.0912   -1.2741 H   0  0  0  0  0  0  0  0  0  0  0  0
   -3.3341   -2.1908    1.2808 H   0  0  0  0  0  0  0  0  0  0  0  0
   -2.9198   -4.4617    0.2820 H   0  0  0  0  0  0  0  0  0  0  0  0
   -3.5249   -3.9773   -1.3087 H   0  0  0  0  0  0  0  0  0  0  0  0
   -6.1710   -7.3020    0.9195 H   0  0  0  0  0  0  0  0  0  0  0  0
   -6.1386   -7.1149   -1.0184 H   0  0  0  0  0  0  0  0  0  0  0  0
   -8.1033   -6.9567   -0.9492 H   0  0  0  0  0  0  0  0  0  0  0  0
   -7.3157   -8.4899   -0.3072 H   0  0  0  0  0  0  0  0  0  0  0  0
   -8.8054   -8.7881    0.9528 H   0  0  0  0  0  0  0  0  0  0  0  0
   -9.5598   -7.2523    0.3105 H   0  0  0  0  0  0  0  0  0  0  0  0
  -10.7349   -8.4259   -0.9018 H   0  0  0  0  0  0  0  0  0  0  0  0
  -10.8192   -8.5463    0.9552 H   0  0  0  0  0  0  0  0  0  0  0  0
  -11.4910  -10.3700   -0.9080 H   0  0  0  0  0  0  0  0  0  0  0  0
  -11.4632  -10.4616    0.8371 H   0  0  0  0  0  0  0  0  0  0  0  0
  -13.7534   -9.5776    0.9251 H   0  0  0  0  0  0  0  0  0  0  0  0
  -13.7769   -9.5401   -0.8622 H   0  0  0  0  0  0  0  0  0  0  0  0
  -13.5093  -12.1670    0.8785 H   0  0  0  0  0  0  0  0  0  0  0  0
  -13.5198  -12.1431   -0.9079 H   0  0  0  0  0  0  0  0  0  0  0  0
  -15.8393  -11.3702   -0.8790 H   0  0  0  0  0  0  0  0  0  0  0  0
  -15.8310  -11.3846    0.8914 H   0  0  0  0  0  0  0  0  0  0  0  0
  -17.8173  -14.0558    0.8958 H   0  0  0  0  0  0  0  0  0  0  0  0
  -17.8175  -14.0555   -0.8961 H   0  0  0  0  0  0  0  0  0  0  0  0
  -19.8548  -13.6941   -0.8958 H   0  0  0  0  0  0  0  0  0  0  0  0
  -19.8546  -13.6946    0.8961 H   0  0  0  0  0  0  0  0  0  0  0  0
  -22.3508  -15.4803    1.0431 H   0  0  0  0  0  0  0  0  0  0  0  0
  -21.6139  -16.7541    0.0578 H   0  0  0  0  0  0  0  0  0  0  0  0
  -23.5256  -16.7010   -1.4628 H   0  0  0  0  0  0  0  0  0  0  0  0
  -24.2687  -15.4109   -0.4761 H   0  0  0  0  0  0  0  0  0  0  0  0
  -23.8055  -18.3753    0.5318 H   0  0  0  0  0  0  0  0  0  0  0  0
  -24.5548  -17.0757    1.5033 H   0  0  0  0  0  0  0  0  0  0  0  0
  -26.3454  -16.9371   -0.0775 H   0  0  0  0  0  0  0  0  0  0  0  0
  -25.6322  -18.3220   -1.0112 H   0  0  0  0  0  0  0  0  0  0  0  0
  -27.6971  -18.1866   -0.8828 H   0  0  0  0  0  0  0  0  0  0  0  0
  -27.5663  -18.2720    0.9699 H   0  0  0  0  0  0  0  0  0  0  0  0
  -28.4610  -20.1417   -0.9072 H   0  0  0  0  0  0  0  0  0  0  0  0
  -28.4283  -20.2140    0.8440 H   0  0  0  0  0  0  0  0  0  0  0  0
  -30.5445  -18.5697   -0.8003 H   0  0  0  0  0  0  0  0  0  0  0  0
  -30.4950  -18.8145    0.9813 H   0  0  0  0  0  0  0  0  0  0  0  0
  -30.3764  -21.1337    0.5546 H   0  0  0  0  0  0  0  0  0  0  0  0
  -30.7368  -20.9072   -1.2099 H   0  0  0  0  0  0  0  0  0  0  0  0
  -32.6283  -21.4449    1.0719 H   0  0  0  0  0  0  0  0  0  0  0  0
  -34.4450  -21.6183    0.1560 H   0  0  0  0  0  0  0  0  0  0  0  0
  -33.8183  -22.6967   -1.1022 H   0  0  0  0  0  0  0  0  0  0  0  0
  -34.7016  -23.0350    0.0000 H   0  0  0  0  0  0  0  0  0  0  0  0
  -31.2854  -22.8667   -1.0114 H   0  0  0  0  0  0  0  0  0  0  0  0
  -31.1561  -22.8584    0.9444 H   0  0  0  0  0  0  0  0  0  0  0  0
  -31.4634  -24.8177    0.8978 H   0  0  0  0  0  0  0  0  0  0  0  0
  -31.4991  -24.8387   -0.8639 H   0  0  0  0  0  0  0  0  0  0  0  0
  -30.4410  -25.2748    0.0000 H   0  0  0  0  0  0  0  0  0  0  0  0
   -5.8588    0.5815    1.4648 H   0  0  0  0  0  0  0  0  0  0  0  0
   -4.7886    1.1496    0.1493 H   0  0  0  0  0  0  0  0  0  0  0  0
   -7.8938    0.8207   -0.1010 H   0  0  0  0  0  0  0  0  0  0  0  0
   -6.7592    1.4467   -1.3650 H   0  0  0  0  0  0  0  0  0  0  0  0
   -7.2077    2.6741    1.4767 H   0  0  0  0  0  0  0  0  0  0  0  0
   -5.9392    3.1199    0.3084 H   0  0  0  0  0  0  0  0  0  0  0  0
   -7.4841    4.2372   -1.2026 H   0  0  0  0  0  0  0  0  0  0  0  0
   -7.2148    4.8387    0.4397 H   0  0  0  0  0  0  0  0  0  0  0  0
   -9.6585    4.1945    1.0671 H   0  0  0  0  0  0  0  0  0  0  0  0
   -9.9286    4.0169   -0.7147 H   0  0  0  0  0  0  0  0  0  0  0  0
   -8.6730    6.2809   -0.8732 H   0  0  0  0  0  0  0  0  0  0  0  0
   -8.7204    6.3213    0.8930 H   0  0  0  0  0  0  0  0  0  0  0  0
  -10.5129    7.1822   -1.0215 H   0  0  0  0  0  0  0  0  0  0  0  0
  -10.8478    6.8879    0.6726 H   0  0  0  0  0  0  0  0  0  0  0  0
   -9.9773    9.1696   -0.5173 H   0  0  0  0  0  0  0  0  0  0  0  0
  -10.5844    8.8038    1.0856 H   0  0  0  0  0  0  0  0  0  0  0  0
  -11.5134   10.5031   -0.9923 H   0  0  0  0  0  0  0  0  0  0  0  0
  -10.3527   11.4417    1.0609 H   0  0  0  0  0  0  0  0  0  0  0  0
  -12.1059   11.8632    1.0127 H   0  0  0  0  0  0  0  0  0  0  0  0
  -11.5238   10.5807    2.1352 H   0  0  0  0  0  0  0  0  0  0  0  0
  -13.5449   10.1297   -0.1684 H   0  0  0  0  0  0  0  0  0  0  0  0
  -12.9551    8.9780    1.0890 H   0  0  0  0  0  0  0  0  0  0  0  0
  -13.8237    8.7054    0.0000 H   0  0  0  0  0  0  0  0  0  0  0  0
  1  2  1  0  0  0  0
  1 63  1  0  0  0  0
  1 64  1  0  0  0  0
  1 65  1  0  0  0  0
  2  3  1  0  0  0  0
  2 66  1  0  0  0  0
  2 67  1  0  0  0  0
  3  4  1  0  0  0  0
  4  5  1  0  0  0  0
  4 68  1  0  0  0  0
  4 69  1  0  0  0  0
  5  6  1  0  0  0  0
  5 70  1  0  0  0  0
  5 71  1  0  0  0  0
  6  7  1  0  0  0  0
  6 72  1  0  0  0  0
  6 73  1  0  0  0  0
  7  8  1  0  0  0  0
  7 74  1  0  0  0  0
  7 75  1  0  0  0  0
  8  9  1  0  0  0  0
  8 76  1  0  0  0  0
  8 77  1  0  0  0  0
  9 10  1  0  0  0  0
  9 78  1  0  0  0  0
  9 79  1  0  0  0  0
 10 11  1  0  0  0  0
 10 80  1  0  0  0  0
 10 81  1  0  0  0  0
 11 12  1  0  0  0  0
 11 82  1  0  0  0  0
 11 83  1  0  0  0  0
 12 13  1  0  0  0  0
 12 84  1  0  0  0  0
 12 85  1  0  0  0  0
 13 14  1  0  0  0  0
 13 86  1  0  0  0  0
 13 87  1  0  0  0  0
 14 15  1  0  0  0  0
 14 88  1  0  0  0  0
 14 89  1  0  0  0  0
 15 16  1  0  0  0  0
 15 90  1  0  0  0  0
 15 91  1  0  0  0  0
 16 17  2  0  0  0  0
 16 18  1  0  0  0  0
 18 19  1  0  0  0  0
 19 92  1  0  0  0  0
 19 93  1  0  0  0  0
 20 19  1  0  0  0  0
 20 21  1  0  0  0  0
 20 49  1  0  0  0  0
 20 94  1  1  0  0  0
 21 22  1  0  0  0  0
 21 95  1  0  0  0  0
 21 96  1  0  0  0  0
 22 23  1  0  0  0  0
 23 24  2  0  0  0  0
 23 25  1  0  0  0  0
 25 26  1  0  0  0  0
 25 97  1  0  0  0  0
 25 98  1  0  0  0  0
 26 27  1  0  0  0  0
 26 99  1  0  0  0  0
 26100  1  0  0  0  0
 27 28  1  0  0  0  0
 27101  1  0  0  0  0
 27102  1  0  0  0  0
 28 29  1  0  0  0  0
 28103  1  0  0  0  0
 28104  1  0  0  0  0
 29 30  1  0  0  0  0
 29105  1  0  0  0  0
 29106  1  0  0  0  0
 30 31  1  0  0  0  0
 30107  1  0  0  0  0
 30108  1  0  0  0  0
 31 32  1  0  0  0  0
 31109  1  0  0  0  0
 31110  1  0  0  0  0
 32 33  1  0  0  0  0
 32111  1  0  0  0  0
 32112  1  0  0  0  0
 33 34  1  0  0  0  0
 34 35  1  0  0  0  0
 34113  1  0  0  0  0
 34114  1  0  0  0  0
 35 36  1  0  0  0  0
 35115  1  0  0  0  0
 35116  1  0  0  0  0
 36 37  1  0  0  0  0
 37 38  1  0  0  0  0
 37117  1  0  0  0  0
 37118  1  0  0  0  0
 38 39  1  0  0  0  0
 38119  1  0  0  0  0
 38120  1  0  0  0  0
 39 40  1  0  0  0  0
 39121  1  0  0  0  0
 39122  1  0  0  0  0
 40 41  1  0  0  0  0
 40123  1  0  0  0  0
 40124  1  0  0  0  0
 41 42  1  0  0  0  0
 41125  1  0  0  0  0
 41126  1  0  0  0  0
 42 43  1  0  0  0  0
 42127  1  0  0  0  0
 42128  1  0  0  0  0
 43 44  1  0  0  0  0
 43129  1  0  0  0  0
 43130  1  0  0  0  0
 44 45  1  0  0  0  0
 44131  1  0  0  0  0
 44132  1  0  0  0  0
 45 46  1  0  0  0  0
 45 47  1  0  0  0  0
 45133  1  0  0  0  0
 46134  1  0  0  0  0
 46135  1  0  0  0  0
 46136  1  0  0  0  0
 47 48  1  0  0  0  0
 47137  1  0  0  0  0
 47138  1  0  0  0  0
 48139  1  0  0  0  0
 48140  1  0  0  0  0
 48141  1  0  0  0  0
 49 50  1  0  0  0  0
 50 51  2  0  0  0  0
 50 52  1  0  0  0  0
 52 53  1  0  0  0  0
 52142  1  0  0  0  0
 52143  1  0  0  0  0
 53 54  1  0  0  0  0
 53144  1  0  0  0  0
 53145  1  0  0  0  0
 54 55  1  0  0  0  0
 54146  1  0  0  0  0
 54147  1  0  0  0  0
 55 56  1  0  0  0  0
 55148  1  0  0  0  0
 55149  1  0  0  0  0
 56 57  1  0  0  0  0
 56150  1  0  0  0  0
 56151  1  0  0  0  0
 57 58  1  0  0  0  0
 57152  1  0  0  0  0
 57153  1  0  0  0  0
 58 59  1  0  0  0  0
 58154  1  0  0  0  0
 58155  1  0  0  0  0
 59 60  1  0  0  0  0
 59156  1  0  0  0  0
 59157  1  0  0  0  0
 60 61  1  0  0  0  0
 60 62  1  0  0  0  0
 60158  1  0  0  0  0
 61159  1  0  0  0  0
 61160  1  0  0  0  0
 61161  1  0  0  0  0
 62162  1  0  0  0  0
 62163  1  0  0  0  0
 62164  1  0  0  0  0
M  END
>  <IDENTIFIER>
CNP0544330.2

>  <Energy>
12618.4

$$$$
