
 OpenBabel09122505473D

 70 75  0  0  0  0  0  0  0  0999 V2000
    2.9168    3.5682   -1.5471 C   0  0  0  0  0  0  0  0  0  0  0  0
    1.7261    3.9299   -1.0565 C   0  0  0  0  0  0  0  0  0  0  0  0
    0.5690    2.9544   -0.9730 C   0  0  2  0  0  0  0  0  0  0  0  0
   -0.7309    3.5999   -0.5267 C   0  0  0  0  0  0  0  0  0  0  0  0
   -1.8369    2.8291   -0.5344 C   0  0  0  0  0  0  0  0  0  0  0  0
   -1.6416    1.3819   -0.9260 C   0  0  2  0  0  0  0  0  0  0  0  0
   -2.8200    0.3906   -0.9209 C   0  0  2  0  0  0  0  0  0  0  0  0
   -4.1964    0.7853   -0.3254 C   0  0  0  0  0  0  0  0  0  0  0  0
   -5.1159   -0.4722   -0.0832 C   0  0  2  0  0  0  0  0  0  0  0  0
   -5.3095   -0.7707    1.4130 C   0  0  0  0  0  0  0  0  0  0  0  0
   -4.5981   -1.7190   -0.8618 C   0  0  0  0  0  0  0  0  0  0  0  0
   -3.0969   -2.0927   -0.5789 C   0  0  2  0  0  0  0  0  0  0  0  0
   -2.9394   -3.2017    0.4683 C   0  0  0  0  0  0  0  0  0  0  0  0
   -2.2934   -0.8244   -0.1795 C   0  0  1  0  0  0  0  0  0  0  0  0
   -0.7628   -0.7756   -0.3242 C   0  0  1  0  0  0  0  0  0  0  0  0
   -0.3643   -1.1986   -1.6183 O   0  0  0  0  0  0  0  0  0  0  0  0
    0.9255   -1.5919   -1.7443 C   0  0  0  0  0  0  0  0  0  0  0  0
    1.8331   -0.7162   -2.3392 C   0  0  0  0  0  0  0  0  0  0  0  0
    3.1626   -0.7535   -1.9242 C   0  0  0  0  0  0  0  0  0  0  0  0
    3.5580   -1.7086   -0.9709 C   0  0  0  0  0  0  0  0  0  0  0  0
    2.7203   -2.7973   -0.6606 C   0  0  0  0  0  0  0  0  0  0  0  0
    1.3787   -2.7169   -1.0304 C   0  0  0  0  0  0  0  0  0  0  0  0
    4.6414   -1.3143    0.0179 C   0  0  0  0  0  0  0  0  0  0  0  0
    3.9228   -1.1420    1.4396 C   0  0  1  0  0  0  0  0  0  0  0  0
    3.8896   -2.3922    2.0846 O   0  0  0  0  0  0  0  0  0  0  0  0
    4.5603   -0.1436    2.2886 N   0  0  0  0  0  0  0  0  0  0  0  0
    3.7973    0.9746    2.4188 C   0  0  0  0  0  0  0  0  0  0  0  0
    4.1938    1.9720    2.9964 O   0  0  0  0  0  0  0  0  0  0  0  0
    2.5696    0.8669    1.6044 C   0  0  0  0  0  0  0  0  0  0  0  0
    1.7878    1.8563    1.0686 C   0  0  0  0  0  0  0  0  0  0  0  0
    1.9726    3.1386    1.4694 O   0  0  0  0  0  0  0  0  0  0  0  0
    0.8301    1.6138   -0.1537 C   0  0  1  0  0  0  0  0  0  0  0  0
   -0.5417    0.7729   -0.0236 C   0  0  1  0  0  0  0  0  0  0  0  0
    2.4501   -0.5758    1.3551 C   0  0  2  0  0  0  0  0  0  0  0  0
    1.6544   -1.1218    2.3871 O   0  0  0  0  0  0  0  0  0  0  0  0
    3.7269    4.2882   -1.5919 H   0  0  0  0  0  0  0  0  0  0  0  0
    3.0945    2.5585   -1.9027 H   0  0  0  0  0  0  0  0  0  0  0  0
    1.5947    4.9519   -0.7128 H   0  0  0  0  0  0  0  0  0  0  0  0
    0.3952    2.6678   -2.0343 H   0  0  0  0  0  0  0  0  0  0  0  0
   -0.7841    4.6415   -0.2254 H   0  0  0  0  0  0  0  0  0  0  0  0
   -2.7987    3.2287   -0.2328 H   0  0  0  0  0  0  0  0  0  0  0  0
   -1.2593    1.3379   -1.9719 H   0  0  0  0  0  0  0  0  0  0  0  0
   -2.9767    0.1023   -1.9880 H   0  0  0  0  0  0  0  0  0  0  0  0
   -4.6691    1.4829   -1.0503 H   0  0  0  0  0  0  0  0  0  0  0  0
   -4.0785    1.3378    0.6323 H   0  0  0  0  0  0  0  0  0  0  0  0
   -6.1366   -0.2233   -0.4508 H   0  0  0  0  0  0  0  0  0  0  0  0
   -4.3642   -0.9862    1.9389 H   0  0  0  0  0  0  0  0  0  0  0  0
   -5.9944   -1.6362    1.5398 H   0  0  0  0  0  0  0  0  0  0  0  0
   -5.7736    0.1072    1.9111 H   0  0  0  0  0  0  0  0  0  0  0  0
   -4.6587   -1.4125   -1.9298 H   0  0  0  0  0  0  0  0  0  0  0  0
   -5.2673   -2.6023   -0.7774 H   0  0  0  0  0  0  0  0  0  0  0  0
   -2.7078   -2.5055   -1.5364 H   0  0  0  0  0  0  0  0  0  0  0  0
   -3.3262   -2.8964    1.4588 H   0  0  0  0  0  0  0  0  0  0  0  0
   -1.8679   -3.4724    0.5757 H   0  0  0  0  0  0  0  0  0  0  0  0
   -3.4930   -4.1076    0.1412 H   0  0  0  0  0  0  0  0  0  0  0  0
   -2.4765   -0.6213    0.9003 H   0  0  0  0  0  0  0  0  0  0  0  0
   -0.3187   -1.4291    0.4578 H   0  0  0  0  0  0  0  0  0  0  0  0
    1.4874    0.1396   -2.9070 H   0  0  0  0  0  0  0  0  0  0  0  0
    3.7927    0.0895   -2.1786 H   0  0  0  0  0  0  0  0  0  0  0  0
    2.9990   -3.5448    0.0698 H   0  0  0  0  0  0  0  0  0  0  0  0
    0.6771   -3.4105   -0.5836 H   0  0  0  0  0  0  0  0  0  0  0  0
    5.0424   -0.3219   -0.2859 H   0  0  0  0  0  0  0  0  0  0  0  0
    5.4959   -2.0219    0.0600 H   0  0  0  0  0  0  0  0  0  0  0  0
    4.8229   -2.6099    2.3450 H   0  0  0  0  0  0  0  0  0  0  0  0
    5.5139   -0.2322    2.6737 H   0  0  0  0  0  0  0  0  0  0  0  0
    2.5402    3.4193    2.1963 H   0  0  0  0  0  0  0  0  0  0  0  0
    1.4828    1.1080   -0.8533 H   0  0  0  0  0  0  0  0  0  0  0  0
   -0.8833    0.9608    1.0227 H   0  0  0  0  0  0  0  0  0  0  0  0
    1.8724   -0.7436    0.4654 H   0  0  0  0  0  0  0  0  0  0  0  0
    2.0901   -0.9528    3.2644 H   0  0  0  0  0  0  0  0  0  0  0  0
  1  2  2  0  0  0  0
  1 36  1  0  0  0  0
  1 37  1  0  0  0  0
  2 38  1  0  0  0  0
  3  2  1  0  0  0  0
  3  4  1  0  0  0  0
  3 39  1  6  0  0  0
  4  5  2  0  0  0  0
  4 40  1  0  0  0  0
  5 41  1  0  0  0  0
  6  5  1  0  0  0  0
  6  7  1  0  0  0  0
  6 42  1  6  0  0  0
  7  8  1  0  0  0  0
  7 43  1  6  0  0  0
  8  9  1  0  0  0  0
  8 44  1  0  0  0  0
  8 45  1  0  0  0  0
  9 10  1  0  0  0  0
  9 11  1  0  0  0  0
  9 46  1  6  0  0  0
 10 47  1  0  0  0  0
 10 48  1  0  0  0  0
 10 49  1  0  0  0  0
 11 12  1  0  0  0  0
 11 50  1  0  0  0  0
 11 51  1  0  0  0  0
 12 13  1  0  0  0  0
 12 52  1  6  0  0  0
 13 53  1  0  0  0  0
 13 54  1  0  0  0  0
 13 55  1  0  0  0  0
 14 12  1  0  0  0  0
 14 15  1  0  0  0  0
 14  7  1  0  0  0  0
 14 56  1  1  0  0  0
 15 16  1  0  0  0  0
 15 57  1  1  0  0  0
 16 17  1  0  0  0  0
 17 18  2  0  0  0  0
 18 19  1  0  0  0  0
 18 58  1  0  0  0  0
 19 20  2  0  0  0  0
 19 59  1  0  0  0  0
 20 21  1  0  0  0  0
 20 23  1  0  0  0  0
 21 22  2  0  0  0  0
 21 60  1  0  0  0  0
 22 17  1  0  0  0  0
 22 61  1  0  0  0  0
 23 24  1  0  0  0  0
 23 62  1  0  0  0  0
 23 63  1  0  0  0  0
 24 25  1  1  0  0  0
 24 26  1  0  0  0  0
 25 64  1  0  0  0  0
 26 27  1  0  0  0  0
 26 65  1  0  0  0  0
 27 28  2  0  0  0  0
 27 29  1  0  0  0  0
 29 30  2  0  0  0  0
 29 34  1  0  0  0  0
 30 31  1  0  0  0  0
 31 66  1  0  0  0  0
 32 30  1  0  0  0  0
 32 33  1  0  0  0  0
 32  3  1  0  0  0  0
 32 67  1  6  0  0  0
 33  6  1  0  0  0  0
 33 15  1  0  0  0  0
 33 68  1  1  0  0  0
 34 35  1  0  0  0  0
 34 24  1  0  0  0  0
 34 69  1  6  0  0  0
 35 70  1  0  0  0  0
M  END
>  <IDENTIFIER>
CNP0579625.1

>  <Energy>
1613.16

$$$$
