
 OpenBabel09062517033D

174184  0  0  0  0  0  0  0  0999 V2000
    5.4410    3.3403   -4.7622 C   0  0  0  0  0  0  0  0  0  0  0  0
    5.4909    1.9627   -4.8442 O   0  0  0  0  0  0  0  0  0  0  0  0
    5.0892    1.0868   -3.8851 C   0  0  0  0  0  0  0  0  0  0  0  0
    4.6500    1.5027   -2.6198 C   0  0  0  0  0  0  0  0  0  0  0  0
    4.1925    0.6021   -1.6195 C   0  0  0  0  0  0  0  0  0  0  0  0
    3.7002    1.2556   -0.3228 C   0  0  0  0  0  0  0  0  0  0  0  0
    2.7246    0.6700    0.4195 C   0  0  0  0  0  0  0  0  0  0  0  0
    1.9850    1.1844    1.6170 C   0  0  0  0  0  0  0  0  0  0  0  0
    2.1202    2.3203    2.0366 O   0  0  0  0  0  0  0  0  0  0  0  0
    0.9474    0.3154    2.2711 C   0  0  0  0  0  0  0  0  0  0  0  0
   -0.0074   -0.2564    1.2585 C   0  0  0  0  0  0  0  0  0  0  0  0
   -0.0844   -1.4747    1.1721 O   0  0  0  0  0  0  0  0  0  0  0  0
   -0.8163    0.6397    0.3289 C   0  0  0  0  0  0  0  0  0  0  0  0
   -1.7451   -0.1705   -0.6129 C   0  0  2  0  0  0  0  0  0  0  0  0
   -2.3386    0.6768   -1.7732 C   0  0  0  0  0  0  0  0  0  0  0  0
   -3.5540   -0.0476   -2.3531 C   0  0  0  0  0  0  0  0  0  0  0  0
   -4.7540   -0.1343   -1.3325 C   0  0  2  0  0  0  0  0  0  0  0  0
   -5.6993    1.1436   -1.2078 C   0  0  0  0  0  0  0  0  0  0  0  0
   -7.1544    0.7601   -1.5944 C   0  0  0  0  0  0  0  0  0  0  0  0
   -7.8646    2.0901   -1.7208 C   0  0  0  0  0  0  0  0  0  0  0  0
   -6.8389    3.0069   -2.3949 C   0  0  0  0  0  0  0  0  0  0  0  0
   -5.4884    2.2700   -2.2543 C   0  0  0  0  0  0  0  0  0  0  0  0
   -5.5861    1.6144    0.3009 C   0  0  2  0  0  0  0  0  0  0  0  0
   -5.5421    3.0819    0.5271 N   0  0  0  0  0  0  0  0  0  0  0  0
   -5.2708    3.5366    1.9092 C   0  0  0  0  0  0  0  0  0  0  0  0
   -6.3794    3.3072    2.9849 C   0  0  2  0  0  0  0  0  0  0  0  0
   -6.6965    1.9445    3.1291 O   0  0  0  0  0  0  0  0  0  0  0  0
   -7.6452    4.2425    3.0012 C   0  0  0  0  0  0  0  0  0  0  0  0
   -7.2698    5.7533    3.1746 C   0  0  0  0  0  0  0  0  0  0  0  0
   -7.3931    6.4932    1.8469 C   0  0  0  0  0  0  0  0  0  0  0  0
   -8.8677    6.4827    1.3694 C   0  0  0  0  0  0  0  0  0  0  0  0
   -9.6414    5.2042    1.7872 C   0  0  0  0  0  0  0  0  0  0  0  0
   -8.6891    4.0154    1.8557 C   0  0  0  0  0  0  0  0  0  0  0  0
   -4.2990    0.9454    0.7808 C   0  0  0  0  0  0  0  0  0  0  0  0
   -4.2687   -0.4498    0.1223 C   0  0  1  0  0  0  0  0  0  0  0  0
   -5.2275   -1.3916    0.9687 C   0  0  0  0  0  0  0  0  0  0  0  0
   -5.6731   -2.8975    0.7578 C   0  0  1  0  0  0  0  0  0  0  0  0
   -6.6397   -3.1432   -0.4450 C   0  0  2  0  0  0  0  0  0  0  0  0
   -7.9121   -3.9214   -0.0799 C   0  0  0  0  0  0  0  0  0  0  0  0
   -8.9324   -3.7201   -1.2387 C   0  0  0  0  0  0  0  0  0  0  0  0
   -8.3114   -3.6675   -2.5871 N   0  0  0  0  0  0  0  0  0  0  0  0
   -7.0750   -4.4476   -2.6359 C   0  0  0  0  0  0  0  0  0  0  0  0
   -5.9843   -3.8540   -1.6871 C   0  0  2  0  0  0  0  0  0  0  0  0
   -5.0433   -5.0238   -1.3024 C   0  0  0  0  0  0  0  0  0  0  0  0
   -3.9761   -4.5729   -0.3067 C   0  0  2  0  0  0  0  0  0  0  0  0
   -3.0313   -5.7040    0.0292 C   0  0  0  0  0  0  0  0  0  0  0  0
   -2.6592   -5.9738    1.2919 C   0  0  0  0  0  0  0  0  0  0  0  0
   -3.0978   -5.1285    2.4709 C   0  0  0  0  0  0  0  0  0  0  0  0
   -3.7510   -3.8684    2.0706 N   0  0  0  0  0  0  0  0  0  0  0  0
   -4.6998   -4.0922    0.9762 C   0  0  1  0  0  0  0  0  0  0  0  0
   -2.8273   -0.9942    0.1578 C   0  0  0  0  0  0  0  0  0  0  0  0
    4.2792    2.6186    0.0730 C   0  0  0  0  0  0  0  0  0  0  0  0
    5.6782    2.5462    0.1152 O   0  0  0  0  0  0  0  0  0  0  0  0
    4.2150   -0.8131   -1.9515 C   0  0  0  0  0  0  0  0  0  0  0  0
    3.8184   -2.0034   -1.0592 C   0  0  0  0  0  0  0  0  0  0  0  0
    4.6265   -2.1739    0.2227 C   0  0  0  0  0  0  0  0  0  0  0  0
    3.9412   -2.1593    1.4520 C   0  0  0  0  0  0  0  0  0  0  0  0
    4.6005   -2.3322    2.6239 N   0  0  0  0  0  0  0  0  0  0  0  0
    5.9408   -2.5401    2.6698 C   0  0  0  0  0  0  0  0  0  0  0  0
    6.5828   -2.7260    3.9163 N   0  0  0  0  0  0  0  0  0  0  0  0
    6.6731   -2.5807    1.4840 C   0  0  0  0  0  0  0  0  0  0  0  0
    6.0341   -2.3953    0.2446 C   0  0  0  0  0  0  0  0  0  0  0  0
    6.8880   -2.4685   -1.0079 C   0  0  0  0  0  0  0  0  0  0  0  0
    7.6579   -1.1575   -1.2520 C   0  0  0  0  0  0  0  0  0  0  0  0
    8.6904   -0.8915   -0.1912 C   0  0  0  0  0  0  0  0  0  0  0  0
    8.3904   -0.0690    0.9057 C   0  0  0  0  0  0  0  0  0  0  0  0
    9.3398    0.1461    1.9061 C   0  0  0  0  0  0  0  0  0  0  0  0
   10.6029   -0.4422    1.8118 C   0  0  0  0  0  0  0  0  0  0  0  0
   10.9264   -1.2464    0.7076 C   0  0  0  0  0  0  0  0  0  0  0  0
   12.3147   -1.8127    0.5412 C   0  0  0  0  0  0  0  0  0  0  0  0
   13.1291   -0.8741   -0.3658 C   0  0  0  0  0  0  0  0  0  0  0  0
   13.3752    0.4407    0.3373 C   0  0  0  0  0  0  0  0  0  0  0  0
   14.2889    0.5018    1.4040 C   0  0  0  0  0  0  0  0  0  0  0  0
   14.5066    1.7053    2.0798 C   0  0  0  0  0  0  0  0  0  0  0  0
   13.8034    2.8534    1.7074 C   0  0  0  0  0  0  0  0  0  0  0  0
   12.8890    2.8016    0.6513 C   0  0  0  0  0  0  0  0  0  0  0  0
   12.6799    1.6026   -0.0393 C   0  0  0  0  0  0  0  0  0  0  0  0
    9.9622   -1.4717   -0.2880 C   0  0  0  0  0  0  0  0  0  0  0  0
    4.6638   -1.1912   -3.2395 C   0  0  0  0  0  0  0  0  0  0  0  0
    5.0956   -0.2659   -4.1845 C   0  0  0  0  0  0  0  0  0  0  0  0
    5.5207   -0.6753   -5.3990 O   0  0  0  0  0  0  0  0  0  0  0  0
    5.8241    3.7748   -5.7077 H   0  0  0  0  0  0  0  0  0  0  0  0
    6.0720    3.7039   -3.9237 H   0  0  0  0  0  0  0  0  0  0  0  0
    4.3898    3.6746   -4.6229 H   0  0  0  0  0  0  0  0  0  0  0  0
    4.6478    2.5603   -2.4474 H   0  0  0  0  0  0  0  0  0  0  0  0
    2.3340   -0.2544    0.0796 H   0  0  0  0  0  0  0  0  0  0  0  0
    0.3841    0.8961    3.0339 H   0  0  0  0  0  0  0  0  0  0  0  0
    1.4635   -0.5187    2.7933 H   0  0  0  0  0  0  0  0  0  0  0  0
   -0.0978    1.2193   -0.2891 H   0  0  0  0  0  0  0  0  0  0  0  0
   -1.4003    1.3569    0.9364 H   0  0  0  0  0  0  0  0  0  0  0  0
   -1.0870   -0.9292   -1.0987 H   0  0  0  0  0  0  0  0  0  0  0  0
   -1.5464    0.8226   -2.5402 H   0  0  0  0  0  0  0  0  0  0  0  0
   -2.6502    1.6939   -1.4760 H   0  0  0  0  0  0  0  0  0  0  0  0
   -3.2114   -1.0788   -2.5960 H   0  0  0  0  0  0  0  0  0  0  0  0
   -3.8568    0.3706   -3.3287 H   0  0  0  0  0  0  0  0  0  0  0  0
   -5.3380   -0.9721   -1.7452 H   0  0  0  0  0  0  0  0  0  0  0  0
   -7.6575    0.0653   -0.8904 H   0  0  0  0  0  0  0  0  0  0  0  0
   -7.1537    0.2846   -2.6035 H   0  0  0  0  0  0  0  0  0  0  0  0
   -8.0266    2.4291   -0.6840 H   0  0  0  0  0  0  0  0  0  0  0  0
   -8.8617    2.0685   -2.2089 H   0  0  0  0  0  0  0  0  0  0  0  0
   -6.8745    4.0123   -1.9270 H   0  0  0  0  0  0  0  0  0  0  0  0
   -7.0552    3.1409   -3.4786 H   0  0  0  0  0  0  0  0  0  0  0  0
   -4.5964    2.9202   -2.1430 H   0  0  0  0  0  0  0  0  0  0  0  0
   -5.3925    1.7717   -3.2403 H   0  0  0  0  0  0  0  0  0  0  0  0
   -6.4344    1.1779    0.8445 H   0  0  0  0  0  0  0  0  0  0  0  0
   -6.3550    3.5846    0.1462 H   0  0  0  0  0  0  0  0  0  0  0  0
   -5.0195    4.6160    1.8818 H   0  0  0  0  0  0  0  0  0  0  0  0
   -4.3387    3.0605    2.2712 H   0  0  0  0  0  0  0  0  0  0  0  0
   -5.8711    3.5786    3.9371 H   0  0  0  0  0  0  0  0  0  0  0  0
   -7.5373    1.7569    2.6437 H   0  0  0  0  0  0  0  0  0  0  0  0
   -8.1603    3.9861    3.9554 H   0  0  0  0  0  0  0  0  0  0  0  0
   -6.2675    5.8670    3.6399 H   0  0  0  0  0  0  0  0  0  0  0  0
   -7.9934    6.2437    3.8643 H   0  0  0  0  0  0  0  0  0  0  0  0
   -6.7558    5.9576    1.1120 H   0  0  0  0  0  0  0  0  0  0  0  0
   -7.0306    7.5416    1.9035 H   0  0  0  0  0  0  0  0  0  0  0  0
   -8.8405    6.5969    0.2639 H   0  0  0  0  0  0  0  0  0  0  0  0
   -9.4336    7.3448    1.7841 H   0  0  0  0  0  0  0  0  0  0  0  0
  -10.4869    5.0415    1.0846 H   0  0  0  0  0  0  0  0  0  0  0  0
  -10.0687    5.3292    2.8066 H   0  0  0  0  0  0  0  0  0  0  0  0
   -8.2293    3.9770    0.8655 H   0  0  0  0  0  0  0  0  0  0  0  0
   -9.2419    3.0668    2.0187 H   0  0  0  0  0  0  0  0  0  0  0  0
   -4.1747    0.9039    1.8838 H   0  0  0  0  0  0  0  0  0  0  0  0
   -3.4962    1.5886    0.4073 H   0  0  0  0  0  0  0  0  0  0  0  0
   -6.2018   -0.8755    1.0370 H   0  0  0  0  0  0  0  0  0  0  0  0
   -4.8108   -1.3669    2.0015 H   0  0  0  0  0  0  0  0  0  0  0  0
   -6.3238   -2.9637    1.6631 H   0  0  0  0  0  0  0  0  0  0  0  0
   -7.0379   -2.1491   -0.7332 H   0  0  0  0  0  0  0  0  0  0  0  0
   -8.3908   -3.5671    0.8590 H   0  0  0  0  0  0  0  0  0  0  0  0
   -7.6510   -4.9925    0.0584 H   0  0  0  0  0  0  0  0  0  0  0  0
   -9.4516   -2.7475   -1.0815 H   0  0  0  0  0  0  0  0  0  0  0  0
   -9.7091   -4.5119   -1.1856 H   0  0  0  0  0  0  0  0  0  0  0  0
   -8.0768   -2.6768   -2.8366 H   0  0  0  0  0  0  0  0  0  0  0  0
   -6.6837   -4.5369   -3.6714 H   0  0  0  0  0  0  0  0  0  0  0  0
   -7.3525   -5.4797   -2.3193 H   0  0  0  0  0  0  0  0  0  0  0  0
   -5.3855   -3.0883   -2.2173 H   0  0  0  0  0  0  0  0  0  0  0  0
   -4.5574   -5.4165   -2.2233 H   0  0  0  0  0  0  0  0  0  0  0  0
   -5.6240   -5.8568   -0.8460 H   0  0  0  0  0  0  0  0  0  0  0  0
   -3.3746   -3.8192   -0.8189 H   0  0  0  0  0  0  0  0  0  0  0  0
   -2.6332   -6.3151   -0.7757 H   0  0  0  0  0  0  0  0  0  0  0  0
   -2.0113   -6.8242    1.4801 H   0  0  0  0  0  0  0  0  0  0  0  0
   -2.1984   -4.8700    3.0720 H   0  0  0  0  0  0  0  0  0  0  0  0
   -3.7731   -5.7285    3.1163 H   0  0  0  0  0  0  0  0  0  0  0  0
   -3.0076   -3.2193    1.7390 H   0  0  0  0  0  0  0  0  0  0  0  0
   -5.3571   -4.9420    1.2862 H   0  0  0  0  0  0  0  0  0  0  0  0
   -2.8814   -1.9420   -0.3658 H   0  0  0  0  0  0  0  0  0  0  0  0
   -2.5042   -1.1940    1.1959 H   0  0  0  0  0  0  0  0  0  0  0  0
    3.9390    3.0459    1.0238 H   0  0  0  0  0  0  0  0  0  0  0  0
    3.9816    3.3989   -0.6558 H   0  0  0  0  0  0  0  0  0  0  0  0
    5.9106    2.1572    0.9991 H   0  0  0  0  0  0  0  0  0  0  0  0
    3.9393   -2.9630   -1.6055 H   0  0  0  0  0  0  0  0  0  0  0  0
    2.7311   -1.9879   -0.8687 H   0  0  0  0  0  0  0  0  0  0  0  0
    2.8699   -2.0211    1.4830 H   0  0  0  0  0  0  0  0  0  0  0  0
    6.0381   -2.6992    4.7904 H   0  0  0  0  0  0  0  0  0  0  0  0
    7.5989   -2.8916    3.9679 H   0  0  0  0  0  0  0  0  0  0  0  0
    7.7390   -2.7681    1.5287 H   0  0  0  0  0  0  0  0  0  0  0  0
    6.2559   -2.6527   -1.8865 H   0  0  0  0  0  0  0  0  0  0  0  0
    7.5689   -3.3467   -0.9644 H   0  0  0  0  0  0  0  0  0  0  0  0
    6.9317   -0.3186   -1.2967 H   0  0  0  0  0  0  0  0  0  0  0  0
    8.1585   -1.1901   -2.2444 H   0  0  0  0  0  0  0  0  0  0  0  0
    7.4138    0.3847    0.9933 H   0  0  0  0  0  0  0  0  0  0  0  0
    9.0963    0.7748    2.7523 H   0  0  0  0  0  0  0  0  0  0  0  0
   11.3370   -0.2503    2.5849 H   0  0  0  0  0  0  0  0  0  0  0  0
   12.2425   -2.8249    0.0870 H   0  0  0  0  0  0  0  0  0  0  0  0
   12.8247   -1.9303    1.5221 H   0  0  0  0  0  0  0  0  0  0  0  0
   12.5619   -0.7229   -1.3114 H   0  0  0  0  0  0  0  0  0  0  0  0
   14.1076   -1.3249   -0.6368 H   0  0  0  0  0  0  0  0  0  0  0  0
   14.8361   -0.3825    1.7067 H   0  0  0  0  0  0  0  0  0  0  0  0
   15.2169    1.7457    2.8956 H   0  0  0  0  0  0  0  0  0  0  0  0
   13.9659    3.7819    2.2392 H   0  0  0  0  0  0  0  0  0  0  0  0
   12.3388    3.6905    0.3711 H   0  0  0  0  0  0  0  0  0  0  0  0
   11.9597    1.5750   -0.8473 H   0  0  0  0  0  0  0  0  0  0  0  0
   10.2051   -2.0918   -1.1433 H   0  0  0  0  0  0  0  0  0  0  0  0
    4.6871   -2.2354   -3.5283 H   0  0  0  0  0  0  0  0  0  0  0  0
    5.5509   -1.6098   -5.6492 H   0  0  0  0  0  0  0  0  0  0  0  0
  1  2  1  0  0  0  0
  1 82  1  0  0  0  0
  1 83  1  0  0  0  0
  1 84  1  0  0  0  0
  2  3  1  0  0  0  0
  3  4  2  0  0  0  0
  4  5  1  0  0  0  0
  4 85  1  0  0  0  0
  5  6  1  0  0  0  0
  5 54  2  0  0  0  0
  6  7  2  0  0  0  0
  6 52  1  0  0  0  0
  7  8  1  0  0  0  0
  7 86  1  0  0  0  0
  8  9  2  0  0  0  0
  8 10  1  0  0  0  0
 10 11  1  0  0  0  0
 10 87  1  0  0  0  0
 10 88  1  0  0  0  0
 11 12  2  0  0  0  0
 11 13  1  0  0  0  0
 13 89  1  0  0  0  0
 13 90  1  0  0  0  0
 14 13  1  0  0  0  0
 14 15  1  0  0  0  0
 14 91  1  6  0  0  0
 15 16  1  0  0  0  0
 15 92  1  0  0  0  0
 15 93  1  0  0  0  0
 16 94  1  0  0  0  0
 16 95  1  0  0  0  0
 17 16  1  0  0  0  0
 17 18  1  0  0  0  0
 17 96  1  6  0  0  0
 18 19  1  0  0  0  0
 18 23  1  0  0  0  0
 19 20  1  0  0  0  0
 19 97  1  0  0  0  0
 19 98  1  0  0  0  0
 20 21  1  0  0  0  0
 20 99  1  0  0  0  0
 20100  1  0  0  0  0
 21 22  1  0  0  0  0
 21101  1  0  0  0  0
 21102  1  0  0  0  0
 22 18  1  0  0  0  0
 22103  1  0  0  0  0
 22104  1  0  0  0  0
 23 24  1  0  0  0  0
 23 34  1  0  0  0  0
 23105  1  1  0  0  0
 24 25  1  0  0  0  0
 24106  1  0  0  0  0
 25 26  1  0  0  0  0
 25107  1  0  0  0  0
 25108  1  0  0  0  0
 26 27  1  0  0  0  0
 26 28  1  0  0  0  0
 26109  1  1  0  0  0
 27110  1  0  0  0  0
 28 29  1  0  0  0  0
 28111  1  0  0  0  0
 29 30  1  0  0  0  0
 29112  1  0  0  0  0
 29113  1  0  0  0  0
 30 31  1  0  0  0  0
 30114  1  0  0  0  0
 30115  1  0  0  0  0
 31 32  1  0  0  0  0
 31116  1  0  0  0  0
 31117  1  0  0  0  0
 32 33  1  0  0  0  0
 32118  1  0  0  0  0
 32119  1  0  0  0  0
 33 28  1  0  0  0  0
 33120  1  0  0  0  0
 33121  1  0  0  0  0
 34 35  1  0  0  0  0
 34122  1  0  0  0  0
 34123  1  0  0  0  0
 35 36  1  1  0  0  0
 35 51  1  0  0  0  0
 35 17  1  0  0  0  0
 36124  1  0  0  0  0
 36125  1  0  0  0  0
 37 36  1  0  0  0  0
 37 38  1  0  0  0  0
 37126  1  1  0  0  0
 38 39  1  0  0  0  0
 38127  1  6  0  0  0
 39 40  1  0  0  0  0
 39128  1  0  0  0  0
 39129  1  0  0  0  0
 40 41  1  0  0  0  0
 40130  1  0  0  0  0
 40131  1  0  0  0  0
 41 42  1  0  0  0  0
 41132  1  0  0  0  0
 42133  1  0  0  0  0
 42134  1  0  0  0  0
 43 42  1  0  0  0  0
 43 44  1  0  0  0  0
 43 38  1  0  0  0  0
 43135  1  6  0  0  0
 44136  1  0  0  0  0
 44137  1  0  0  0  0
 45 44  1  0  0  0  0
 45 46  1  0  0  0  0
 45138  1  6  0  0  0
 46 47  2  0  0  0  0
 46139  1  0  0  0  0
 47 48  1  0  0  0  0
 47140  1  0  0  0  0
 48 49  1  0  0  0  0
 48141  1  0  0  0  0
 48142  1  0  0  0  0
 49143  1  0  0  0  0
 50 49  1  0  0  0  0
 50 37  1  0  0  0  0
 50 45  1  0  0  0  0
 50144  1  1  0  0  0
 51 14  1  0  0  0  0
 51145  1  0  0  0  0
 51146  1  0  0  0  0
 52 53  1  0  0  0  0
 52147  1  0  0  0  0
 52148  1  0  0  0  0
 53149  1  0  0  0  0
 54 55  1  0  0  0  0
 54 79  1  0  0  0  0
 55 56  1  0  0  0  0
 55150  1  0  0  0  0
 55151  1  0  0  0  0
 56 57  2  0  0  0  0
 57 58  1  0  0  0  0
 57152  1  0  0  0  0
 58 59  2  0  0  0  0
 59 60  1  0  0  0  0
 59 61  1  0  0  0  0
 60153  1  0  0  0  0
 60154  1  0  0  0  0
 61 62  2  0  0  0  0
 61155  1  0  0  0  0
 62 63  1  0  0  0  0
 62 56  1  0  0  0  0
 63 64  1  0  0  0  0
 63156  1  0  0  0  0
 63157  1  0  0  0  0
 64 65  1  0  0  0  0
 64158  1  0  0  0  0
 64159  1  0  0  0  0
 65 66  2  0  0  0  0
 66 67  1  0  0  0  0
 66160  1  0  0  0  0
 67 68  2  0  0  0  0
 67161  1  0  0  0  0
 68 69  1  0  0  0  0
 68162  1  0  0  0  0
 69 70  1  0  0  0  0
 69 78  2  0  0  0  0
 70 71  1  0  0  0  0
 70163  1  0  0  0  0
 70164  1  0  0  0  0
 71 72  1  0  0  0  0
 71165  1  0  0  0  0
 71166  1  0  0  0  0
 72 73  2  0  0  0  0
 73 74  1  0  0  0  0
 73167  1  0  0  0  0
 74 75  2  0  0  0  0
 74168  1  0  0  0  0
 75 76  1  0  0  0  0
 75169  1  0  0  0  0
 76 77  2  0  0  0  0
 76170  1  0  0  0  0
 77 72  1  0  0  0  0
 77171  1  0  0  0  0
 78 65  1  0  0  0  0
 78172  1  0  0  0  0
 79 80  2  0  0  0  0
 79173  1  0  0  0  0
 80 81  1  0  0  0  0
 80  3  1  0  0  0  0
 81174  1  0  0  0  0
M  END
>  <IDENTIFIER>
CNP0530088.1

>  <Energy>
2173.43

$$$$
