
 OpenBabel09082507353D

 57 59  0  0  0  0  0  0  0  0999 V2000
    4.3807    1.2882   -0.8777 C   0  0  0  0  0  0  0  0  0  0  0  0
    3.8003    0.9988    0.2914 C   0  0  0  0  0  0  0  0  0  0  0  0
    3.8492   -0.3874    0.8833 C   0  0  2  0  0  0  0  0  0  0  0  0
    5.2445   -0.8811    1.2956 C   0  0  0  0  0  0  0  0  0  0  0  0
    3.2675   -1.3165   -0.0171 O   0  0  0  0  0  0  0  0  0  0  0  0
    2.5611   -1.1206    1.1825 C   0  0  1  0  0  0  0  0  0  0  0  0
    2.5712   -2.3347    2.1210 C   0  0  0  0  0  0  0  0  0  0  0  0
    1.2122   -0.3503    1.0411 C   0  0  0  0  0  0  0  0  0  0  0  0
    0.7245   -0.0213   -0.4170 C   0  0  1  0  0  0  0  0  0  0  0  0
    0.5738   -1.2864   -1.2497 C   0  0  0  0  0  0  0  0  0  0  0  0
    1.4558   -1.5901   -2.2157 C   0  0  0  0  0  0  0  0  0  0  0  0
   -0.6300   -2.1800   -1.0545 C   0  0  0  0  0  0  0  0  0  0  0  0
   -1.6668   -1.5726   -0.0963 C   0  0  0  0  0  0  0  0  0  0  0  0
   -1.9495   -0.0972   -0.4837 C   0  0  1  0  0  0  0  0  0  0  0  0
   -3.2124    0.5242    0.2697 C   0  0  2  0  0  0  0  0  0  0  0  0
   -3.2411    0.2503    1.8005 C   0  0  0  0  0  0  0  0  0  0  0  0
   -4.5340   -0.0912   -0.2945 C   0  0  0  0  0  0  0  0  0  0  0  0
   -4.6565    0.0955   -1.6825 O   0  0  0  0  0  0  0  0  0  0  0  0
   -3.2261    2.0466    0.0058 C   0  0  0  0  0  0  0  0  0  0  0  0
   -1.9660    2.7854    0.5121 C   0  0  0  0  0  0  0  0  0  0  0  0
   -0.6865    1.9192    0.5466 C   0  0  0  0  0  0  0  0  0  0  0  0
   -0.6222    0.8213   -0.5409 C   0  0  1  0  0  0  0  0  0  0  0  0
   -0.5469    1.5351   -1.9285 C   0  0  0  0  0  0  0  0  0  0  0  0
    4.3246    2.2955   -1.2769 H   0  0  0  0  0  0  0  0  0  0  0  0
    4.9078    0.5270   -1.4447 H   0  0  0  0  0  0  0  0  0  0  0  0
    3.2780    1.7839    0.8287 H   0  0  0  0  0  0  0  0  0  0  0  0
    5.9413   -0.7931    0.4354 H   0  0  0  0  0  0  0  0  0  0  0  0
    5.2783   -1.9323    1.6281 H   0  0  0  0  0  0  0  0  0  0  0  0
    5.6257   -0.2428    2.1195 H   0  0  0  0  0  0  0  0  0  0  0  0
    1.7219   -3.0004    1.8604 H   0  0  0  0  0  0  0  0  0  0  0  0
    2.4440   -1.9903    3.1684 H   0  0  0  0  0  0  0  0  0  0  0  0
    3.4831   -2.9532    2.0481 H   0  0  0  0  0  0  0  0  0  0  0  0
    1.3473    0.5828    1.6231 H   0  0  0  0  0  0  0  0  0  0  0  0
    0.4539   -0.9143    1.5983 H   0  0  0  0  0  0  0  0  0  0  0  0
    1.5477    0.6003   -0.8194 H   0  0  0  0  0  0  0  0  0  0  0  0
    2.3135   -0.9553   -2.4146 H   0  0  0  0  0  0  0  0  0  0  0  0
    1.3262   -2.4792   -2.8256 H   0  0  0  0  0  0  0  0  0  0  0  0
   -0.3317   -3.1979   -0.7234 H   0  0  0  0  0  0  0  0  0  0  0  0
   -1.1273   -2.2704   -2.0461 H   0  0  0  0  0  0  0  0  0  0  0  0
   -1.3431   -1.6422    0.9515 H   0  0  0  0  0  0  0  0  0  0  0  0
   -2.5828   -2.1936   -0.1669 H   0  0  0  0  0  0  0  0  0  0  0  0
   -2.2563   -0.1816   -1.5493 H   0  0  0  0  0  0  0  0  0  0  0  0
   -3.3017   -0.8394    2.0038 H   0  0  0  0  0  0  0  0  0  0  0  0
   -4.1443    0.7163    2.2510 H   0  0  0  0  0  0  0  0  0  0  0  0
   -2.3826    0.6379    2.3646 H   0  0  0  0  0  0  0  0  0  0  0  0
   -5.4205    0.3444    0.2259 H   0  0  0  0  0  0  0  0  0  0  0  0
   -4.5861   -1.1804   -0.0925 H   0  0  0  0  0  0  0  0  0  0  0  0
   -5.1946    0.9178   -1.8236 H   0  0  0  0  0  0  0  0  0  0  0  0
   -4.1327    2.5517    0.4054 H   0  0  0  0  0  0  0  0  0  0  0  0
   -3.2800    2.1746   -1.0928 H   0  0  0  0  0  0  0  0  0  0  0  0
   -2.1199    3.1615    1.5474 H   0  0  0  0  0  0  0  0  0  0  0  0
   -1.8308    3.6767   -0.1379 H   0  0  0  0  0  0  0  0  0  0  0  0
   -0.6737    1.4024    1.5165 H   0  0  0  0  0  0  0  0  0  0  0  0
    0.2098    2.5773    0.5532 H   0  0  0  0  0  0  0  0  0  0  0  0
    0.3481    2.1923   -1.9827 H   0  0  0  0  0  0  0  0  0  0  0  0
   -1.4194    2.1739   -2.1458 H   0  0  0  0  0  0  0  0  0  0  0  0
   -0.4723    0.7926   -2.7514 H   0  0  0  0  0  0  0  0  0  0  0  0
  1  2  2  0  0  0  0
  1 24  1  0  0  0  0
  1 25  1  0  0  0  0
  2 26  1  0  0  0  0
  3  2  1  6  0  0  0
  3  4  1  0  0  0  0
  3  5  1  0  0  0  0
  4 27  1  0  0  0  0
  4 28  1  0  0  0  0
  4 29  1  0  0  0  0
  5  6  1  0  0  0  0
  6  7  1  1  0  0  0
  6  8  1  0  0  0  0
  6  3  1  0  0  0  0
  7 30  1  0  0  0  0
  7 31  1  0  0  0  0
  7 32  1  0  0  0  0
  8 33  1  0  0  0  0
  8 34  1  0  0  0  0
  9  8  1  0  0  0  0
  9 10  1  0  0  0  0
  9 35  1  6  0  0  0
 10 11  2  0  0  0  0
 10 12  1  0  0  0  0
 11 36  1  0  0  0  0
 11 37  1  0  0  0  0
 12 13  1  0  0  0  0
 12 38  1  0  0  0  0
 12 39  1  0  0  0  0
 13 40  1  0  0  0  0
 13 41  1  0  0  0  0
 14 13  1  0  0  0  0
 14 15  1  0  0  0  0
 14 42  1  6  0  0  0
 15 16  1  1  0  0  0
 15 17  1  0  0  0  0
 15 19  1  0  0  0  0
 16 43  1  0  0  0  0
 16 44  1  0  0  0  0
 16 45  1  0  0  0  0
 17 18  1  0  0  0  0
 17 46  1  0  0  0  0
 17 47  1  0  0  0  0
 18 48  1  0  0  0  0
 19 20  1  0  0  0  0
 19 49  1  0  0  0  0
 19 50  1  0  0  0  0
 20 21  1  0  0  0  0
 20 51  1  0  0  0  0
 20 52  1  0  0  0  0
 21 22  1  0  0  0  0
 21 53  1  0  0  0  0
 21 54  1  0  0  0  0
 22 23  1  6  0  0  0
 22  9  1  0  0  0  0
 22 14  1  0  0  0  0
 23 55  1  0  0  0  0
 23 56  1  0  0  0  0
 23 57  1  0  0  0  0
M  END
>  <IDENTIFIER>
CNP0159537.0

>  <Energy>
2085.25

$$$$
