
 OpenBabel09072501533D

112111  0  0  0  0  0  0  0  0999 V2000
   14.7618   -1.0647   -1.7984 C   0  0  0  0  0  0  0  0  0  0  0  0
   15.1982    0.0275   -0.8262 C   0  0  0  0  0  0  0  0  0  0  0  0
   14.2406    1.2275   -0.8796 C   0  0  0  0  0  0  0  0  0  0  0  0
   14.6649    2.3846    0.0482 C   0  0  0  0  0  0  0  0  0  0  0  0
   14.6958    2.0196    1.5415 C   0  0  0  0  0  0  0  0  0  0  0  0
   13.3406    1.5676    2.0120 C   0  0  0  0  0  0  0  0  0  0  0  0
   13.1401    0.3335    2.4981 C   0  0  0  0  0  0  0  0  0  0  0  0
   11.7799   -0.1298    2.9297 C   0  0  0  0  0  0  0  0  0  0  0  0
   11.3869   -1.3238    2.0939 C   0  0  0  0  0  0  0  0  0  0  0  0
   10.3375   -1.4110    1.2516 C   0  0  0  0  0  0  0  0  0  0  0  0
    9.3414   -0.3181    0.9338 C   0  0  0  0  0  0  0  0  0  0  0  0
    7.9218   -0.6785    1.3850 C   0  0  0  0  0  0  0  0  0  0  0  0
    7.3433   -1.9174    0.6737 C   0  0  0  0  0  0  0  0  0  0  0  0
    5.9152   -2.2626    1.1437 C   0  0  0  0  0  0  0  0  0  0  0  0
    4.8840   -1.1372    0.9564 C   0  0  0  0  0  0  0  0  0  0  0  0
    4.6689   -0.7385   -0.5164 C   0  0  0  0  0  0  0  0  0  0  0  0
    3.7703    0.4956   -0.6305 C   0  0  0  0  0  0  0  0  0  0  0  0
    2.4239    0.2836   -0.0085 C   0  0  0  0  0  0  0  0  0  0  0  0
    2.1101    0.9577    0.9648 O   0  0  0  0  0  0  0  0  0  0  0  0
    1.5472   -0.5989   -0.5584 O   0  0  0  0  0  0  0  0  0  0  0  0
    0.3046   -0.8881   -0.0204 C   0  0  0  0  0  0  0  0  0  0  0  0
   -0.8195   -0.2431   -0.8457 C   0  0  2  0  0  0  0  0  0  0  0  0
   -0.6539    1.2811   -0.9708 C   0  0  0  0  0  0  0  0  0  0  0  0
    0.4792    1.5954   -1.7346 O   0  0  0  0  0  0  0  0  0  0  0  0
   -2.0158   -0.4768   -0.1930 O   0  0  0  0  0  0  0  0  0  0  0  0
   -3.0927   -1.1281   -0.6933 C   0  0  0  0  0  0  0  0  0  0  0  0
   -3.0355   -1.6960   -1.7748 O   0  0  0  0  0  0  0  0  0  0  0  0
   -4.3590   -1.1120    0.1233 C   0  0  0  0  0  0  0  0  0  0  0  0
   -5.5706   -1.8057   -0.5250 C   0  0  0  0  0  0  0  0  0  0  0  0
   -6.0454   -1.1862   -1.8560 C   0  0  0  0  0  0  0  0  0  0  0  0
   -6.4601    0.2894   -1.7376 C   0  0  0  0  0  0  0  0  0  0  0  0
   -6.9949    0.7981   -3.0843 C   0  0  0  0  0  0  0  0  0  0  0  0
   -7.4171    2.2791   -3.0704 C   0  0  0  0  0  0  0  0  0  0  0  0
   -8.5421    2.6131   -2.0777 C   0  0  0  0  0  0  0  0  0  0  0  0
   -9.7720    1.7742   -2.3440 C   0  0  0  0  0  0  0  0  0  0  0  0
  -10.3790    0.9417   -1.4731 C   0  0  0  0  0  0  0  0  0  0  0  0
   -9.9824    0.6881   -0.0382 C   0  0  0  0  0  0  0  0  0  0  0  0
  -11.1335    1.0569    0.8505 C   0  0  0  0  0  0  0  0  0  0  0  0
  -11.7201    0.1586    1.6540 C   0  0  0  0  0  0  0  0  0  0  0  0
  -12.8969    0.5224    2.5193 C   0  0  0  0  0  0  0  0  0  0  0  0
  -14.1154   -0.3472    2.1814 C   0  0  0  0  0  0  0  0  0  0  0  0
  -14.5920   -0.1439    0.7300 C   0  0  0  0  0  0  0  0  0  0  0  0
  -15.7696   -1.0541    0.3478 C   0  0  0  0  0  0  0  0  0  0  0  0
  -17.0432   -0.7647    1.1409 C   0  0  0  0  0  0  0  0  0  0  0  0
   15.4698   -1.9183   -1.7408 H   0  0  0  0  0  0  0  0  0  0  0  0
   14.7565   -0.6765   -2.8392 H   0  0  0  0  0  0  0  0  0  0  0  0
   13.7446   -1.4284   -1.5382 H   0  0  0  0  0  0  0  0  0  0  0  0
   16.2251    0.3585   -1.0930 H   0  0  0  0  0  0  0  0  0  0  0  0
   15.2139   -0.4092    0.1937 H   0  0  0  0  0  0  0  0  0  0  0  0
   13.2113    0.8957   -0.6204 H   0  0  0  0  0  0  0  0  0  0  0  0
   14.2195    1.6190   -1.9202 H   0  0  0  0  0  0  0  0  0  0  0  0
   13.9495    3.2239   -0.0965 H   0  0  0  0  0  0  0  0  0  0  0  0
   15.6728    2.7432   -0.2536 H   0  0  0  0  0  0  0  0  0  0  0  0
   14.9917    2.9149    2.1285 H   0  0  0  0  0  0  0  0  0  0  0  0
   15.4665    1.2406    1.7206 H   0  0  0  0  0  0  0  0  0  0  0  0
   12.5099    2.2636    1.9288 H   0  0  0  0  0  0  0  0  0  0  0  0
   13.9694   -0.3657    2.5674 H   0  0  0  0  0  0  0  0  0  0  0  0
   11.0586    0.7024    2.8685 H   0  0  0  0  0  0  0  0  0  0  0  0
   11.8171   -0.4362    3.9960 H   0  0  0  0  0  0  0  0  0  0  0  0
   12.0194   -2.2026    2.1850 H   0  0  0  0  0  0  0  0  0  0  0  0
   10.2035   -2.3576    0.7379 H   0  0  0  0  0  0  0  0  0  0  0  0
    9.3535   -0.1315   -0.1615 H   0  0  0  0  0  0  0  0  0  0  0  0
    9.5957    0.6421    1.4128 H   0  0  0  0  0  0  0  0  0  0  0  0
    7.2916    0.2041    1.1511 H   0  0  0  0  0  0  0  0  0  0  0  0
    7.9148   -0.8354    2.4862 H   0  0  0  0  0  0  0  0  0  0  0  0
    7.9765   -2.8026    0.8895 H   0  0  0  0  0  0  0  0  0  0  0  0
    7.3587   -1.7561   -0.4239 H   0  0  0  0  0  0  0  0  0  0  0  0
    5.9554   -2.5103    2.2271 H   0  0  0  0  0  0  0  0  0  0  0  0
    5.5681   -3.1683    0.6010 H   0  0  0  0  0  0  0  0  0  0  0  0
    5.1932   -0.2521    1.5487 H   0  0  0  0  0  0  0  0  0  0  0  0
    3.9159   -1.4824    1.3793 H   0  0  0  0  0  0  0  0  0  0  0  0
    4.2382   -1.5959   -1.0794 H   0  0  0  0  0  0  0  0  0  0  0  0
    5.6353   -0.4610   -0.9849 H   0  0  0  0  0  0  0  0  0  0  0  0
    3.6388    0.7763   -1.6970 H   0  0  0  0  0  0  0  0  0  0  0  0
    4.2826    1.3395   -0.1171 H   0  0  0  0  0  0  0  0  0  0  0  0
    0.2266   -0.5253    1.0281 H   0  0  0  0  0  0  0  0  0  0  0  0
    0.1715   -1.9911    0.0097 H   0  0  0  0  0  0  0  0  0  0  0  0
   -0.8214   -0.6756   -1.8720 H   0  0  0  0  0  0  0  0  0  0  0  0
   -0.5845    1.7219    0.0518 H   0  0  0  0  0  0  0  0  0  0  0  0
   -1.5451    1.7029   -1.4838 H   0  0  0  0  0  0  0  0  0  0  0  0
    0.7660    2.5040   -1.4571 H   0  0  0  0  0  0  0  0  0  0  0  0
   -4.6208   -0.0581    0.3502 H   0  0  0  0  0  0  0  0  0  0  0  0
   -4.1427   -1.6117    1.0916 H   0  0  0  0  0  0  0  0  0  0  0  0
   -6.4146   -1.7653    0.1982 H   0  0  0  0  0  0  0  0  0  0  0  0
   -5.3240   -2.8758   -0.6972 H   0  0  0  0  0  0  0  0  0  0  0  0
   -6.9237   -1.7770   -2.1981 H   0  0  0  0  0  0  0  0  0  0  0  0
   -5.2608   -1.2807   -2.6325 H   0  0  0  0  0  0  0  0  0  0  0  0
   -5.5895    0.9131   -1.4442 H   0  0  0  0  0  0  0  0  0  0  0  0
   -7.2457    0.3731   -0.9612 H   0  0  0  0  0  0  0  0  0  0  0  0
   -7.8602    0.1723   -3.3952 H   0  0  0  0  0  0  0  0  0  0  0  0
   -6.1989    0.6805   -3.8521 H   0  0  0  0  0  0  0  0  0  0  0  0
   -7.7613    2.5403   -4.0952 H   0  0  0  0  0  0  0  0  0  0  0  0
   -6.5354    2.9152   -2.8378 H   0  0  0  0  0  0  0  0  0  0  0  0
   -8.8148    3.6825   -2.2040 H   0  0  0  0  0  0  0  0  0  0  0  0
   -8.1488    2.5100   -1.0542 H   0  0  0  0  0  0  0  0  0  0  0  0
  -10.1988    1.8462   -3.3408 H   0  0  0  0  0  0  0  0  0  0  0  0
  -11.2480    0.3972   -1.8340 H   0  0  0  0  0  0  0  0  0  0  0  0
   -9.1105    1.2715    0.2970 H   0  0  0  0  0  0  0  0  0  0  0  0
   -9.7213   -0.3873    0.0678 H   0  0  0  0  0  0  0  0  0  0  0  0
  -11.4940    2.0821    0.8248 H   0  0  0  0  0  0  0  0  0  0  0  0
  -11.3573   -0.8653    1.6836 H   0  0  0  0  0  0  0  0  0  0  0  0
  -13.1682    1.5955    2.4045 H   0  0  0  0  0  0  0  0  0  0  0  0
  -12.6156    0.3518    3.5803 H   0  0  0  0  0  0  0  0  0  0  0  0
  -14.9285   -0.0750    2.8857 H   0  0  0  0  0  0  0  0  0  0  0  0
  -13.8539   -1.4164    2.3416 H   0  0  0  0  0  0  0  0  0  0  0  0
  -13.7571   -0.3887    0.0382 H   0  0  0  0  0  0  0  0  0  0  0  0
  -14.8728    0.9200    0.5691 H   0  0  0  0  0  0  0  0  0  0  0  0
  -15.4802   -2.1188    0.4847 H   0  0  0  0  0  0  0  0  0  0  0  0
  -15.9933   -0.8932   -0.7291 H   0  0  0  0  0  0  0  0  0  0  0  0
  -16.8983   -0.9648    2.2216 H   0  0  0  0  0  0  0  0  0  0  0  0
  -17.8581   -1.4262    0.7786 H   0  0  0  0  0  0  0  0  0  0  0  0
  -17.3526    0.2922    0.9974 H   0  0  0  0  0  0  0  0  0  0  0  0
  1  2  1  0  0  0  0
  1 45  1  0  0  0  0
  1 46  1  0  0  0  0
  1 47  1  0  0  0  0
  2  3  1  0  0  0  0
  2 48  1  0  0  0  0
  2 49  1  0  0  0  0
  3  4  1  0  0  0  0
  3 50  1  0  0  0  0
  3 51  1  0  0  0  0
  4  5  1  0  0  0  0
  4 52  1  0  0  0  0
  4 53  1  0  0  0  0
  5  6  1  0  0  0  0
  5 54  1  0  0  0  0
  5 55  1  0  0  0  0
  6  7  2  0  0  0  0
  6 56  1  0  0  0  0
  7  8  1  0  0  0  0
  7 57  1  0  0  0  0
  8  9  1  0  0  0  0
  8 58  1  0  0  0  0
  8 59  1  0  0  0  0
  9 10  2  0  0  0  0
  9 60  1  0  0  0  0
 10 11  1  0  0  0  0
 10 61  1  0  0  0  0
 11 12  1  0  0  0  0
 11 62  1  0  0  0  0
 11 63  1  0  0  0  0
 12 13  1  0  0  0  0
 12 64  1  0  0  0  0
 12 65  1  0  0  0  0
 13 14  1  0  0  0  0
 13 66  1  0  0  0  0
 13 67  1  0  0  0  0
 14 15  1  0  0  0  0
 14 68  1  0  0  0  0
 14 69  1  0  0  0  0
 15 16  1  0  0  0  0
 15 70  1  0  0  0  0
 15 71  1  0  0  0  0
 16 17  1  0  0  0  0
 16 72  1  0  0  0  0
 16 73  1  0  0  0  0
 17 18  1  0  0  0  0
 17 74  1  0  0  0  0
 17 75  1  0  0  0  0
 18 19  2  0  0  0  0
 18 20  1  0  0  0  0
 20 21  1  0  0  0  0
 21 76  1  0  0  0  0
 21 77  1  0  0  0  0
 22 21  1  0  0  0  0
 22 23  1  0  0  0  0
 22 25  1  0  0  0  0
 22 78  1  6  0  0  0
 23 24  1  0  0  0  0
 23 79  1  0  0  0  0
 23 80  1  0  0  0  0
 24 81  1  0  0  0  0
 25 26  1  0  0  0  0
 26 27  2  0  0  0  0
 26 28  1  0  0  0  0
 28 29  1  0  0  0  0
 28 82  1  0  0  0  0
 28 83  1  0  0  0  0
 29 30  1  0  0  0  0
 29 84  1  0  0  0  0
 29 85  1  0  0  0  0
 30 31  1  0  0  0  0
 30 86  1  0  0  0  0
 30 87  1  0  0  0  0
 31 32  1  0  0  0  0
 31 88  1  0  0  0  0
 31 89  1  0  0  0  0
 32 33  1  0  0  0  0
 32 90  1  0  0  0  0
 32 91  1  0  0  0  0
 33 34  1  0  0  0  0
 33 92  1  0  0  0  0
 33 93  1  0  0  0  0
 34 35  1  0  0  0  0
 34 94  1  0  0  0  0
 34 95  1  0  0  0  0
 35 36  2  0  0  0  0
 35 96  1  0  0  0  0
 36 37  1  0  0  0  0
 36 97  1  0  0  0  0
 37 38  1  0  0  0  0
 37 98  1  0  0  0  0
 37 99  1  0  0  0  0
 38 39  2  0  0  0  0
 38100  1  0  0  0  0
 39 40  1  0  0  0  0
 39101  1  0  0  0  0
 40 41  1  0  0  0  0
 40102  1  0  0  0  0
 40103  1  0  0  0  0
 41 42  1  0  0  0  0
 41104  1  0  0  0  0
 41105  1  0  0  0  0
 42 43  1  0  0  0  0
 42106  1  0  0  0  0
 42107  1  0  0  0  0
 43 44  1  0  0  0  0
 43108  1  0  0  0  0
 43109  1  0  0  0  0
 44110  1  0  0  0  0
 44111  1  0  0  0  0
 44112  1  0  0  0  0
M  END
>  <IDENTIFIER>
CNP0171209.4

>  <Energy>
291.898

$$$$
