
 OpenBabel09082519533D

 42 45  0  0  0  0  0  0  0  0999 V2000
    6.9610   -0.2988   -0.7928 C   0  0  0  0  0  0  0  0  0  0  0  0
    5.7512    0.3648   -0.8156 O   0  0  0  0  0  0  0  0  0  0  0  0
    4.5388   -0.1900   -0.5540 C   0  0  0  0  0  0  0  0  0  0  0  0
    4.3841   -1.5526   -0.2324 C   0  0  0  0  0  0  0  0  0  0  0  0
    3.1166   -2.0797    0.0227 C   0  0  0  0  0  0  0  0  0  0  0  0
    1.9819   -1.2548   -0.0171 C   0  0  0  0  0  0  0  0  0  0  0  0
    0.6171   -1.8241    0.1579 C   0  0  0  0  0  0  0  0  0  0  0  0
    0.4550   -3.0355    0.2091 O   0  0  0  0  0  0  0  0  0  0  0  0
   -0.5523   -0.9019    0.1180 C   0  0  0  0  0  0  0  0  0  0  0  0
   -1.7740   -1.3614   -0.2150 C   0  0  0  0  0  0  0  0  0  0  0  0
   -2.9005   -0.4225   -0.2858 C   0  0  0  0  0  0  0  0  0  0  0  0
   -4.1737   -0.6713   -0.5929 C   0  0  0  0  0  0  0  0  0  0  0  0
   -4.7667   -2.0078   -0.9448 C   0  0  0  0  0  0  0  0  0  0  0  0
   -5.0020    0.5807   -0.5500 C   0  0  0  0  0  0  0  0  0  0  0  0
   -4.0210    1.6954   -0.1494 C   0  0  0  0  0  0  0  0  0  0  0  0
   -2.7123    0.9808   -0.0066 C   0  0  0  0  0  0  0  0  0  0  0  0
   -1.5138    1.4962    0.3500 C   0  0  0  0  0  0  0  0  0  0  0  0
   -1.3887    2.9713    0.6938 C   0  0  0  0  0  0  0  0  0  0  0  0
   -0.2793    0.5650    0.4735 C   0  0  1  0  0  0  0  0  0  0  0  0
    0.1115    0.5596    1.8285 O   0  0  0  0  0  0  0  0  0  0  0  0
    0.9243    0.9878   -0.3659 C   0  0  0  0  0  0  0  0  0  0  0  0
    0.9402    2.0378   -0.9899 O   0  0  0  0  0  0  0  0  0  0  0  0
    2.1304    0.1170   -0.3269 C   0  0  0  0  0  0  0  0  0  0  0  0
    3.4064    0.6325   -0.6080 C   0  0  0  0  0  0  0  0  0  0  0  0
    7.7722    0.4159   -1.0408 H   0  0  0  0  0  0  0  0  0  0  0  0
    6.9655   -1.1156   -1.5458 H   0  0  0  0  0  0  0  0  0  0  0  0
    7.1525   -0.7131    0.2201 H   0  0  0  0  0  0  0  0  0  0  0  0
    5.2359   -2.2178   -0.1895 H   0  0  0  0  0  0  0  0  0  0  0  0
    3.0230   -3.1361    0.2413 H   0  0  0  0  0  0  0  0  0  0  0  0
   -1.9146   -2.4095   -0.4526 H   0  0  0  0  0  0  0  0  0  0  0  0
   -4.0226   -2.8264   -0.9311 H   0  0  0  0  0  0  0  0  0  0  0  0
   -5.2079   -1.9558   -1.9617 H   0  0  0  0  0  0  0  0  0  0  0  0
   -5.5673   -2.2549   -0.2171 H   0  0  0  0  0  0  0  0  0  0  0  0
   -5.8109    0.4747    0.2048 H   0  0  0  0  0  0  0  0  0  0  0  0
   -5.4393    0.7773   -1.5524 H   0  0  0  0  0  0  0  0  0  0  0  0
   -4.3167    2.1478    0.8220 H   0  0  0  0  0  0  0  0  0  0  0  0
   -3.9553    2.4720   -0.9417 H   0  0  0  0  0  0  0  0  0  0  0  0
   -2.3456    3.5219    0.5997 H   0  0  0  0  0  0  0  0  0  0  0  0
   -0.6674    3.4815    0.0292 H   0  0  0  0  0  0  0  0  0  0  0  0
   -1.0502    3.0854    1.7434 H   0  0  0  0  0  0  0  0  0  0  0  0
    0.5551    1.4239    2.0366 H   0  0  0  0  0  0  0  0  0  0  0  0
    3.5275    1.6809   -0.8529 H   0  0  0  0  0  0  0  0  0  0  0  0
  1  2  1  0  0  0  0
  1 25  1  0  0  0  0
  1 26  1  0  0  0  0
  1 27  1  0  0  0  0
  2  3  1  0  0  0  0
  3  4  2  0  0  0  0
  4  5  1  0  0  0  0
  4 28  1  0  0  0  0
  5  6  2  0  0  0  0
  5 29  1  0  0  0  0
  6  7  1  0  0  0  0
  7  8  2  0  0  0  0
  7  9  1  0  0  0  0
  9 10  2  0  0  0  0
 10 11  1  0  0  0  0
 10 30  1  0  0  0  0
 11 12  2  0  0  0  0
 12 13  1  0  0  0  0
 12 14  1  0  0  0  0
 13 31  1  0  0  0  0
 13 32  1  0  0  0  0
 13 33  1  0  0  0  0
 14 15  1  0  0  0  0
 14 34  1  0  0  0  0
 14 35  1  0  0  0  0
 15 16  1  0  0  0  0
 15 36  1  0  0  0  0
 15 37  1  0  0  0  0
 16 17  2  0  0  0  0
 16 11  1  0  0  0  0
 17 18  1  0  0  0  0
 17 19  1  0  0  0  0
 18 38  1  0  0  0  0
 18 39  1  0  0  0  0
 18 40  1  0  0  0  0
 19 20  1  1  0  0  0
 19 21  1  0  0  0  0
 19  9  1  0  0  0  0
 20 41  1  0  0  0  0
 21 22  2  0  0  0  0
 21 23  1  0  0  0  0
 23 24  2  0  0  0  0
 23  6  1  0  0  0  0
 24  3  1  0  0  0  0
 24 42  1  0  0  0  0
M  END
>  <IDENTIFIER>
CNP0117731.1

>  <Energy>
410.78

$$$$
