
 OpenBabel09102520403D

 74 76  0  0  0  0  0  0  0  0999 V2000
   10.9253   -1.0973   -1.1727 C   0  0  0  0  0  0  0  0  0  0  0  0
   10.7648    0.1073   -0.5196 O   0  0  0  0  0  0  0  0  0  0  0  0
    9.5810    0.6551   -0.1338 C   0  0  0  0  0  0  0  0  0  0  0  0
    8.3414    0.0219   -0.3727 C   0  0  0  0  0  0  0  0  0  0  0  0
    7.1338    0.6206    0.0424 C   0  0  0  0  0  0  0  0  0  0  0  0
    5.7936    0.0003   -0.1727 C   0  0  0  0  0  0  0  0  0  0  0  0
    5.5797   -1.1912   -0.7633 C   0  0  0  0  0  0  0  0  0  0  0  0
    4.2196   -1.7519   -0.9084 C   0  0  0  0  0  0  0  0  0  0  0  0
    4.0867   -2.8687   -1.3872 O   0  0  0  0  0  0  0  0  0  0  0  0
    3.1435   -1.0536   -0.4575 O   0  0  0  0  0  0  0  0  0  0  0  0
    1.8494   -1.5308   -0.3703 C   0  0  0  0  0  0  0  0  0  0  0  0
    1.2022   -1.7834   -1.7480 C   0  0  0  0  0  0  0  0  0  0  0  0
   -0.2171   -2.3556   -1.5784 C   0  0  0  0  0  0  0  0  0  0  0  0
   -1.1310   -1.3804   -0.8765 C   0  0  0  0  0  0  0  0  0  0  0  0
   -1.5325   -1.6182    0.4433 C   0  0  0  0  0  0  0  0  0  0  0  0
   -2.3408   -0.7019    1.1145 C   0  0  0  0  0  0  0  0  0  0  0  0
   -2.7859    0.4696    0.4667 C   0  0  0  0  0  0  0  0  0  0  0  0
   -3.5765    1.4029    1.0652 O   0  0  0  0  0  0  0  0  0  0  0  0
   -4.1208    1.4198    2.3419 C   0  0  1  0  0  0  0  0  0  0  0  0
   -3.7364    2.6182    2.9915 O   0  0  0  0  0  0  0  0  0  0  0  0
   -2.5683    2.4081    3.7539 C   0  0  0  0  0  0  0  0  0  0  0  0
   -5.6551    1.4041    2.2064 C   0  0  2  0  0  0  0  0  0  0  0  0
   -6.2912    1.5163    3.4568 O   0  0  0  0  0  0  0  0  0  0  0  0
   -6.1255    0.1598    1.4754 C   0  0  0  0  0  0  0  0  0  0  0  0
   -5.9349   -1.1175    2.0294 C   0  0  0  0  0  0  0  0  0  0  0  0
   -6.3546   -2.2558    1.3413 C   0  0  0  0  0  0  0  0  0  0  0  0
   -6.9673   -2.1392    0.0866 C   0  0  0  0  0  0  0  0  0  0  0  0
   -7.3685   -3.2416   -0.5802 O   0  0  0  0  0  0  0  0  0  0  0  0
   -7.1628   -0.8731   -0.4857 C   0  0  0  0  0  0  0  0  0  0  0  0
   -7.7502   -0.7994   -1.7094 O   0  0  0  0  0  0  0  0  0  0  0  0
   -7.9780    0.3574   -2.4259 C   0  0  0  0  0  0  0  0  0  0  0  0
   -6.7413    0.2743    0.2179 C   0  0  0  0  0  0  0  0  0  0  0  0
   -2.4131    0.6981   -0.8713 C   0  0  0  0  0  0  0  0  0  0  0  0
   -2.8920    1.8118   -1.4894 O   0  0  0  0  0  0  0  0  0  0  0  0
   -2.7462    2.1201   -2.8271 C   0  0  0  0  0  0  0  0  0  0  0  0
   -1.5753   -0.2239   -1.5316 C   0  0  0  0  0  0  0  0  0  0  0  0
    7.1866    1.8604    0.6998 C   0  0  0  0  0  0  0  0  0  0  0  0
    8.4086    2.4897    0.9388 C   0  0  0  0  0  0  0  0  0  0  0  0
    9.6052    1.8922    0.5251 C   0  0  0  0  0  0  0  0  0  0  0  0
   10.7869    2.5011    0.7575 O   0  0  0  0  0  0  0  0  0  0  0  0
   12.0060   -1.2706   -1.3525 H   0  0  0  0  0  0  0  0  0  0  0  0
   10.4027   -1.0754   -2.1528 H   0  0  0  0  0  0  0  0  0  0  0  0
   10.5330   -1.9280   -0.5481 H   0  0  0  0  0  0  0  0  0  0  0  0
    8.3329   -0.9286   -0.8782 H   0  0  0  0  0  0  0  0  0  0  0  0
    4.9338    0.5566    0.1906 H   0  0  0  0  0  0  0  0  0  0  0  0
    6.3984   -1.7935   -1.1342 H   0  0  0  0  0  0  0  0  0  0  0  0
    1.2514   -0.7688    0.1716 H   0  0  0  0  0  0  0  0  0  0  0  0
    1.8457   -2.4625    0.2376 H   0  0  0  0  0  0  0  0  0  0  0  0
    1.8001   -2.5274   -2.3129 H   0  0  0  0  0  0  0  0  0  0  0  0
    1.1765   -0.8408   -2.3369 H   0  0  0  0  0  0  0  0  0  0  0  0
   -0.1271   -3.2968   -0.9919 H   0  0  0  0  0  0  0  0  0  0  0  0
   -0.6571   -2.6248   -2.5631 H   0  0  0  0  0  0  0  0  0  0  0  0
   -1.1978   -2.5064    0.9651 H   0  0  0  0  0  0  0  0  0  0  0  0
   -2.5989   -0.9345    2.1341 H   0  0  0  0  0  0  0  0  0  0  0  0
   -3.8508    0.5270    2.9430 H   0  0  0  0  0  0  0  0  0  0  0  0
   -2.2054    3.3908    4.1189 H   0  0  0  0  0  0  0  0  0  0  0  0
   -1.7508    1.9646    3.1422 H   0  0  0  0  0  0  0  0  0  0  0  0
   -2.7918    1.7832    4.6466 H   0  0  0  0  0  0  0  0  0  0  0  0
   -5.9304    2.3078    1.6182 H   0  0  0  0  0  0  0  0  0  0  0  0
   -5.9004    0.8377    4.0666 H   0  0  0  0  0  0  0  0  0  0  0  0
   -5.4593   -1.2377    2.9939 H   0  0  0  0  0  0  0  0  0  0  0  0
   -6.1992   -3.2315    1.7844 H   0  0  0  0  0  0  0  0  0  0  0  0
   -7.2506   -4.1325   -0.2206 H   0  0  0  0  0  0  0  0  0  0  0  0
   -8.4673    0.0981   -3.3868 H   0  0  0  0  0  0  0  0  0  0  0  0
   -7.0151    0.8671   -2.6453 H   0  0  0  0  0  0  0  0  0  0  0  0
   -8.6490    1.0363   -1.8580 H   0  0  0  0  0  0  0  0  0  0  0  0
   -6.8804    1.2578   -0.2107 H   0  0  0  0  0  0  0  0  0  0  0  0
   -3.2659    3.0779   -3.0367 H   0  0  0  0  0  0  0  0  0  0  0  0
   -3.2101    1.3266   -3.4526 H   0  0  0  0  0  0  0  0  0  0  0  0
   -1.6732    2.2334   -3.0867 H   0  0  0  0  0  0  0  0  0  0  0  0
   -1.2709   -0.0563   -2.5565 H   0  0  0  0  0  0  0  0  0  0  0  0
    6.2774    2.3458    1.0332 H   0  0  0  0  0  0  0  0  0  0  0  0
    8.4238    3.4447    1.4487 H   0  0  0  0  0  0  0  0  0  0  0  0
   10.8469    3.3547    1.2100 H   0  0  0  0  0  0  0  0  0  0  0  0
  1  2  1  0  0  0  0
  1 41  1  0  0  0  0
  1 42  1  0  0  0  0
  1 43  1  0  0  0  0
  2  3  1  0  0  0  0
  3  4  2  0  0  0  0
  4  5  1  0  0  0  0
  4 44  1  0  0  0  0
  5  6  1  0  0  0  0
  5 37  2  0  0  0  0
  6  7  2  0  0  0  0
  6 45  1  0  0  0  0
  7  8  1  0  0  0  0
  7 46  1  0  0  0  0
  8  9  2  0  0  0  0
  8 10  1  0  0  0  0
 10 11  1  0  0  0  0
 11 12  1  0  0  0  0
 11 47  1  0  0  0  0
 11 48  1  0  0  0  0
 12 13  1  0  0  0  0
 12 49  1  0  0  0  0
 12 50  1  0  0  0  0
 13 14  1  0  0  0  0
 13 51  1  0  0  0  0
 13 52  1  0  0  0  0
 14 15  2  0  0  0  0
 15 16  1  0  0  0  0
 15 53  1  0  0  0  0
 16 17  2  0  0  0  0
 16 54  1  0  0  0  0
 17 18  1  0  0  0  0
 17 33  1  0  0  0  0
 19 18  1  0  0  0  0
 19 20  1  0  0  0  0
 19 22  1  0  0  0  0
 19 55  1  1  0  0  0
 20 21  1  0  0  0  0
 21 56  1  0  0  0  0
 21 57  1  0  0  0  0
 21 58  1  0  0  0  0
 22 23  1  0  0  0  0
 22 24  1  0  0  0  0
 22 59  1  6  0  0  0
 23 60  1  0  0  0  0
 24 25  2  0  0  0  0
 25 26  1  0  0  0  0
 25 61  1  0  0  0  0
 26 27  2  0  0  0  0
 26 62  1  0  0  0  0
 27 28  1  0  0  0  0
 27 29  1  0  0  0  0
 28 63  1  0  0  0  0
 29 30  1  0  0  0  0
 29 32  2  0  0  0  0
 30 31  1  0  0  0  0
 31 64  1  0  0  0  0
 31 65  1  0  0  0  0
 31 66  1  0  0  0  0
 32 24  1  0  0  0  0
 32 67  1  0  0  0  0
 33 34  1  0  0  0  0
 33 36  2  0  0  0  0
 34 35  1  0  0  0  0
 35 68  1  0  0  0  0
 35 69  1  0  0  0  0
 35 70  1  0  0  0  0
 36 14  1  0  0  0  0
 36 71  1  0  0  0  0
 37 38  1  0  0  0  0
 37 72  1  0  0  0  0
 38 39  2  0  0  0  0
 38 73  1  0  0  0  0
 39 40  1  0  0  0  0
 39  3  1  0  0  0  0
 40 74  1  0  0  0  0
M  END
>  <IDENTIFIER>
CNP0309297.1

>  <Energy>
384.499

$$$$
