
 OpenBabel09102523032D

165164  0  0  0  0  0  0  0  0999 V2000
   -1.5000   -2.5981    0.0000 C   0  0  0  0  0  0  0  0  0  0  0  0
   -0.7500   -1.2990   -0.0000 C   0  0  0  0  0  0  0  0  0  0  0  0
    0.2728   -0.1881    0.0673 C   0  0  0  0  0  0  0  0  0  0  0  0
    1.5777   -0.2900    0.1049 C   0  0  0  0  0  0  0  0  0  0  0  0
    2.2101   -1.6232    0.0684 C   0  0  0  0  0  0  0  0  0  0  0  0
    3.2855   -2.6859    0.0678 C   0  0  0  0  0  0  0  0  0  0  0  0
    4.6265   -2.4111    0.1018 C   0  0  0  0  0  0  0  0  0  0  0  0
    5.0278   -0.9350    0.0743 C   0  0  0  0  0  0  0  0  0  0  0  0
    6.2823   -0.1480    0.4035 C   0  0  0  0  0  0  0  0  0  0  0  0
    7.5927   -0.4510    0.4668 C   0  0  0  0  0  0  0  0  0  0  0  0
    8.1090   -1.7258   -0.1187 C   0  0  0  0  0  0  0  0  0  0  0  0
    9.1672   -2.7337    0.3684 C   0  0  0  0  0  0  0  0  0  0  0  0
   10.5429   -2.5892    0.3757 C   0  0  0  0  0  0  0  0  0  0  0  0
   11.2500   -1.2990   -0.0000 C   0  0  0  0  0  0  0  0  0  0  0  0
   12.0000   -0.0000    0.0000 C   0  0  0  0  0  2  0  0  0  0  0  0
   12.7500    1.2990   -0.0000 C   0  0  0  0  0  0  0  0  0  0  0  0
   12.4422    2.8540   -0.0378 C   0  0  0  0  0  0  0  0  0  0  0  0
   13.7007    3.8296   -0.0660 C   0  0  0  0  0  0  0  0  0  0  0  0
   14.8367    3.3873   -0.1452 O   0  0  0  0  0  0  0  0  0  0  0  0
   13.5000    5.1962    0.0000 O   0  0  0  0  0  0  0  0  0  0  0  0
   14.2500    6.4952    0.0000 C   0  0  0  0  0  0  0  0  0  0  0  0
   15.0000    7.7942    0.0000 C   0  0  2  0  0  0  0  0  0  0  0  0
   16.4096    6.7432   -0.1285 C   0  0  0  0  0  0  0  0  0  0  0  0
   17.5813    6.7964   -0.8348 O   0  0  0  0  0  0  0  0  0  0  0  0
   18.8302    6.9472   -0.0549 C   0  0  0  0  0  0  0  0  0  0  0  0
   18.6791    7.9551    0.6362 O   0  0  0  0  0  0  0  0  0  0  0  0
   20.1962    6.2942    0.0000 C   0  0  0  0  0  0  0  0  0  0  0  0
   21.4952    5.5442    0.0000 C   0  0  0  0  0  2  0  0  0  0  0  0
   22.7942    4.7942    0.0000 C   0  0  0  0  0  0  0  0  0  0  0  0
   24.0933    4.0442    0.0000 C   0  0  0  0  0  0  0  0  0  0  0  0
   25.3923    3.2942    0.0000 C   0  0  0  0  0  2  0  0  0  0  0  0
   26.6913    2.5442    0.0000 C   0  0  0  0  0  0  0  0  0  0  0  0
   26.6913    1.0442    0.0000 C   0  0  0  0  0  0  0  0  0  0  0  0
   25.3923    0.2942    0.0000 C   0  0  0  0  0  2  0  0  0  0  0  0
   24.0933   -0.4558    0.0000 C   0  0  0  0  0  0  0  0  0  0  0  0
   24.0933   -1.9558    0.0000 C   0  0  0  0  0  0  0  0  0  0  0  0
   25.3923   -2.7058    0.0000 C   0  0  0  0  0  2  0  0  0  0  0  0
   26.6913   -3.4558    0.0000 C   0  0  0  0  0  0  0  0  0  0  0  0
   26.6913   -4.9558    0.0000 C   0  0  0  0  0  0  0  0  0  0  0  0
   25.3923   -5.7058    0.0000 C   0  0  0  0  0  2  0  0  0  0  0  0
   24.0933   -6.4558    0.0000 C   0  0  0  0  0  0  0  0  0  0  0  0
   24.0933   -7.9558    0.0000 C   0  0  0  0  0  0  0  0  0  0  0  0
   25.3923   -8.7058    0.0000 C   0  0  0  0  0  2  0  0  0  0  0  0
   26.6913   -9.4558    0.0000 C   0  0  0  0  0  0  0  0  0  0  0  0
   28.4179   -9.4679   -0.0608 C   0  0  0  0  0  0  0  0  0  0  0  0
   29.2894  -10.9558    0.0000 C   0  0  0  0  0  0  0  0  0  0  0  0
   30.5885  -11.7058    0.0000 C   0  0  0  0  0  0  0  0  0  0  0  0
   15.2289    9.0403   -0.7488 O   0  0  0  0  0  0  0  0  0  0  0  0
   15.1791   10.4085   -0.2016 C   0  0  0  0  0  0  0  0  0  0  0  0
   14.2743   10.6791    0.5573 O   0  0  0  0  0  0  0  0  0  0  0  0
   16.4289   11.4894   -0.1697 C   0  0  0  0  0  0  0  0  0  0  0  0
   16.4549   13.1576   -0.1492 C   0  0  0  0  0  0  0  0  0  0  0  0
   17.9143   13.9424    0.0106 C   0  0  0  0  0  0  0  0  0  0  0  0
   18.0000   15.5885    0.0000 C   0  0  0  0  0  0  0  0  0  0  0  0
   18.7500   16.8875    0.0000 C   0  0  0  0  0  2  0  0  0  0  0  0
   19.5000   18.1865    0.0000 C   0  0  0  0  0  0  0  0  0  0  0  0
   20.2500   19.4856    0.0000 C   0  0  0  0  0  0  0  0  0  0  0  0
   21.0000   20.7846    0.0000 C   0  0  0  0  0  2  0  0  0  0  0  0
   21.7500   22.0836    0.0000 C   0  0  0  0  0  0  0  0  0  0  0  0
   22.1331   23.7328    0.0330 C   0  0  0  0  0  0  0  0  0  0  0  0
   23.7497   24.3236    0.0090 C   0  0  0  0  0  0  0  0  0  0  0  0
   24.0000   25.9808    0.0000 C   0  0  0  0  0  0  0  0  0  0  0  0
   24.7500   27.2798    0.0000 C   0  0  0  0  0  0  0  0  0  0  0  0
   25.5000   28.5788    0.0000 C   0  0  0  0  0  0  0  0  0  0  0  0
   27.0000   28.5788    0.0000 C   0  0  0  0  0  0  0  0  0  0  0  0
   27.7500   27.2798    0.0000 C   0  0  0  0  0  0  0  0  0  0  0  0
   28.5000   25.9808    0.0000 C   0  0  0  0  0  0  0  0  0  0  0  0
   28.7667   24.3139   -0.0052 C   0  0  0  0  0  0  0  0  0  0  0  0
   30.3805   23.7210   -0.0196 C   0  0  0  0  0  0  0  0  0  0  0  0
   30.7500   22.0836    0.0000 C   0  0  0  0  0  0  0  0  0  0  0  0
   31.5000   20.7846    0.0000 C   0  0  0  0  0  2  0  0  0  0  0  0
   32.2500   19.4856    0.0000 C   0  0  0  0  0  0  0  0  0  0  0  0
   33.0000   18.1865    0.0000 C   0  0  0  0  0  0  0  0  0  0  0  0
   -2.5723   -2.4062   -0.2774 H   0  0  0  0  0  0  0  0  0  0  0  0
   -0.6601   -3.2976   -0.1924 H   0  0  0  0  0  0  0  0  0  0  0  0
   -2.0350   -3.5248    0.0000 H   0  0  0  0  0  0  0  0  0  0  0  0
   -1.6157   -0.6603    0.3013 H   0  0  0  0  0  0  0  0  0  0  0  0
   -1.5831   -0.6417   -0.3489 H   0  0  0  0  0  0  0  0  0  0  0  0
   -0.1078    0.8437    0.1153 H   0  0  0  0  0  0  0  0  0  0  0  0
    2.1462    0.6461    0.1745 H   0  0  0  0  0  0  0  0  0  0  0  0
    2.5342   -1.3436    1.0972 H   0  0  0  0  0  0  0  0  0  0  0  0
    2.5998   -1.2651   -0.9137 H   0  0  0  0  0  0  0  0  0  0  0  0
    2.9002   -3.7052    0.0761 H   0  0  0  0  0  0  0  0  0  0  0  0
    5.3111   -3.2516    0.1585 H   0  0  0  0  0  0  0  0  0  0  0  0
    4.4390   -0.5422    0.9163 H   0  0  0  0  0  0  0  0  0  0  0  0
    4.6693   -0.5392   -0.8971 H   0  0  0  0  0  0  0  0  0  0  0  0
    6.0299    0.9038    0.5594 H   0  0  0  0  0  0  0  0  0  0  0  0
    8.2508    0.3948    0.6729 H   0  0  0  0  0  0  0  0  0  0  0  0
    8.4628   -1.3772   -1.0952 H   0  0  0  0  0  0  0  0  0  0  0  0
    8.3446   -1.4782   -1.1595 H   0  0  0  0  0  0  0  0  0  0  0  0
    8.7612   -3.7149    0.5954 H   0  0  0  0  0  0  0  0  0  0  0  0
   11.1387   -3.4665    0.5960 H   0  0  0  0  0  0  0  0  0  0  0  0
   10.6427   -0.7822    0.7743 H   0  0  0  0  0  0  0  0  0  0  0  0
   10.6686   -1.0270   -0.9016 H   0  0  0  0  0  0  0  0  0  0  0  0
   13.4060    1.1467   -0.8828 H   0  0  0  0  0  0  0  0  0  0  0  0
   13.4462    1.1861    0.8579 H   0  0  0  0  0  0  0  0  0  0  0  0
   11.8164    3.0816   -0.9264 H   0  0  0  0  0  0  0  0  0  0  0  0
   11.8732    3.1044    0.8768 H   0  0  0  0  0  0  0  0  0  0  0  0
   13.6133    6.8625    0.8380 H   0  0  0  0  0  0  0  0  0  0  0  0
   13.6933    6.8878   -0.8780 H   0  0  0  0  0  0  0  0  0  0  0  0
   15.1439    8.1125    1.0681 H   0  0  0  0  0  0  0  0  0  0  0  0
   16.6297    6.4500    0.9250 H   0  0  0  0  0  0  0  0  0  0  0  0
   16.2312    5.6348   -0.2760 H   0  0  0  0  0  0  0  0  0  0  0  0
   20.6629    7.0998   -0.6143 H   0  0  0  0  0  0  0  0  0  0  0  0
   20.6879    7.0396    0.6755 H   0  0  0  0  0  0  0  0  0  0  0  0
   22.1721    3.8751   -0.0004 H   0  0  0  0  0  0  0  0  0  0  0  0
   22.3073    3.7965    0.0004 H   0  0  0  0  0  0  0  0  0  0  0  0
   24.5792    5.0423    0.0000 H   0  0  0  0  0  0  0  0  0  0  0  0
   24.7167    4.9623    0.0000 H   0  0  0  0  0  0  0  0  0  0  0  0
   27.6294    3.0882   -0.0000 H   0  0  0  0  0  0  0  0  0  0  0  0
   27.6292    0.4997   -0.0000 H   0  0  0  0  0  0  0  0  0  0  0  0
   23.1554    0.0888   -0.0000 H   0  0  0  0  0  0  0  0  0  0  0  0
   23.1554   -2.5003   -0.0000 H   0  0  0  0  0  0  0  0  0  0  0  0
   27.6292   -2.9113   -0.0000 H   0  0  0  0  0  0  0  0  0  0  0  0
   27.6292   -5.5005   -0.0000 H   0  0  0  0  0  0  0  0  0  0  0  0
   23.1554   -5.9113   -0.0000 H   0  0  0  0  0  0  0  0  0  0  0  0
   23.1551   -8.4997   -0.0000 H   0  0  0  0  0  0  0  0  0  0  0  0
   26.4723  -10.1464   -0.8404 H   0  0  0  0  0  0  0  0  0  0  0  0
   26.5374  -10.0887    0.8983 H   0  0  0  0  0  0  0  0  0  0  0  0
   28.7243   -8.8973   -0.9657 H   0  0  0  0  0  0  0  0  0  0  0  0
   28.7857   -8.8727    0.8013 H   0  0  0  0  0  0  0  0  0  0  0  0
   28.7485  -11.3938    0.8729 H   0  0  0  0  0  0  0  0  0  0  0  0
   28.7994  -11.4836   -0.8467 H   0  0  0  0  0  0  0  0  0  0  0  0
   30.2716  -12.6814    0.4418 H   0  0  0  0  0  0  0  0  0  0  0  0
   31.1869  -10.9286    0.5210 H   0  0  0  0  0  0  0  0  0  0  0  0
   31.5152  -12.2408    0.0000 H   0  0  0  0  0  0  0  0  0  0  0  0
   17.1248   11.1570   -0.9767 H   0  0  0  0  0  0  0  0  0  0  0  0
   16.9169   11.2504    0.7974 H   0  0  0  0  0  0  0  0  0  0  0  0
   15.7926   13.5227    0.6905 H   0  0  0  0  0  0  0  0  0  0  0  0
   15.9570   13.5397   -1.0759 H   0  0  0  0  0  0  0  0  0  0  0  0
   18.5463   13.5689   -0.8219 H   0  0  0  0  0  0  0  0  0  0  0  0
   18.3626   13.5929    0.9680 H   0  0  0  0  0  0  0  0  0  0  0  0
   17.2704   15.8176    0.8045 H   0  0  0  0  0  0  0  0  0  0  0  0
   17.4345   15.7668   -0.9384 H   0  0  0  0  0  0  0  0  0  0  0  0
   20.4189   17.5654   -0.0377 H   0  0  0  0  0  0  0  0  0  0  0  0
   20.4966   17.6988    0.0364 H   0  0  0  0  0  0  0  0  0  0  0  0
   19.2519   19.9716   -0.0024 H   0  0  0  0  0  0  0  0  0  0  0  0
   19.3319   20.1090    0.0029 H   0  0  0  0  0  0  0  0  0  0  0  0
   22.4106   21.7893    0.8418 H   0  0  0  0  0  0  0  0  0  0  0  0
   22.3804   21.8495   -0.8832 H   0  0  0  0  0  0  0  0  0  0  0  0
   21.5882   24.1547   -0.8309 H   0  0  0  0  0  0  0  0  0  0  0  0
   21.6291   24.2340    0.8944 H   0  0  0  0  0  0  0  0  0  0  0  0
   24.2644   23.8605   -0.8627 H   0  0  0  0  0  0  0  0  0  0  0  0
   24.3166   23.9452    0.8904 H   0  0  0  0  0  0  0  0  0  0  0  0
   23.2954   26.0844    0.8734 H   0  0  0  0  0  0  0  0  0  0  0  0
   23.3529   26.0931   -0.9134 H   0  0  0  0  0  0  0  0  0  0  0  0
   23.8593   27.8724   -0.3406 H   0  0  0  0  0  0  0  0  0  0  0  0
   23.9248   27.8587    0.4907 H   0  0  0  0  0  0  0  0  0  0  0  0
   25.0344   29.5743    0.0030 H   0  0  0  0  0  0  0  0  0  0  0  0
   27.4819   29.5641    0.0160 H   0  0  0  0  0  0  0  0  0  0  0  0
   28.4842   27.8310    0.6418 H   0  0  0  0  0  0  0  0  0  0  0  0
   28.2833   27.7257   -0.8780 H   0  0  0  0  0  0  0  0  0  0  0  0
   29.2191   26.0902    0.8579 H   0  0  0  0  0  0  0  0  0  0  0  0
   29.2907   26.1085   -0.7898 H   0  0  0  0  0  0  0  0  0  0  0  0
   28.2107   23.9261   -0.8812 H   0  0  0  0  0  0  0  0  0  0  0  0
   28.2649   23.8237    0.8624 H   0  0  0  0  0  0  0  0  0  0  0  0
   30.8812   24.1687   -0.9072 H   0  0  0  0  0  0  0  0  0  0  0  0
   30.9185   24.1417    0.8567 H   0  0  0  0  0  0  0  0  0  0  0  0
   30.1032   21.8344    0.8670 H   0  0  0  0  0  0  0  0  0  0  0  0
   30.1257   21.8245   -0.8804 H   0  0  0  0  0  0  0  0  0  0  0  0
   33.1687   20.1126   -0.0073 H   0  0  0  0  0  0  0  0  0  0  0  0
   33.1693   20.1119    0.0063 H   0  0  0  0  0  0  0  0  0  0  0  0
   32.1560   17.4664    0.0003 H   0  0  0  0  0  0  0  0  0  0  0  0
   34.1175   18.3407    0.0005 H   0  0  0  0  0  0  0  0  0  0  0  0
   33.5350   17.2598    0.0000 H   0  0  0  0  0  0  0  0  0  0  0  0
  1  2  1  0  0  0  0
  1 74  1  0  0  0  0
  1 75  1  0  0  0  0
  1 76  1  0  0  0  0
  2  3  1  0  0  0  0
  2 77  1  0  0  0  0
  2 78  1  0  0  0  0
  3  4  2  0  0  0  0
  3 79  1  0  0  0  0
  4  5  1  0  0  0  0
  4 80  1  0  0  0  0
  5  6  1  0  0  0  0
  5 81  1  0  0  0  0
  5 82  1  0  0  0  0
  6  7  2  0  0  0  0
  6 83  1  0  0  0  0
  7  8  1  0  0  0  0
  7 84  1  0  0  0  0
  8  9  1  0  0  0  0
  8 85  1  0  0  0  0
  8 86  1  0  0  0  0
  9 10  2  0  0  0  0
  9 87  1  0  0  0  0
 10 11  1  0  0  0  0
 10 88  1  0  0  0  0
 11 12  1  0  0  0  0
 11 89  1  0  0  0  0
 11 90  1  0  0  0  0
 12 13  2  0  0  0  0
 12 91  1  0  0  0  0
 13 14  1  0  0  0  0
 13 92  1  0  0  0  0
 14 15  1  0  0  0  0
 14 93  1  0  0  0  0
 14 94  1  0  0  0  0
 15 16  1  0  0  0  0
 16 17  1  0  0  0  0
 16 95  1  0  0  0  0
 16 96  1  0  0  0  0
 17 18  1  0  0  0  0
 17 97  1  0  0  0  0
 17 98  1  0  0  0  0
 18 19  2  0  0  0  0
 18 20  1  0  0  0  0
 20 21  1  0  0  0  0
 21 99  1  0  0  0  0
 21100  1  0  0  0  0
 22 21  1  0  0  0  0
 22 23  1  0  0  0  0
 22 48  1  0  0  0  0
 22101  1  6  0  0  0
 23 24  1  0  0  0  0
 23102  1  0  0  0  0
 23103  1  0  0  0  0
 24 25  1  0  0  0  0
 25 26  2  0  0  0  0
 25 27  1  0  0  0  0
 27 28  1  0  0  0  0
 27104  1  0  0  0  0
 27105  1  0  0  0  0
 28 29  1  0  0  0  0
 29 30  1  0  0  0  0
 29106  1  0  0  0  0
 29107  1  0  0  0  0
 30 31  1  0  0  0  0
 30108  1  0  0  0  0
 30109  1  0  0  0  0
 31 32  1  0  0  0  0
 32 33  2  0  0  0  0
 32110  1  0  0  0  0
 33 34  1  0  0  0  0
 33111  1  0  0  0  0
 34 35  1  0  0  0  0
 35 36  2  0  0  0  0
 35112  1  0  0  0  0
 36 37  1  0  0  0  0
 36113  1  0  0  0  0
 37 38  1  0  0  0  0
 38 39  2  0  0  0  0
 38114  1  0  0  0  0
 39 40  1  0  0  0  0
 39115  1  0  0  0  0
 40 41  1  0  0  0  0
 41 42  2  0  0  0  0
 41116  1  0  0  0  0
 42 43  1  0  0  0  0
 42117  1  0  0  0  0
 43 44  1  0  0  0  0
 44 45  1  0  0  0  0
 44118  1  0  0  0  0
 44119  1  0  0  0  0
 45 46  1  0  0  0  0
 45120  1  0  0  0  0
 45121  1  0  0  0  0
 46 47  1  0  0  0  0
 46122  1  0  0  0  0
 46123  1  0  0  0  0
 47124  1  0  0  0  0
 47125  1  0  0  0  0
 47126  1  0  0  0  0
 48 49  1  0  0  0  0
 49 50  2  0  0  0  0
 49 51  1  0  0  0  0
 51 52  1  0  0  0  0
 51127  1  0  0  0  0
 51128  1  0  0  0  0
 52 53  1  0  0  0  0
 52129  1  0  0  0  0
 52130  1  0  0  0  0
 53 54  1  0  0  0  0
 53131  1  0  0  0  0
 53132  1  0  0  0  0
 54 55  1  0  0  0  0
 54133  1  0  0  0  0
 54134  1  0  0  0  0
 55 56  1  0  0  0  0
 56 57  1  0  0  0  0
 56135  1  0  0  0  0
 56136  1  0  0  0  0
 57 58  1  0  0  0  0
 57137  1  0  0  0  0
 57138  1  0  0  0  0
 58 59  1  0  0  0  0
 59 60  1  0  0  0  0
 59139  1  0  0  0  0
 59140  1  0  0  0  0
 60 61  1  0  0  0  0
 60141  1  0  0  0  0
 60142  1  0  0  0  0
 61 62  1  0  0  0  0
 61143  1  0  0  0  0
 61144  1  0  0  0  0
 62 63  1  0  0  0  0
 62145  1  0  0  0  0
 62146  1  0  0  0  0
 63 64  1  0  0  0  0
 63147  1  0  0  0  0
 63148  1  0  0  0  0
 64 65  2  0  0  0  0
 64149  1  0  0  0  0
 65 66  1  0  0  0  0
 65150  1  0  0  0  0
 66 67  1  0  0  0  0
 66151  1  0  0  0  0
 66152  1  0  0  0  0
 67 68  1  0  0  0  0
 67153  1  0  0  0  0
 67154  1  0  0  0  0
 68 69  1  0  0  0  0
 68155  1  0  0  0  0
 68156  1  0  0  0  0
 69 70  1  0  0  0  0
 69157  1  0  0  0  0
 69158  1  0  0  0  0
 70 71  1  0  0  0  0
 70159  1  0  0  0  0
 70160  1  0  0  0  0
 71 72  1  0  0  0  0
 72 73  1  0  0  0  0
 72161  1  0  0  0  0
 72162  1  0  0  0  0
 73163  1  0  0  0  0
 73164  1  0  0  0  0
 73165  1  0  0  0  0
M  END
>  <IDENTIFIER>
CNP0589811.1

>  <Energy>
15162.7

$$$$
