
 OpenBabel09062517453D

 58 59  0  0  0  0  0  0  0  0999 V2000
    0.7373   -1.9413   -3.1996 C   0  0  0  0  0  0  0  0  0  0  0  0
    0.2984   -2.1915   -1.9602 C   0  0  0  0  0  0  0  0  0  0  0  0
    0.3248   -3.4816   -1.2802 C   0  0  0  0  0  0  0  0  0  0  0  0
    0.7410   -4.5239   -1.7603 O   0  0  0  0  0  0  0  0  0  0  0  0
   -0.2538   -3.4058   -0.0660 O   0  0  0  0  0  0  0  0  0  0  0  0
   -0.3077   -2.0803    0.3094 C   0  0  2  0  0  0  0  0  0  0  0  0
   -1.2700   -1.7933    1.5023 C   0  0  0  0  0  0  0  0  0  0  0  0
   -2.6832   -1.4160    1.0342 C   0  0  1  0  0  0  0  0  0  0  0  0
   -3.5320   -2.6311    0.6620 C   0  0  0  0  0  0  0  0  0  0  0  0
   -3.3938   -0.4640    1.9512 C   0  0  0  0  0  0  0  0  0  0  0  0
   -3.6198    0.8665    1.7176 C   0  0  0  0  0  0  0  0  0  0  0  0
   -3.2323    1.8351    0.5940 C   0  0  0  0  0  0  0  0  0  0  0  0
   -3.6357    2.9775    0.7606 O   0  0  0  0  0  0  0  0  0  0  0  0
   -2.3403    1.5954   -0.6668 C   0  0  1  0  0  0  0  0  0  0  0  0
   -3.0833    0.7047   -1.7148 C   0  0  0  0  0  0  0  0  0  0  0  0
   -2.1379    2.8204   -1.3518 O   0  0  0  0  0  0  0  0  0  0  0  0
   -0.8949    1.1630   -0.1525 C   0  0  2  0  0  0  0  0  0  0  0  0
   -0.1656    2.3232    0.0943 O   0  0  0  0  0  0  0  0  0  0  0  0
    0.3432    2.7254    1.2896 C   0  0  0  0  0  0  0  0  0  0  0  0
    1.1619    3.9738    1.3506 C   0  0  0  0  0  0  0  0  0  0  0  0
    0.1608    2.0755    2.3091 O   0  0  0  0  0  0  0  0  0  0  0  0
    0.0077    0.2222   -1.0211 C   0  0  1  0  0  0  0  0  0  0  0  0
    1.2820    0.2135   -0.4763 O   0  0  0  0  0  0  0  0  0  0  0  0
    2.4462    0.5250   -1.0996 C   0  0  0  0  0  0  0  0  0  0  0  0
    2.4485    0.8903   -2.2673 O   0  0  0  0  0  0  0  0  0  0  0  0
    3.7283    0.3650   -0.3553 C   0  0  0  0  0  0  0  0  0  0  0  0
    5.0422    0.6017   -1.0656 C   0  0  0  0  0  0  0  0  0  0  0  0
    3.6906   -0.0026    0.9496 C   0  0  0  0  0  0  0  0  0  0  0  0
    4.8948   -0.2135    1.8286 C   0  0  0  0  0  0  0  0  0  0  0  0
   -0.4550   -1.2693   -1.0520 C   0  0  1  0  0  0  0  0  0  0  0  0
    1.2213   -2.7197   -3.7803 H   0  0  0  0  0  0  0  0  0  0  0  0
    0.6132   -0.9619   -3.6478 H   0  0  0  0  0  0  0  0  0  0  0  0
    0.7141   -1.8881    0.7170 H   0  0  0  0  0  0  0  0  0  0  0  0
   -0.8434   -0.9251    2.0397 H   0  0  0  0  0  0  0  0  0  0  0  0
   -1.2565   -2.5912    2.2754 H   0  0  0  0  0  0  0  0  0  0  0  0
   -2.5414   -0.8292    0.1861 H   0  0  0  0  0  0  0  0  0  0  0  0
   -3.7124   -3.2624    1.5577 H   0  0  0  0  0  0  0  0  0  0  0  0
   -3.0148   -3.2404   -0.1094 H   0  0  0  0  0  0  0  0  0  0  0  0
   -4.5093   -2.3030    0.2479 H   0  0  0  0  0  0  0  0  0  0  0  0
   -3.7581   -0.8795    2.8870 H   0  0  0  0  0  0  0  0  0  0  0  0
   -4.1737    1.3506    2.5186 H   0  0  0  0  0  0  0  0  0  0  0  0
   -3.9972    1.2408   -2.0505 H   0  0  0  0  0  0  0  0  0  0  0  0
   -3.4879   -0.2774   -1.4388 H   0  0  0  0  0  0  0  0  0  0  0  0
   -2.4422    0.5738   -2.6119 H   0  0  0  0  0  0  0  0  0  0  0  0
   -3.0165    3.2289   -1.5743 H   0  0  0  0  0  0  0  0  0  0  0  0
   -1.0121    0.6521    0.7905 H   0  0  0  0  0  0  0  0  0  0  0  0
    1.2330    4.4362    0.3433 H   0  0  0  0  0  0  0  0  0  0  0  0
    2.1855    3.7301    1.7051 H   0  0  0  0  0  0  0  0  0  0  0  0
    0.6927    4.6982    2.0483 H   0  0  0  0  0  0  0  0  0  0  0  0
    0.0211    0.6400   -2.0508 H   0  0  0  0  0  0  0  0  0  0  0  0
    4.8973    0.8864   -2.1278 H   0  0  0  0  0  0  0  0  0  0  0  0
    5.6486   -0.3284   -1.0484 H   0  0  0  0  0  0  0  0  0  0  0  0
    5.6017    1.4206   -0.5664 H   0  0  0  0  0  0  0  0  0  0  0  0
    2.7332   -0.1674    1.4346 H   0  0  0  0  0  0  0  0  0  0  0  0
    5.8583   -0.0452    1.3113 H   0  0  0  0  0  0  0  0  0  0  0  0
    4.8826   -1.2568    2.2087 H   0  0  0  0  0  0  0  0  0  0  0  0
    4.8362    0.4809    2.6917 H   0  0  0  0  0  0  0  0  0  0  0  0
   -1.4641   -1.3347   -1.4889 H   0  0  0  0  0  0  0  0  0  0  0  0
  1  2  2  0  0  0  0
  1 31  1  0  0  0  0
  1 32  1  0  0  0  0
  2  3  1  0  0  0  0
  3  4  2  0  0  0  0
  3  5  1  0  0  0  0
  5  6  1  0  0  0  0
  6  7  1  0  0  0  0
  6 33  1  1  0  0  0
  7  8  1  0  0  0  0
  7 34  1  0  0  0  0
  7 35  1  0  0  0  0
  8  9  1  0  0  0  0
  8 10  1  0  0  0  0
  8 36  1  6  0  0  0
  9 37  1  0  0  0  0
  9 38  1  0  0  0  0
  9 39  1  0  0  0  0
 10 11  2  0  0  0  0
 10 40  1  0  0  0  0
 11 12  1  0  0  0  0
 11 41  1  0  0  0  0
 12 13  2  0  0  0  0
 12 14  1  0  0  0  0
 14 15  1  0  0  0  0
 14 16  1  6  0  0  0
 14 17  1  0  0  0  0
 15 42  1  0  0  0  0
 15 43  1  0  0  0  0
 15 44  1  0  0  0  0
 16 45  1  0  0  0  0
 17 18  1  0  0  0  0
 17 22  1  0  0  0  0
 17 46  1  1  0  0  0
 18 19  1  0  0  0  0
 19 20  1  0  0  0  0
 19 21  2  0  0  0  0
 20 47  1  0  0  0  0
 20 48  1  0  0  0  0
 20 49  1  0  0  0  0
 22 23  1  0  0  0  0
 22 30  1  0  0  0  0
 22 50  1  6  0  0  0
 23 24  1  0  0  0  0
 24 25  2  0  0  0  0
 24 26  1  0  0  0  0
 26 27  1  0  0  0  0
 26 28  2  0  0  0  0
 27 51  1  0  0  0  0
 27 52  1  0  0  0  0
 27 53  1  0  0  0  0
 28 29  1  0  0  0  0
 28 54  1  0  0  0  0
 29 55  1  0  0  0  0
 29 56  1  0  0  0  0
 29 57  1  0  0  0  0
 30  2  1  0  0  0  0
 30  6  1  0  0  0  0
 30 58  1  6  0  0  0
M  END
>  <IDENTIFIER>
CNP0348001.5

>  <Energy>
698.402

$$$$
