
 OpenBabel09112505113D

 45 46  0  0  0  0  0  0  0  0999 V2000
   -4.2139    1.8941    0.2069 C   0  0  0  0  0  0  0  0  0  0  0  0
   -3.8766    0.5936    0.3306 C   0  0  0  0  0  0  0  0  0  0  0  0
   -4.9468   -0.4496    0.1022 C   0  0  0  0  0  0  0  0  0  0  0  0
   -2.4599    0.1135    0.6895 C   0  0  2  0  0  0  0  0  0  0  0  0
   -1.4481    1.2387    1.0887 C   0  0  0  0  0  0  0  0  0  0  0  0
   -0.6695    1.7367   -0.1394 C   0  0  0  0  0  0  0  0  0  0  0  0
    0.2740    0.5995   -0.6649 C   0  0  1  0  0  0  0  0  0  0  0  0
    0.6225    0.8954   -2.1409 C   0  0  0  0  0  0  0  0  0  0  0  0
    1.5831    0.5402    0.1616 C   0  0  0  0  0  0  0  0  0  0  0  0
    2.4378   -0.6392   -0.2617 C   0  0  0  0  0  0  0  0  0  0  0  0
    3.9476   -0.5293   -0.3603 C   0  0  0  0  0  0  0  0  0  0  0  0
    4.5599   -0.2955    0.9608 N   0  0  0  0  0  0  0  0  0  0  0  0
    4.8395    1.1216    1.2138 C   0  0  0  0  0  0  0  0  0  0  0  0
    1.8168   -1.8100   -0.5337 C   0  0  0  0  0  0  0  0  0  0  0  0
    0.3280   -1.9123   -0.5228 C   0  0  0  0  0  0  0  0  0  0  0  0
   -0.2998   -3.2823   -0.4949 C   0  0  0  0  0  0  0  0  0  0  0  0
   -0.4175   -0.7707   -0.5457 C   0  0  0  0  0  0  0  0  0  0  0  0
   -1.9279   -0.7507   -0.4927 C   0  0  0  0  0  0  0  0  0  0  0  0
   -5.2283    2.1846   -0.0486 H   0  0  0  0  0  0  0  0  0  0  0  0
   -3.5118    2.7056    0.3397 H   0  0  0  0  0  0  0  0  0  0  0  0
   -5.9340    0.0028   -0.1347 H   0  0  0  0  0  0  0  0  0  0  0  0
   -5.0614   -1.0699    1.0150 H   0  0  0  0  0  0  0  0  0  0  0  0
   -4.6706   -1.1040   -0.7495 H   0  0  0  0  0  0  0  0  0  0  0  0
   -2.5558   -0.5088    1.6071 H   0  0  0  0  0  0  0  0  0  0  0  0
   -0.7084    0.8202    1.8002 H   0  0  0  0  0  0  0  0  0  0  0  0
   -1.9450    2.0437    1.6658 H   0  0  0  0  0  0  0  0  0  0  0  0
   -0.0674    2.6422    0.0907 H   0  0  0  0  0  0  0  0  0  0  0  0
   -1.4266    2.0274   -0.9006 H   0  0  0  0  0  0  0  0  0  0  0  0
    1.1352    1.8773   -2.2295 H   0  0  0  0  0  0  0  0  0  0  0  0
   -0.3027    0.9283   -2.7559 H   0  0  0  0  0  0  0  0  0  0  0  0
    1.2827    0.1151   -2.5741 H   0  0  0  0  0  0  0  0  0  0  0  0
    1.3400    0.3760    1.2304 H   0  0  0  0  0  0  0  0  0  0  0  0
    2.1358    1.4960    0.0795 H   0  0  0  0  0  0  0  0  0  0  0  0
    4.2318    0.2513   -1.1005 H   0  0  0  0  0  0  0  0  0  0  0  0
    4.3488   -1.4899   -0.7569 H   0  0  0  0  0  0  0  0  0  0  0  0
    5.4883   -0.7798    0.9776 H   0  0  0  0  0  0  0  0  0  0  0  0
    3.9095    1.7120    1.2861 H   0  0  0  0  0  0  0  0  0  0  0  0
    5.4973    1.5447    0.4222 H   0  0  0  0  0  0  0  0  0  0  0  0
    5.3629    1.2223    2.1880 H   0  0  0  0  0  0  0  0  0  0  0  0
    2.3998   -2.6948   -0.7734 H   0  0  0  0  0  0  0  0  0  0  0  0
    0.4739   -4.0786   -0.4807 H   0  0  0  0  0  0  0  0  0  0  0  0
   -0.9300   -3.4290   -1.3972 H   0  0  0  0  0  0  0  0  0  0  0  0
   -0.9222   -3.3941    0.4179 H   0  0  0  0  0  0  0  0  0  0  0  0
   -2.4119   -1.7481   -0.4809 H   0  0  0  0  0  0  0  0  0  0  0  0
   -2.2210   -0.2653   -1.4503 H   0  0  0  0  0  0  0  0  0  0  0  0
  1  2  2  0  0  0  0
  1 19  1  0  0  0  0
  1 20  1  0  0  0  0
  2  3  1  0  0  0  0
  3 21  1  0  0  0  0
  3 22  1  0  0  0  0
  3 23  1  0  0  0  0
  4  2  1  0  0  0  0
  4  5  1  0  0  0  0
  4 24  1  1  0  0  0
  5  6  1  0  0  0  0
  5 25  1  0  0  0  0
  5 26  1  0  0  0  0
  6  7  1  0  0  0  0
  6 27  1  0  0  0  0
  6 28  1  0  0  0  0
  7  8  1  6  0  0  0
  7  9  1  0  0  0  0
  8 29  1  0  0  0  0
  8 30  1  0  0  0  0
  8 31  1  0  0  0  0
  9 10  1  0  0  0  0
  9 32  1  0  0  0  0
  9 33  1  0  0  0  0
 10 11  1  0  0  0  0
 10 14  2  0  0  0  0
 11 12  1  0  0  0  0
 11 34  1  0  0  0  0
 11 35  1  0  0  0  0
 12 13  1  0  0  0  0
 12 36  1  0  0  0  0
 13 37  1  0  0  0  0
 13 38  1  0  0  0  0
 13 39  1  0  0  0  0
 14 15  1  0  0  0  0
 14 40  1  0  0  0  0
 15 16  1  0  0  0  0
 15 17  2  0  0  0  0
 16 41  1  0  0  0  0
 16 42  1  0  0  0  0
 16 43  1  0  0  0  0
 17 18  1  0  0  0  0
 17  7  1  0  0  0  0
 18  4  1  0  0  0  0
 18 44  1  0  0  0  0
 18 45  1  0  0  0  0
M  END
>  <IDENTIFIER>
CNP0099502.1

>  <Energy>
367.968

$$$$
