
 OpenBabel09082513233D

 83 87  0  0  0  0  0  0  0  0999 V2000
   -7.8372    0.9410   -3.1909 C   0  0  0  0  0  0  0  0  0  0  0  0
   -7.0891    1.2166   -2.0662 O   0  0  0  0  0  0  0  0  0  0  0  0
   -5.7471    1.0180   -1.9825 C   0  0  0  0  0  0  0  0  0  0  0  0
   -5.1138    0.6623   -2.9694 O   0  0  0  0  0  0  0  0  0  0  0  0
   -5.0571    1.1806   -0.6346 C   0  0  2  0  0  0  0  0  0  0  0  0
   -5.2130    2.6427   -0.1725 C   0  0  0  0  0  0  0  0  0  0  0  0
   -3.5591    0.8900   -0.7470 C   0  0  0  0  0  0  0  0  0  0  0  0
   -2.8721    0.0067    0.0329 C   0  0  0  0  0  0  0  0  0  0  0  0
   -1.3819   -0.3341   -0.2205 C   0  0  1  0  0  0  0  0  0  0  0  0
   -0.7190    0.4474   -1.3847 C   0  0  0  0  0  0  0  0  0  0  0  0
    0.7249   -0.0002   -1.6511 C   0  0  0  0  0  0  0  0  0  0  0  0
    1.6217    0.1102   -0.3836 C   0  0  2  0  0  0  0  0  0  0  0  0
    3.1762   -0.1327   -0.6559 C   0  0  1  0  0  0  0  0  0  0  0  0
    3.3659   -1.4789   -1.3553 C   0  0  0  0  0  0  0  0  0  0  0  0
    3.9672   -2.4151   -0.8597 O   0  0  0  0  0  0  0  0  0  0  0  0
    3.7082    0.9696   -1.6281 C   0  0  0  0  0  0  0  0  0  0  0  0
    5.2341    0.9547   -1.7881 C   0  0  0  0  0  0  0  0  0  0  0  0
    5.9187    1.2012   -0.4277 C   0  0  2  0  0  0  0  0  0  0  0  0
    7.3140    1.3319   -0.5754 O   0  0  0  0  0  0  0  0  0  0  0  0
    5.5415    0.1216    0.6383 C   0  0  0  0  0  0  0  0  0  0  0  0
    6.2338   -1.2275    0.3138 C   0  0  0  0  0  0  0  0  0  0  0  0
    6.1205    0.5872    2.0032 C   0  0  0  0  0  0  0  0  0  0  0  0
    3.9490    0.0591    0.7206 C   0  0  2  0  0  0  0  0  0  0  0  0
    3.3843   -0.8786    1.8166 C   0  0  0  0  0  0  0  0  0  0  0  0
    1.8954   -0.5673    2.0624 C   0  0  0  0  0  0  0  0  0  0  0  0
    0.9890   -0.7415    0.8049 C   0  0  2  0  0  0  0  0  0  0  0  0
    0.9688   -2.2782    0.4733 C   0  0  0  0  0  0  0  0  0  0  0  0
   -0.5238   -0.2120    1.0944 C   0  0  1  0  0  0  0  0  0  0  0  0
   -0.5362    1.2857    1.5796 C   0  0  0  0  0  0  0  0  0  0  0  0
   -1.2259   -1.0707    2.2109 C   0  0  0  0  0  0  0  0  0  0  0  0
   -2.6863   -0.6643    2.4665 C   0  0  0  0  0  0  0  0  0  0  0  0
   -3.5674   -0.7357    1.1884 C   0  0  2  0  0  0  0  0  0  0  0  0
   -3.7873   -2.2161    0.7753 C   0  0  0  0  0  0  0  0  0  0  0  0
   -4.9240   -0.0674    1.5654 C   0  0  0  0  0  0  0  0  0  0  0  0
   -5.7667    0.1963    0.3324 C   0  0  0  0  0  0  0  0  0  0  0  0
   -8.8994    1.1912   -2.9915 H   0  0  0  0  0  0  0  0  0  0  0  0
   -7.7685   -0.1410   -3.4361 H   0  0  0  0  0  0  0  0  0  0  0  0
   -7.4784    1.5445   -4.0514 H   0  0  0  0  0  0  0  0  0  0  0  0
   -4.7495    3.3327   -0.9117 H   0  0  0  0  0  0  0  0  0  0  0  0
   -4.7195    2.8132    0.8065 H   0  0  0  0  0  0  0  0  0  0  0  0
   -6.2862    2.9144   -0.0744 H   0  0  0  0  0  0  0  0  0  0  0  0
   -3.0512    1.4354   -1.5322 H   0  0  0  0  0  0  0  0  0  0  0  0
   -1.3982   -1.3927   -0.5314 H   0  0  0  0  0  0  0  0  0  0  0  0
   -0.7220    1.5354   -1.1669 H   0  0  0  0  0  0  0  0  0  0  0  0
   -1.2928    0.2870   -2.3237 H   0  0  0  0  0  0  0  0  0  0  0  0
    1.1069    0.6414   -2.4678 H   0  0  0  0  0  0  0  0  0  0  0  0
    0.7109   -1.0421   -2.0288 H   0  0  0  0  0  0  0  0  0  0  0  0
    1.5923    1.1688   -0.0710 H   0  0  0  0  0  0  0  0  0  0  0  0
    2.9199   -1.6270   -2.3333 H   0  0  0  0  0  0  0  0  0  0  0  0
    3.4268    1.9744   -1.2396 H   0  0  0  0  0  0  0  0  0  0  0  0
    3.2601    0.8677   -2.6366 H   0  0  0  0  0  0  0  0  0  0  0  0
    5.5216    1.7729   -2.4842 H   0  0  0  0  0  0  0  0  0  0  0  0
    5.5641   -0.0006   -2.2443 H   0  0  0  0  0  0  0  0  0  0  0  0
    5.5432    2.1874   -0.0726 H   0  0  0  0  0  0  0  0  0  0  0  0
    7.6352    0.6015   -1.1652 H   0  0  0  0  0  0  0  0  0  0  0  0
    7.3373   -1.1315    0.4011 H   0  0  0  0  0  0  0  0  0  0  0  0
    6.0692   -1.5635   -0.7212 H   0  0  0  0  0  0  0  0  0  0  0  0
    5.9210   -2.0173    1.0286 H   0  0  0  0  0  0  0  0  0  0  0  0
    7.2205    0.7339    1.9384 H   0  0  0  0  0  0  0  0  0  0  0  0
    5.9596   -0.1611    2.8046 H   0  0  0  0  0  0  0  0  0  0  0  0
    5.6694    1.5518    2.3197 H   0  0  0  0  0  0  0  0  0  0  0  0
    3.6792    1.0877    1.0598 H   0  0  0  0  0  0  0  0  0  0  0  0
    3.8826   -0.6939    2.7865 H   0  0  0  0  0  0  0  0  0  0  0  0
    3.5582   -1.9422    1.5725 H   0  0  0  0  0  0  0  0  0  0  0  0
    1.8666    0.4841    2.4100 H   0  0  0  0  0  0  0  0  0  0  0  0
    1.5365   -1.2048    2.8968 H   0  0  0  0  0  0  0  0  0  0  0  0
    0.5997   -2.8805    1.3225 H   0  0  0  0  0  0  0  0  0  0  0  0
    1.9567   -2.7086    0.3051 H   0  0  0  0  0  0  0  0  0  0  0  0
    0.3749   -2.5420   -0.4179 H   0  0  0  0  0  0  0  0  0  0  0  0
   -0.0758    1.3953    2.5806 H   0  0  0  0  0  0  0  0  0  0  0  0
   -1.5631    1.6904    1.6631 H   0  0  0  0  0  0  0  0  0  0  0  0
   -0.0403    1.9963    0.9009 H   0  0  0  0  0  0  0  0  0  0  0  0
   -0.6772   -0.9837    3.1713 H   0  0  0  0  0  0  0  0  0  0  0  0
   -1.2495   -2.1385    1.9434 H   0  0  0  0  0  0  0  0  0  0  0  0
   -2.6904    0.3623    2.8831 H   0  0  0  0  0  0  0  0  0  0  0  0
   -3.1202   -1.3082    3.2640 H   0  0  0  0  0  0  0  0  0  0  0  0
   -4.3016   -2.7711    1.5889 H   0  0  0  0  0  0  0  0  0  0  0  0
   -2.8412   -2.7464    0.5573 H   0  0  0  0  0  0  0  0  0  0  0  0
   -4.3991   -2.2992   -0.1444 H   0  0  0  0  0  0  0  0  0  0  0  0
   -4.7549    0.9119    2.0615 H   0  0  0  0  0  0  0  0  0  0  0  0
   -5.4763   -0.7066    2.2886 H   0  0  0  0  0  0  0  0  0  0  0  0
   -6.7701    0.5881    0.6101 H   0  0  0  0  0  0  0  0  0  0  0  0
   -5.9428   -0.7782   -0.1666 H   0  0  0  0  0  0  0  0  0  0  0  0
  1  2  1  0  0  0  0
  1 36  1  0  0  0  0
  1 37  1  0  0  0  0
  1 38  1  0  0  0  0
  2  3  1  0  0  0  0
  3  4  2  0  0  0  0
  5  3  1  6  0  0  0
  5  6  1  0  0  0  0
  5  7  1  0  0  0  0
  6 39  1  0  0  0  0
  6 40  1  0  0  0  0
  6 41  1  0  0  0  0
  7  8  2  0  0  0  0
  7 42  1  0  0  0  0
  8  9  1  0  0  0  0
  9 10  1  0  0  0  0
  9 43  1  6  0  0  0
 10 11  1  0  0  0  0
 10 44  1  0  0  0  0
 10 45  1  0  0  0  0
 11 46  1  0  0  0  0
 11 47  1  0  0  0  0
 12 11  1  0  0  0  0
 12 13  1  0  0  0  0
 12 48  1  1  0  0  0
 13 14  1  6  0  0  0
 13 16  1  0  0  0  0
 14 15  2  0  0  0  0
 14 49  1  0  0  0  0
 16 17  1  0  0  0  0
 16 50  1  0  0  0  0
 16 51  1  0  0  0  0
 17 18  1  0  0  0  0
 17 52  1  0  0  0  0
 17 53  1  0  0  0  0
 18 19  1  0  0  0  0
 18 20  1  0  0  0  0
 18 54  1  1  0  0  0
 19 55  1  0  0  0  0
 20 21  1  0  0  0  0
 20 22  1  0  0  0  0
 20 23  1  0  0  0  0
 21 56  1  0  0  0  0
 21 57  1  0  0  0  0
 21 58  1  0  0  0  0
 22 59  1  0  0  0  0
 22 60  1  0  0  0  0
 22 61  1  0  0  0  0
 23 24  1  0  0  0  0
 23 13  1  0  0  0  0
 23 62  1  1  0  0  0
 24 25  1  0  0  0  0
 24 63  1  0  0  0  0
 24 64  1  0  0  0  0
 25 26  1  0  0  0  0
 25 65  1  0  0  0  0
 25 66  1  0  0  0  0
 26 27  1  6  0  0  0
 26 28  1  0  0  0  0
 26 12  1  0  0  0  0
 27 67  1  0  0  0  0
 27 68  1  0  0  0  0
 27 69  1  0  0  0  0
 28 29  1  1  0  0  0
 28 30  1  0  0  0  0
 28  9  1  0  0  0  0
 29 70  1  0  0  0  0
 29 71  1  0  0  0  0
 29 72  1  0  0  0  0
 30 31  1  0  0  0  0
 30 73  1  0  0  0  0
 30 74  1  0  0  0  0
 31 32  1  0  0  0  0
 31 75  1  0  0  0  0
 31 76  1  0  0  0  0
 32 33  1  6  0  0  0
 32 34  1  0  0  0  0
 32  8  1  0  0  0  0
 33 77  1  0  0  0  0
 33 78  1  0  0  0  0
 33 79  1  0  0  0  0
 34 35  1  0  0  0  0
 34 80  1  0  0  0  0
 34 81  1  0  0  0  0
 35  5  1  0  0  0  0
 35 82  1  0  0  0  0
 35 83  1  0  0  0  0
M  END
>  <IDENTIFIER>
CNP0151525.1

>  <Energy>
630.562

$$$$
