
 OpenBabel09132513033D

116126  0  0  0  0  0  0  0  0999 V2000
   -0.0209    5.3828    1.4694 C   0  0  0  0  0  0  0  0  0  0  0  0
   -1.1715    5.0315    2.4076 C   0  0  0  0  0  0  0  0  0  0  0  0
   -1.1821    3.5749    2.9197 C   0  0  0  0  0  0  0  0  0  0  0  0
   -1.4021    2.4725    1.8384 C   0  0  2  0  0  0  0  0  0  0  0  0
   -0.0291    2.1101    1.0977 C   0  0  0  0  0  0  0  0  0  0  0  0
    0.5599    0.7469    1.5853 C   0  0  0  0  0  0  0  0  0  0  0  0
    0.6862    0.5824    2.9234 O   0  0  0  0  0  0  0  0  0  0  0  0
    0.9533   -0.3352    0.8351 C   0  0  0  0  0  0  0  0  0  0  0  0
    1.2843   -1.4870    1.4547 O   0  0  0  0  0  0  0  0  0  0  0  0
    1.3629   -2.4976    0.5659 C   0  0  0  0  0  0  0  0  0  0  0  0
    1.6035   -3.6434    0.9051 O   0  0  0  0  0  0  0  0  0  0  0  0
    1.0372   -2.0948   -0.8484 C   0  0  1  0  0  0  0  0  0  0  0  0
   -0.3288   -2.7254   -1.2695 C   0  0  0  0  0  0  0  0  0  0  0  0
   -1.4794   -2.0256   -1.0491 C   0  0  0  0  0  0  0  0  0  0  0  0
   -1.3553   -0.5884   -0.8637 C   0  0  0  0  0  0  0  0  0  0  0  0
   -0.1130   -0.0146   -1.5062 C   0  0  0  0  0  0  0  0  0  0  0  0
    1.0237   -0.5460   -0.6810 C   0  0  1  0  0  0  0  0  0  0  0  0
    2.4228   -0.5035   -1.3613 C   0  0  1  0  0  0  0  0  0  0  0  0
    2.4659    0.4258   -2.3940 O   0  0  0  0  0  0  0  0  0  0  0  0
    3.3932    1.3685   -2.1412 C   0  0  0  0  0  0  0  0  0  0  0  0
    3.5887    2.3267   -2.8709 O   0  0  0  0  0  0  0  0  0  0  0  0
    4.1016    1.0791   -0.9097 C   0  0  0  0  0  0  0  0  0  0  0  0
    5.1177    1.7813   -0.2363 C   0  0  0  0  0  0  0  0  0  0  0  0
    5.6077    3.1087   -0.7929 C   0  0  0  0  0  0  0  0  0  0  0  0
    6.7525    3.7982   -0.0317 C   0  0  0  0  0  0  0  0  0  0  0  0
    8.0914    3.0602   -0.1960 C   0  0  0  0  0  0  0  0  0  0  0  0
    9.1390    3.7456    0.5515 N   0  0  0  0  0  0  0  0  0  0  0  0
    5.5969    1.2106    0.9676 C   0  0  0  0  0  0  0  0  0  0  0  0
    5.0840   -0.0062    1.4406 C   0  0  0  0  0  0  0  0  0  0  0  0
    4.0689   -0.6674    0.7454 C   0  0  0  0  0  0  0  0  0  0  0  0
    3.5702   -0.0980   -0.4349 C   0  0  0  0  0  0  0  0  0  0  0  0
    2.2231   -1.9703   -1.8342 C   0  0  1  0  0  0  0  0  0  0  0  0
    3.3619   -3.0023   -1.6851 C   0  0  0  0  0  0  0  0  0  0  0  0
    4.5750   -2.7283   -2.5830 C   0  0  0  0  0  0  0  0  0  0  0  0
    4.2547   -2.8451   -4.0708 C   0  0  0  0  0  0  0  0  0  0  0  0
   -2.8952   -2.5882   -1.2098 C   0  0  2  0  0  0  0  0  0  0  0  0
   -4.0885   -1.8640   -0.3891 C   0  0  0  0  0  0  0  0  0  0  0  0
   -4.9611   -2.6385    0.3302 C   0  0  0  0  0  0  0  0  0  0  0  0
   -6.2197   -1.9889    0.8360 C   0  0  0  0  0  0  0  0  0  0  0  0
   -5.9459   -0.7451    1.6558 C   0  0  0  0  0  0  0  0  0  0  0  0
   -4.7553    0.0663    1.0904 C   0  0  2  0  0  0  0  0  0  0  0  0
   -5.0101    1.6265    1.3105 C   0  0  2  0  0  0  0  0  0  0  0  0
   -5.3632    2.3215    0.0267 C   0  0  0  0  0  0  0  0  0  0  0  0
   -4.2259    2.0013   -0.9399 C   0  0  2  0  0  0  0  0  0  0  0  0
   -4.4722    0.5223   -1.4145 C   0  0  0  0  0  0  0  0  0  0  0  0
   -4.3670   -0.4114   -0.2799 N   0  0  0  0  0  0  0  0  0  0  0  0
   -2.7968    2.1312   -0.2608 C   0  0  0  0  0  0  0  0  0  0  0  0
   -2.6767    2.7838    1.0573 N   0  0  1  0  0  0  0  0  0  0  0  0
   -3.8504    2.4603    1.9399 C   0  0  0  0  0  0  0  0  0  0  0  0
   -4.8449   -4.1213    0.5058 C   0  0  0  0  0  0  0  0  0  0  0  0
   -3.3950   -4.5616    0.4390 C   0  0  2  0  0  0  0  0  0  0  0  0
   -2.6019   -3.9665    1.6412 C   0  0  0  0  0  0  0  0  0  0  0  0
   -2.8389   -4.1663   -0.9495 C   0  0  2  0  0  0  0  0  0  0  0  0
   -1.4525   -4.8893   -1.1105 C   0  0  0  0  0  0  0  0  0  0  0  0
   -0.4528   -4.0864   -1.8940 C   0  0  0  0  0  0  0  0  0  0  0  0
   -0.0710    6.4638    1.2199 H   0  0  0  0  0  0  0  0  0  0  0  0
   -0.0968    4.8149    0.5204 H   0  0  0  0  0  0  0  0  0  0  0  0
    0.9545    5.1831    1.9620 H   0  0  0  0  0  0  0  0  0  0  0  0
   -2.1339    5.2611    1.9028 H   0  0  0  0  0  0  0  0  0  0  0  0
   -1.0901    5.6945    3.2968 H   0  0  0  0  0  0  0  0  0  0  0  0
   -2.0221    3.5205    3.6437 H   0  0  0  0  0  0  0  0  0  0  0  0
   -0.2591    3.3792    3.5031 H   0  0  0  0  0  0  0  0  0  0  0  0
   -1.5924    1.5356    2.4067 H   0  0  0  0  0  0  0  0  0  0  0  0
    0.7415    2.8508    1.3832 H   0  0  0  0  0  0  0  0  0  0  0  0
   -0.1026    2.2519    0.0282 H   0  0  0  0  0  0  0  0  0  0  0  0
    0.4766    1.2710    3.5664 H   0  0  0  0  0  0  0  0  0  0  0  0
   -1.4647   -0.4216    0.2223 H   0  0  0  0  0  0  0  0  0  0  0  0
   -2.0876   -0.1467   -1.5086 H   0  0  0  0  0  0  0  0  0  0  0  0
   -0.1103    1.0767   -1.5774 H   0  0  0  0  0  0  0  0  0  0  0  0
   -0.0503   -0.3486   -2.5691 H   0  0  0  0  0  0  0  0  0  0  0  0
    4.7339    3.7969   -0.7854 H   0  0  0  0  0  0  0  0  0  0  0  0
    5.9305    2.9747   -1.8475 H   0  0  0  0  0  0  0  0  0  0  0  0
    6.4818    3.9158    1.0407 H   0  0  0  0  0  0  0  0  0  0  0  0
    6.8802    4.8180   -0.4545 H   0  0  0  0  0  0  0  0  0  0  0  0
    8.3646    3.0223   -1.2744 H   0  0  0  0  0  0  0  0  0  0  0  0
    8.0261    2.0161    0.1664 H   0  0  0  0  0  0  0  0  0  0  0  0
    9.2816    4.6985    0.1483 H   0  0  0  0  0  0  0  0  0  0  0  0
   10.0310    3.2134    0.4342 H   0  0  0  0  0  0  0  0  0  0  0  0
    6.3546    1.6896    1.5673 H   0  0  0  0  0  0  0  0  0  0  0  0
    5.4642   -0.4280    2.3619 H   0  0  0  0  0  0  0  0  0  0  0  0
    3.6937   -1.5893    1.1499 H   0  0  0  0  0  0  0  0  0  0  0  0
    1.7880   -1.9582   -2.8588 H   0  0  0  0  0  0  0  0  0  0  0  0
    2.9646   -4.0152   -1.9102 H   0  0  0  0  0  0  0  0  0  0  0  0
    3.7220   -3.0183   -0.6396 H   0  0  0  0  0  0  0  0  0  0  0  0
    5.3544   -3.4852   -2.3436 H   0  0  0  0  0  0  0  0  0  0  0  0
    4.9936   -1.7230   -2.3638 H   0  0  0  0  0  0  0  0  0  0  0  0
    3.8580   -3.8577   -4.2981 H   0  0  0  0  0  0  0  0  0  0  0  0
    5.1836   -2.6896   -4.6586 H   0  0  0  0  0  0  0  0  0  0  0  0
    3.5152   -2.0797   -4.3806 H   0  0  0  0  0  0  0  0  0  0  0  0
   -3.0900   -2.4233   -2.2923 H   0  0  0  0  0  0  0  0  0  0  0  0
   -6.9021   -2.6801    1.3771 H   0  0  0  0  0  0  0  0  0  0  0  0
   -6.7582   -1.6583   -0.0812 H   0  0  0  0  0  0  0  0  0  0  0  0
   -5.7223   -0.9981    2.7166 H   0  0  0  0  0  0  0  0  0  0  0  0
   -6.8988   -0.1714    1.6447 H   0  0  0  0  0  0  0  0  0  0  0  0
   -3.9004   -0.2060    1.7519 H   0  0  0  0  0  0  0  0  0  0  0  0
   -5.8256    1.7535    2.0582 H   0  0  0  0  0  0  0  0  0  0  0  0
   -5.4417    3.4187    0.2010 H   0  0  0  0  0  0  0  0  0  0  0  0
   -6.3469    1.9921   -0.3758 H   0  0  0  0  0  0  0  0  0  0  0  0
   -4.3308    2.6985   -1.7993 H   0  0  0  0  0  0  0  0  0  0  0  0
   -3.8714    0.2245   -2.2905 H   0  0  0  0  0  0  0  0  0  0  0  0
   -5.5010    0.4400   -1.8271 H   0  0  0  0  0  0  0  0  0  0  0  0
   -2.0313    2.4515   -0.9943 H   0  0  0  0  0  0  0  0  0  0  0  0
   -2.5988    1.1584    0.0551 H   0  0  0  0  0  0  0  0  0  0  0  0
   -4.2699    3.4436    2.2492 H   0  0  0  0  0  0  0  0  0  0  0  0
   -3.5879    1.9619    2.8988 H   0  0  0  0  0  0  0  0  0  0  0  0
   -5.4716   -4.6300   -0.2584 H   0  0  0  0  0  0  0  0  0  0  0  0
   -5.2402   -4.4119    1.5045 H   0  0  0  0  0  0  0  0  0  0  0  0
   -3.3833   -5.6705    0.5387 H   0  0  0  0  0  0  0  0  0  0  0  0
   -2.5714   -2.8581    1.6134 H   0  0  0  0  0  0  0  0  0  0  0  0
   -1.5572   -4.3198    1.7023 H   0  0  0  0  0  0  0  0  0  0  0  0
   -3.0813   -4.2731    2.5940 H   0  0  0  0  0  0  0  0  0  0  0  0
   -3.5212   -4.5990   -1.7174 H   0  0  0  0  0  0  0  0  0  0  0  0
   -1.5976   -5.9098   -1.5272 H   0  0  0  0  0  0  0  0  0  0  0  0
   -0.9423   -5.0390   -0.1445 H   0  0  0  0  0  0  0  0  0  0  0  0
   -0.8394   -3.9643   -2.9278 H   0  0  0  0  0  0  0  0  0  0  0  0
    0.5308   -4.5987   -1.9474 H   0  0  0  0  0  0  0  0  0  0  0  0
  1  2  1  0  0  0  0
  1 56  1  0  0  0  0
  1 57  1  0  0  0  0
  1 58  1  0  0  0  0
  2  3  1  0  0  0  0
  2 59  1  0  0  0  0
  2 60  1  0  0  0  0
  3 61  1  0  0  0  0
  3 62  1  0  0  0  0
  4  3  1  0  0  0  0
  4  5  1  0  0  0  0
  4 63  1  1  0  0  0
  5  6  1  0  0  0  0
  5 64  1  0  0  0  0
  5 65  1  0  0  0  0
  6  7  1  0  0  0  0
  6  8  2  0  0  0  0
  7 66  1  0  0  0  0
  8  9  1  0  0  0  0
  9 10  1  0  0  0  0
 10 11  2  0  0  0  0
 12 10  1  1  0  0  0
 12 13  1  0  0  0  0
 13 14  2  0  0  0  0
 14 15  1  0  0  0  0
 15 16  1  0  0  0  0
 15 67  1  0  0  0  0
 15 68  1  0  0  0  0
 16 69  1  0  0  0  0
 16 70  1  0  0  0  0
 17 16  1  0  0  0  0
 17 18  1  0  0  0  0
 17  8  1  1  0  0  0
 17 12  1  0  0  0  0
 18 19  1  6  0  0  0
 18 32  1  0  0  0  0
 19 20  1  0  0  0  0
 20 21  2  0  0  0  0
 20 22  1  0  0  0  0
 22 23  2  0  0  0  0
 23 24  1  0  0  0  0
 23 28  1  0  0  0  0
 24 25  1  0  0  0  0
 24 71  1  0  0  0  0
 24 72  1  0  0  0  0
 25 26  1  0  0  0  0
 25 73  1  0  0  0  0
 25 74  1  0  0  0  0
 26 27  1  0  0  0  0
 26 75  1  0  0  0  0
 26 76  1  0  0  0  0
 27 77  1  0  0  0  0
 27 78  1  0  0  0  0
 28 29  2  0  0  0  0
 28 79  1  0  0  0  0
 29 30  1  0  0  0  0
 29 80  1  0  0  0  0
 30 31  2  0  0  0  0
 30 81  1  0  0  0  0
 31 18  1  0  0  0  0
 31 22  1  0  0  0  0
 32 33  1  0  0  0  0
 32 12  1  0  0  0  0
 32 82  1  6  0  0  0
 33 34  1  0  0  0  0
 33 83  1  0  0  0  0
 33 84  1  0  0  0  0
 34 35  1  0  0  0  0
 34 85  1  0  0  0  0
 34 86  1  0  0  0  0
 35 87  1  0  0  0  0
 35 88  1  0  0  0  0
 35 89  1  0  0  0  0
 36 14  1  0  0  0  0
 36 37  1  0  0  0  0
 36 90  1  6  0  0  0
 37 38  2  0  0  0  0
 38 39  1  0  0  0  0
 38 50  1  0  0  0  0
 39 40  1  0  0  0  0
 39 91  1  0  0  0  0
 39 92  1  0  0  0  0
 40 93  1  0  0  0  0
 40 94  1  0  0  0  0
 41 40  1  0  0  0  0
 41 42  1  0  0  0  0
 41 95  1  1  0  0  0
 42 43  1  0  0  0  0
 42 96  1  1  0  0  0
 43 97  1  0  0  0  0
 43 98  1  0  0  0  0
 44 43  1  0  0  0  0
 44 45  1  0  0  0  0
 44 47  1  0  0  0  0
 44 99  1  6  0  0  0
 45 46  1  0  0  0  0
 45100  1  0  0  0  0
 45101  1  0  0  0  0
 46 37  1  0  0  0  0
 46 41  1  0  0  0  0
 47102  1  0  0  0  0
 47103  1  0  0  0  0
 48 47  1  6  0  0  0
 48 49  1  0  0  0  0
 48  4  1  0  0  0  0
 49 42  1  0  0  0  0
 49104  1  0  0  0  0
 49105  1  0  0  0  0
 50 51  1  0  0  0  0
 50106  1  0  0  0  0
 50107  1  0  0  0  0
 51 52  1  0  0  0  0
 51 53  1  0  0  0  0
 51108  1  1  0  0  0
 52109  1  0  0  0  0
 52110  1  0  0  0  0
 52111  1  0  0  0  0
 53 54  1  0  0  0  0
 53 36  1  0  0  0  0
 53112  1  6  0  0  0
 54 55  1  0  0  0  0
 54113  1  0  0  0  0
 54114  1  0  0  0  0
 55 13  1  0  0  0  0
 55115  1  0  0  0  0
 55116  1  0  0  0  0
M  END
>  <IDENTIFIER>
CNP0296329.1

>  <Energy>
2521.48

$$$$
