
 OpenBabel09122518143D

 53 56  0  0  0  0  0  0  0  0999 V2000
   -0.9754    1.9756    1.9880 C   0  0  0  0  0  0  0  0  0  0  0  0
   -1.2677    0.6639    1.6805 O   0  0  0  0  0  0  0  0  0  0  0  0
   -2.3395    0.3293    0.9310 C   0  0  0  0  0  0  0  0  0  0  0  0
   -2.2228    0.0458   -0.4540 C   0  0  0  0  0  0  0  0  0  0  0  0
   -0.9362    0.0534   -1.2376 C   0  0  0  0  0  0  0  0  0  0  0  0
   -1.0322    0.0325   -2.6440 C   0  0  0  0  0  0  0  0  0  0  0  0
    0.1054    0.0432   -3.4545 C   0  0  0  0  0  0  0  0  0  0  0  0
   -0.0165    0.0345   -4.7987 O   0  0  0  0  0  0  0  0  0  0  0  0
    1.3767    0.0651   -2.8693 C   0  0  0  0  0  0  0  0  0  0  0  0
    2.4903    0.0747   -3.6351 O   0  0  0  0  0  0  0  0  0  0  0  0
    1.5139    0.0726   -1.4756 C   0  0  0  0  0  0  0  0  0  0  0  0
    2.7852    0.0810   -0.9943 O   0  0  0  0  0  0  0  0  0  0  0  0
    3.2822    0.0820    0.2975 C   0  0  2  0  0  0  0  0  0  0  0  0
    4.0197    1.2926    0.5162 O   0  0  0  0  0  0  0  0  0  0  0  0
    5.3747    1.1400    0.1508 C   0  0  0  0  0  0  0  0  0  0  0  0
    6.1043    0.1916    1.1355 C   0  0  1  0  0  0  0  0  0  0  0  0
    6.6257    0.8734    2.2468 O   0  0  0  0  0  0  0  0  0  0  0  0
    5.1650   -0.9523    1.6042 C   0  0  2  0  0  0  0  0  0  0  0  0
    5.8990   -2.0976    1.9600 O   0  0  0  0  0  0  0  0  0  0  0  0
    4.1227   -1.2243    0.5087 C   0  0  1  0  0  0  0  0  0  0  0  0
    3.2918   -2.3190    0.8037 O   0  0  0  0  0  0  0  0  0  0  0  0
    0.3597    0.0683   -0.6618 C   0  0  0  0  0  0  0  0  0  0  0  0
   -3.3318   -0.2313   -1.1390 O   0  0  0  0  0  0  0  0  0  0  0  0
   -4.5467   -0.2847   -0.6107 C   0  0  0  0  0  0  0  0  0  0  0  0
   -5.6314   -0.5968   -1.4362 C   0  0  0  0  0  0  0  0  0  0  0  0
   -6.9254   -0.6651   -0.9085 C   0  0  0  0  0  0  0  0  0  0  0  0
   -7.9773   -0.9660   -1.6974 O   0  0  0  0  0  0  0  0  0  0  0  0
   -7.1333   -0.4191    0.4515 C   0  0  0  0  0  0  0  0  0  0  0  0
   -6.0560   -0.1026    1.2944 C   0  0  0  0  0  0  0  0  0  0  0  0
   -6.2852    0.1318    2.6055 O   0  0  0  0  0  0  0  0  0  0  0  0
   -4.7443   -0.0323    0.7628 C   0  0  0  0  0  0  0  0  0  0  0  0
   -3.6089    0.2835    1.5348 C   0  0  0  0  0  0  0  0  0  0  0  0
   -3.7120    0.5202    2.7270 O   0  0  0  0  0  0  0  0  0  0  0  0
   -0.0608    2.0076    2.6146 H   0  0  0  0  0  0  0  0  0  0  0  0
   -1.8132    2.4452    2.5453 H   0  0  0  0  0  0  0  0  0  0  0  0
   -0.7855    2.5478    1.0540 H   0  0  0  0  0  0  0  0  0  0  0  0
   -1.9997    0.0193   -3.1297 H   0  0  0  0  0  0  0  0  0  0  0  0
   -0.8777    0.0242   -5.2402 H   0  0  0  0  0  0  0  0  0  0  0  0
    2.4648    0.0721   -4.6022 H   0  0  0  0  0  0  0  0  0  0  0  0
    2.4922    0.0879    1.0719 H   0  0  0  0  0  0  0  0  0  0  0  0
    5.8890    2.1218    0.0850 H   0  0  0  0  0  0  0  0  0  0  0  0
    5.4140    0.7269   -0.8849 H   0  0  0  0  0  0  0  0  0  0  0  0
    6.9632   -0.2068    0.5522 H   0  0  0  0  0  0  0  0  0  0  0  0
    5.8845    1.3989    2.6490 H   0  0  0  0  0  0  0  0  0  0  0  0
    4.5886   -0.6184    2.4960 H   0  0  0  0  0  0  0  0  0  0  0  0
    6.3179   -2.4501    1.1312 H   0  0  0  0  0  0  0  0  0  0  0  0
    4.6935   -1.4682   -0.4153 H   0  0  0  0  0  0  0  0  0  0  0  0
    2.9056   -2.1672    1.7063 H   0  0  0  0  0  0  0  0  0  0  0  0
    0.4856    0.0569    0.3979 H   0  0  0  0  0  0  0  0  0  0  0  0
   -5.4658   -0.7875   -2.4892 H   0  0  0  0  0  0  0  0  0  0  0  0
   -7.8765   -1.1431   -2.6436 H   0  0  0  0  0  0  0  0  0  0  0  0
   -8.1376   -0.4742    0.8527 H   0  0  0  0  0  0  0  0  0  0  0  0
   -7.1717    0.0870    2.9916 H   0  0  0  0  0  0  0  0  0  0  0  0
  1  2  1  0  0  0  0
  1 34  1  0  0  0  0
  1 35  1  0  0  0  0
  1 36  1  0  0  0  0
  2  3  1  0  0  0  0
  3  4  2  0  0  0  0
  4  5  1  0  0  0  0
  4 23  1  0  0  0  0
  5  6  2  0  0  0  0
  6  7  1  0  0  0  0
  6 37  1  0  0  0  0
  7  8  1  0  0  0  0
  7  9  2  0  0  0  0
  8 38  1  0  0  0  0
  9 10  1  0  0  0  0
  9 11  1  0  0  0  0
 10 39  1  0  0  0  0
 11 12  1  0  0  0  0
 11 22  2  0  0  0  0
 13 12  1  0  0  0  0
 13 14  1  0  0  0  0
 13 40  1  1  0  0  0
 14 15  1  0  0  0  0
 15 16  1  0  0  0  0
 15 41  1  0  0  0  0
 15 42  1  0  0  0  0
 16 17  1  0  0  0  0
 16 18  1  0  0  0  0
 16 43  1  6  0  0  0
 17 44  1  0  0  0  0
 18 19  1  0  0  0  0
 18 20  1  0  0  0  0
 18 45  1  1  0  0  0
 19 46  1  0  0  0  0
 20 21  1  0  0  0  0
 20 13  1  0  0  0  0
 20 47  1  6  0  0  0
 21 48  1  0  0  0  0
 22  5  1  0  0  0  0
 22 49  1  0  0  0  0
 23 24  1  0  0  0  0
 24 25  2  0  0  0  0
 25 26  1  0  0  0  0
 25 50  1  0  0  0  0
 26 27  1  0  0  0  0
 26 28  2  0  0  0  0
 27 51  1  0  0  0  0
 28 29  1  0  0  0  0
 28 52  1  0  0  0  0
 29 30  1  0  0  0  0
 29 31  2  0  0  0  0
 30 53  1  0  0  0  0
 31 32  1  0  0  0  0
 31 24  1  0  0  0  0
 32 33  2  0  0  0  0
 32  3  1  0  0  0  0
M  END
>  <IDENTIFIER>
CNP0307226.4

>  <Energy>
601.122

$$$$
