
 OpenBabel09062515233D

 69 72  0  0  0  0  0  0  0  0999 V2000
   -3.6051    5.4625    0.6358 C   0  0  0  0  0  0  0  0  0  0  0  0
   -4.0364    4.4444   -0.1880 O   0  0  0  0  0  0  0  0  0  0  0  0
   -4.6571    3.3399    0.2907 C   0  0  0  0  0  0  0  0  0  0  0  0
   -6.0633    3.2859    0.2835 C   0  0  0  0  0  0  0  0  0  0  0  0
   -6.8056    4.3104   -0.1895 O   0  0  0  0  0  0  0  0  0  0  0  0
   -6.7157    2.1628    0.7854 C   0  0  0  0  0  0  0  0  0  0  0  0
   -5.9874    1.0896    1.2922 C   0  0  0  0  0  0  0  0  0  0  0  0
   -4.5794    1.1023    1.2988 C   0  0  0  0  0  0  0  0  0  0  0  0
   -3.9057    2.2493    0.7918 C   0  0  0  0  0  0  0  0  0  0  0  0
   -2.4588    2.3578    0.8005 C   0  0  0  0  0  0  0  0  0  0  0  0
   -1.2576    2.5000    0.7865 C   0  0  0  0  0  0  0  0  0  0  0  0
    0.2037    2.7065    0.7584 C   0  0  0  0  0  0  0  0  0  0  0  0
    0.9610    1.4493    0.3747 C   0  0  0  0  0  0  0  0  0  0  0  0
    1.9409    1.4163   -0.6530 C   0  0  0  0  0  0  0  0  0  0  0  0
    2.2782    2.5131   -1.3689 O   0  0  0  0  0  0  0  0  0  0  0  0
    2.6052    0.2133   -0.9565 C   0  0  0  0  0  0  0  0  0  0  0  0
    3.5339    0.2278   -1.9516 O   0  0  0  0  0  0  0  0  0  0  0  0
    4.4969   -0.7313   -2.2192 C   0  0  0  0  0  0  0  0  0  0  0  0
    5.6127   -0.6754   -1.1524 C   0  0  0  0  0  0  0  0  0  0  0  0
    6.7269   -1.6809   -1.4779 C   0  0  0  0  0  0  0  0  0  0  0  0
    7.3027   -1.4125   -2.8756 C   0  0  0  0  0  0  0  0  0  0  0  0
    6.1911   -1.4825   -3.9305 C   0  0  0  0  0  0  0  0  0  0  0  0
    5.0929   -0.4591   -3.6091 C   0  0  0  0  0  0  0  0  0  0  0  0
    2.2711   -0.9646   -0.2611 C   0  0  0  0  0  0  0  0  0  0  0  0
    1.2884   -0.9469    0.7322 C   0  0  0  0  0  0  0  0  0  0  0  0
    0.6669    0.2647    1.0637 C   0  0  0  0  0  0  0  0  0  0  0  0
    0.8379   -2.2287    1.3938 C   0  0  0  0  0  0  0  0  0  0  0  0
   -0.6483   -2.4167    1.0533 C   0  0  0  0  0  0  0  0  0  0  0  0
   -1.2993   -3.7056    1.5777 C   0  0  1  0  0  0  0  0  0  0  0  0
   -1.1116   -3.8891    2.9611 O   0  0  0  0  0  0  0  0  0  0  0  0
   -2.8014   -3.6923    1.2115 C   0  0  0  0  0  0  0  0  0  0  0  0
   -3.5881   -2.6155    1.9379 C   0  0  0  0  0  0  0  0  0  0  0  0
   -3.7705   -2.7320    3.1409 O   0  0  0  0  0  0  0  0  0  0  0  0
   -4.2096   -1.4367    1.2148 C   0  0  0  0  0  0  0  0  0  0  0  0
   -3.8517   -0.0936    1.8993 C   0  0  0  0  0  0  0  0  0  0  0  0
   -3.1316    6.2537    0.0191 H   0  0  0  0  0  0  0  0  0  0  0  0
   -2.8607    5.0859    1.3681 H   0  0  0  0  0  0  0  0  0  0  0  0
   -4.4673    5.9046    1.1804 H   0  0  0  0  0  0  0  0  0  0  0  0
   -6.4178    5.1234   -0.5420 H   0  0  0  0  0  0  0  0  0  0  0  0
   -7.7983    2.1241    0.7917 H   0  0  0  0  0  0  0  0  0  0  0  0
   -6.5355    0.2455    1.6890 H   0  0  0  0  0  0  0  0  0  0  0  0
    0.4933    2.8438    1.8218 H   0  0  0  0  0  0  0  0  0  0  0  0
    0.4464    3.6573    0.2523 H   0  0  0  0  0  0  0  0  0  0  0  0
    1.8904    3.3882   -1.2597 H   0  0  0  0  0  0  0  0  0  0  0  0
    4.0396   -1.7438   -2.2557 H   0  0  0  0  0  0  0  0  0  0  0  0
    5.1986   -0.8991   -0.1463 H   0  0  0  0  0  0  0  0  0  0  0  0
    6.0452    0.3501   -1.1269 H   0  0  0  0  0  0  0  0  0  0  0  0
    6.3146   -2.7128   -1.4395 H   0  0  0  0  0  0  0  0  0  0  0  0
    7.5366   -1.6006   -0.7206 H   0  0  0  0  0  0  0  0  0  0  0  0
    8.0877   -2.1636   -3.1078 H   0  0  0  0  0  0  0  0  0  0  0  0
    7.7693   -0.4027   -2.8990 H   0  0  0  0  0  0  0  0  0  0  0  0
    5.7549   -2.5063   -3.9438 H   0  0  0  0  0  0  0  0  0  0  0  0
    6.6145   -1.2725   -4.9358 H   0  0  0  0  0  0  0  0  0  0  0  0
    4.2903   -0.5270   -4.3754 H   0  0  0  0  0  0  0  0  0  0  0  0
    5.5212    0.5671   -3.6427 H   0  0  0  0  0  0  0  0  0  0  0  0
    2.7429   -1.9050   -0.5049 H   0  0  0  0  0  0  0  0  0  0  0  0
   -0.0849    0.2849    1.8427 H   0  0  0  0  0  0  0  0  0  0  0  0
    0.9868   -2.1656    2.4928 H   0  0  0  0  0  0  0  0  0  0  0  0
    1.4141   -3.0984    1.0082 H   0  0  0  0  0  0  0  0  0  0  0  0
   -0.7665   -2.4010   -0.0547 H   0  0  0  0  0  0  0  0  0  0  0  0
   -1.2103   -1.5639    1.4695 H   0  0  0  0  0  0  0  0  0  0  0  0
   -0.8108   -4.5578    1.0560 H   0  0  0  0  0  0  0  0  0  0  0  0
   -1.2167   -3.0113    3.4114 H   0  0  0  0  0  0  0  0  0  0  0  0
   -3.2596   -4.6761    1.4500 H   0  0  0  0  0  0  0  0  0  0  0  0
   -2.8884   -3.5500    0.1122 H   0  0  0  0  0  0  0  0  0  0  0  0
   -5.3066   -1.5847    1.2547 H   0  0  0  0  0  0  0  0  0  0  0  0
   -3.9005   -1.4170    0.1473 H   0  0  0  0  0  0  0  0  0  0  0  0
   -2.7546    0.0511    1.8781 H   0  0  0  0  0  0  0  0  0  0  0  0
   -4.1564   -0.1494    2.9672 H   0  0  0  0  0  0  0  0  0  0  0  0
  1  2  1  0  0  0  0
  1 36  1  0  0  0  0
  1 37  1  0  0  0  0
  1 38  1  0  0  0  0
  2  3  1  0  0  0  0
  3  4  2  0  0  0  0
  4  5  1  0  0  0  0
  4  6  1  0  0  0  0
  5 39  1  0  0  0  0
  6  7  2  0  0  0  0
  6 40  1  0  0  0  0
  7  8  1  0  0  0  0
  7 41  1  0  0  0  0
  8  9  2  0  0  0  0
  9 10  1  0  0  0  0
  9  3  1  0  0  0  0
 10 11  3  0  0  0  0
 11 12  1  0  0  0  0
 12 13  1  0  0  0  0
 12 42  1  0  0  0  0
 12 43  1  0  0  0  0
 13 14  1  0  0  0  0
 14 15  1  0  0  0  0
 14 16  2  0  0  0  0
 15 44  1  0  0  0  0
 16 17  1  0  0  0  0
 16 24  1  0  0  0  0
 17 18  1  0  0  0  0
 18 19  1  0  0  0  0
 18 45  1  0  0  0  0
 19 20  1  0  0  0  0
 19 46  1  0  0  0  0
 19 47  1  0  0  0  0
 20 21  1  0  0  0  0
 20 48  1  0  0  0  0
 20 49  1  0  0  0  0
 21 22  1  0  0  0  0
 21 50  1  0  0  0  0
 21 51  1  0  0  0  0
 22 23  1  0  0  0  0
 22 52  1  0  0  0  0
 22 53  1  0  0  0  0
 23 18  1  0  0  0  0
 23 54  1  0  0  0  0
 23 55  1  0  0  0  0
 24 25  2  0  0  0  0
 24 56  1  0  0  0  0
 25 26  1  0  0  0  0
 25 27  1  0  0  0  0
 26 13  2  0  0  0  0
 26 57  1  0  0  0  0
 27 28  1  0  0  0  0
 27 58  1  0  0  0  0
 27 59  1  0  0  0  0
 28 29  1  0  0  0  0
 28 60  1  0  0  0  0
 28 61  1  0  0  0  0
 29 30  1  0  0  0  0
 29 31  1  0  0  0  0
 29 62  1  6  0  0  0
 30 63  1  0  0  0  0
 31 32  1  0  0  0  0
 31 64  1  0  0  0  0
 31 65  1  0  0  0  0
 32 33  2  0  0  0  0
 32 34  1  0  0  0  0
 34 35  1  0  0  0  0
 34 66  1  0  0  0  0
 34 67  1  0  0  0  0
 35  8  1  0  0  0  0
 35 68  1  0  0  0  0
 35 69  1  0  0  0  0
M  END
>  <IDENTIFIER>
CNP0420412.1

>  <Energy>
543.647

$$$$
