
 OpenBabel09052520392D

129133  0  0  0  0  0  0  0  0999 V2000
    0.4707   -4.2917    0.8502 O   0  0  0  0  0  0  0  0  0  0  0  0
    0.9428   -3.5498    0.0000 C   0  0  0  0  0  0  0  0  0  0  0  0
    2.4200   -3.2893    0.0000 C   0  0  1  0  0  0  0  0  0  0  0  0
    2.3376   -2.5851    1.2581 O   0  0  0  0  0  0  0  0  0  0  0  0
    1.8407   -1.2332    1.2104 C   0  0  1  0  0  0  0  0  0  0  0  0
    2.8499   -0.3192    1.5857 O   0  0  0  0  0  0  0  0  0  0  0  0
    2.4638    1.0452    1.3326 C   0  0  2  0  0  0  0  0  0  0  0  0
    3.2213    1.9185    2.3459 C   0  0  0  0  0  0  0  0  0  0  0  0
    4.5991    1.7046    2.2037 O   0  0  0  0  0  0  0  0  0  0  0  0
    0.9076    1.2896    1.3822 C   0  0  2  0  0  0  0  0  0  0  0  0
    0.5826    2.6521    1.5260 O   0  0  0  0  0  0  0  0  0  0  0  0
    0.3201    0.3935    2.4861 C   0  0  2  0  0  0  0  0  0  0  0  0
   -1.0545    0.6033    2.6879 O   0  0  0  0  0  0  0  0  0  0  0  0
    0.6172   -1.0966    2.1613 C   0  0  1  0  0  0  0  0  0  0  0  0
    0.8377   -1.7959    3.3586 O   0  0  0  0  0  0  0  0  0  0  0  0
    3.8972   -3.0288    0.0000 C   0  0  1  0  0  0  0  0  0  0  0  0
    3.9481   -4.4030   -0.5549 O   0  0  0  0  0  0  0  0  0  0  0  0
    4.5324   -5.4812    0.1884 C   0  0  1  0  0  0  0  0  0  0  0  0
    4.4172   -6.8307   -0.4253 O   0  0  0  0  0  0  0  0  0  0  0  0
    5.5672   -7.6171   -0.0000 C   0  0  2  0  0  0  0  0  0  0  0  0
    5.8277   -9.0943    0.0000 C   0  0  0  0  0  0  0  0  0  0  0  0
    6.0882  -10.5715   -0.0000 O   0  0  0  0  0  0  0  0  0  0  0  0
    5.4365   -7.6318    1.6349 C   0  0  2  0  0  0  0  0  0  0  0  0
    4.3126   -8.4181    1.9911 O   0  0  0  0  0  0  0  0  0  0  0  0
    5.2498   -6.2944    2.3547 C   0  0  2  0  0  0  0  0  0  0  0  0
    6.4492   -5.5620    2.3230 O   0  0  0  0  0  0  0  0  0  0  0  0
    4.1438   -5.5039    1.6655 C   0  0  1  0  0  0  0  0  0  0  0  0
    2.8810   -6.1015    1.8167 O   0  0  0  0  0  0  0  0  0  0  0  0
    5.3744   -2.7683    0.0000 C   0  0  1  0  0  0  0  0  0  0  0  0
    5.4037   -1.3097    0.0899 O   0  0  0  0  0  0  0  0  0  0  0  0
    4.8255   -0.4857   -0.9776 C   0  0  1  0  0  0  0  0  0  0  0  0
    5.3116    0.8571   -0.8157 O   0  0  0  0  0  0  0  0  0  0  0  0
    4.9429    1.6648   -1.9222 C   0  0  2  0  0  0  0  0  0  0  0  0
    5.0244    3.1575   -1.5886 C   0  0  0  0  0  0  0  0  0  0  0  0
    4.1647    3.4525   -0.5230 O   0  0  0  0  0  0  0  0  0  0  0  0
    5.7928    1.2908   -3.1699 C   0  0  2  0  0  0  0  0  0  0  0  0
    7.0224    1.9738   -3.1973 O   0  0  0  0  0  0  0  0  0  0  0  0
    6.0852   -0.2268   -3.1921 C   0  0  2  0  0  0  0  0  0  0  0  0
    6.2775   -0.6784   -4.5069 O   0  0  0  0  0  0  0  0  0  0  0  0
    4.9513   -0.9878   -2.5037 C   0  0  1  0  0  0  0  0  0  0  0  0
    3.7440   -0.7174   -3.1802 O   0  0  0  0  0  0  0  0  0  0  0  0
    6.8640   -2.9728   -0.6381 C   0  0  1  0  0  0  0  0  0  0  0  0
    7.5059   -4.3587   -0.8919 C   0  0  0  0  0  0  0  0  0  0  0  0
    8.7994   -4.2147   -1.4794 O   0  0  0  0  0  0  0  0  0  0  0  0
    9.9845   -4.4445   -0.6871 C   0  0  1  0  0  0  0  0  0  0  0  0
   10.6587   -3.2015   -0.5046 O   0  0  0  0  0  0  0  0  0  0  0  0
   11.9874   -3.3217    0.0043 C   0  0  2  0  0  0  0  0  0  0  0  0
   12.9779   -3.8375   -1.0632 C   0  0  0  0  0  0  0  0  0  0  0  0
   12.9170   -3.0349   -2.2105 O   0  0  0  0  0  0  0  0  0  0  0  0
   12.0125   -4.1008    1.3417 C   0  0  2  0  0  0  0  0  0  0  0  0
   13.3216   -4.2277    1.8480 O   0  0  0  0  0  0  0  0  0  0  0  0
   11.3044   -5.4572    1.1946 C   0  0  2  0  0  0  0  0  0  0  0  0
   11.2750   -6.1095    2.4364 O   0  0  0  0  0  0  0  0  0  0  0  0
    9.8713   -5.2008    0.6713 C   0  0  1  0  0  0  0  0  0  0  0  0
    9.1630   -4.4136    1.5991 O   0  0  0  0  0  0  0  0  0  0  0  0
    7.7805   -2.3395    0.2631 O   0  0  0  0  0  0  0  0  0  0  0  0
    8.2780   -1.0719   -0.1523 C   0  0  1  0  0  0  0  0  0  0  0  0
    9.1864   -1.2299   -1.2316 O   0  0  0  0  0  0  0  0  0  0  0  0
    9.6843    0.0243   -1.6799 C   0  0  2  0  0  0  0  0  0  0  0  0
   10.5584   -0.2200   -2.9129 C   0  0  0  0  0  0  0  0  0  0  0  0
    9.8033   -0.8617   -3.9021 O   0  0  0  0  0  0  0  0  0  0  0  0
   10.4868    0.7267   -0.5601 C   0  0  2  0  0  0  0  0  0  0  0  0
   10.9500    1.9806   -0.9952 O   0  0  0  0  0  0  0  0  0  0  0  0
    9.5668    0.9245    0.6507 C   0  0  2  0  0  0  0  0  0  0  0  0
   10.2819    1.4787    1.7243 O   0  0  0  0  0  0  0  0  0  0  0  0
    8.9860   -0.4364    1.0606 C   0  0  1  0  0  0  0  0  0  0  0  0
    8.0623   -0.2735    2.1059 O   0  0  0  0  0  0  0  0  0  0  0  0
    0.2301   -3.1627   -0.7430 H   0  0  0  0  0  0  0  0  0  0  0  0
    2.1301   -2.6393   -0.8780 H   0  0  0  0  0  0  0  0  0  0  0  0
    1.5091   -0.9577    0.1819 H   0  0  0  0  0  0  0  0  0  0  0  0
    2.8146    1.3632    0.3292 H   0  0  0  0  0  0  0  0  0  0  0  0
    2.9143    1.6587    3.3813 H   0  0  0  0  0  0  0  0  0  0  0  0
    3.0011    2.9910    2.1452 H   0  0  0  0  0  0  0  0  0  0  0  0
    5.0435    2.3550    2.8072 H   0  0  0  0  0  0  0  0  0  0  0  0
    0.4417    0.9532    0.4296 H   0  0  0  0  0  0  0  0  0  0  0  0
    0.6260    2.8811    2.4904 H   0  0  0  0  0  0  0  0  0  0  0  0
    0.8478    0.6740    3.4225 H   0  0  0  0  0  0  0  0  0  0  0  0
   -1.5078    0.4538    1.8171 H   0  0  0  0  0  0  0  0  0  0  0  0
   -0.2244   -1.5671    1.6012 H   0  0  0  0  0  0  0  0  0  0  0  0
   -0.0558   -1.9626    3.7579 H   0  0  0  0  0  0  0  0  0  0  0  0
    3.9584   -2.6095   -0.9868 H   0  0  0  0  0  0  0  0  0  0  0  0
    5.5539   -5.2140    0.1717 H   0  0  0  0  0  0  0  0  0  0  0  0
    6.4700   -7.0804   -0.3993 H   0  0  0  0  0  0  0  0  0  0  0  0
    5.6739   -9.0722   -1.1008 H   0  0  0  0  0  0  0  0  0  0  0  0
    6.9193   -8.9403    0.2120 H   0  0  0  0  0  0  0  0  0  0  0  0
    5.7495  -10.8887    0.8760 H   0  0  0  0  0  0  0  0  0  0  0  0
    6.3550   -8.0638    2.1201 H   0  0  0  0  0  0  0  0  0  0  0  0
    4.5908   -9.0341    2.7195 H   0  0  0  0  0  0  0  0  0  0  0  0
    4.9685   -6.4492    3.4245 H   0  0  0  0  0  0  0  0  0  0  0  0
    7.0256   -5.9271    3.0438 H   0  0  0  0  0  0  0  0  0  0  0  0
    4.1499   -4.4877    2.1212 H   0  0  0  0  0  0  0  0  0  0  0  0
    2.4147   -5.6228    2.5508 H   0  0  0  0  0  0  0  0  0  0  0  0
    5.5869   -3.1227    1.0298 H   0  0  0  0  0  0  0  0  0  0  0  0
    3.7401   -0.4623   -0.7604 H   0  0  0  0  0  0  0  0  0  0  0  0
    3.8659    1.4824   -2.1526 H   0  0  0  0  0  0  0  0  0  0  0  0
    4.7144    3.7337   -2.4909 H   0  0  0  0  0  0  0  0  0  0  0  0
    6.0658    3.4286   -1.3078 H   0  0  0  0  0  0  0  0  0  0  0  0
    4.0883    4.4414   -0.4942 H   0  0  0  0  0  0  0  0  0  0  0  0
    5.1703    1.5706   -4.0555 H   0  0  0  0  0  0  0  0  0  0  0  0
    6.9381    2.7114   -3.8571 H   0  0  0  0  0  0  0  0  0  0  0  0
    6.9838   -0.4521   -2.5947 H   0  0  0  0  0  0  0  0  0  0  0  0
    7.1872   -0.3886   -4.7784 H   0  0  0  0  0  0  0  0  0  0  0  0
    5.1203   -2.0777   -2.5921 H   0  0  0  0  0  0  0  0  0  0  0  0
    3.7330   -1.2701   -4.0056 H   0  0  0  0  0  0  0  0  0  0  0  0
    6.9141   -2.5069   -1.6339 H   0  0  0  0  0  0  0  0  0  0  0  0
    6.8778   -4.9163   -1.6179 H   0  0  0  0  0  0  0  0  0  0  0  0
    7.5421   -4.9565    0.0214 H   0  0  0  0  0  0  0  0  0  0  0  0
   10.5914   -5.0993   -1.3457 H   0  0  0  0  0  0  0  0  0  0  0  0
   12.3326   -2.2934    0.2505 H   0  0  0  0  0  0  0  0  0  0  0  0
   12.7709   -4.8845   -1.3561 H   0  0  0  0  0  0  0  0  0  0  0  0
   14.0175   -3.8345   -0.6644 H   0  0  0  0  0  0  0  0  0  0  0  0
   13.4378   -2.2146   -2.0112 H   0  0  0  0  0  0  0  0  0  0  0  0
   11.4367   -3.5064    2.0860 H   0  0  0  0  0  0  0  0  0  0  0  0
   13.7697   -4.9718    1.3681 H   0  0  0  0  0  0  0  0  0  0  0  0
   11.8698   -6.0833    0.4661 H   0  0  0  0  0  0  0  0  0  0  0  0
   11.0505   -7.0597    2.2542 H   0  0  0  0  0  0  0  0  0  0  0  0
    9.3615   -6.1778    0.5149 H   0  0  0  0  0  0  0  0  0  0  0  0
    9.0487   -4.9620    2.4169 H   0  0  0  0  0  0  0  0  0  0  0  0
    7.4590   -0.3942   -0.4387 H   0  0  0  0  0  0  0  0  0  0  0  0
    8.8484    0.6823   -1.9974 H   0  0  0  0  0  0  0  0  0  0  0  0
   10.9302    0.7514   -3.3082 H   0  0  0  0  0  0  0  0  0  0  0  0
   11.4185   -0.8614   -2.6229 H   0  0  0  0  0  0  0  0  0  0  0  0
   10.4318   -1.0573   -4.6449 H   0  0  0  0  0  0  0  0  0  0  0  0
   11.3399    0.0759   -0.2478 H   0  0  0  0  0  0  0  0  0  0  0  0
   11.8859    1.8570   -1.3022 H   0  0  0  0  0  0  0  0  0  0  0  0
    8.7156    1.5916    0.3726 H   0  0  0  0  0  0  0  0  0  0  0  0
   10.2988    2.4615    1.5822 H   0  0  0  0  0  0  0  0  0  0  0  0
    9.8066   -1.1243    1.3762 H   0  0  0  0  0  0  0  0  0  0  0  0
    8.5878   -0.1873    2.9435 H   0  0  0  0  0  0  0  0  0  0  0  0
  1  2  2  0  0  0  0
  2  3  1  0  0  0  0
  2 68  1  0  0  0  0
  3  4  1  0  0  0  0
  3 16  1  0  0  0  0
  3 69  1  6  0  0  0
  5  4  1  0  0  0  0
  5  6  1  0  0  0  0
  5 70  1  1  0  0  0
  6  7  1  0  0  0  0
  7  8  1  0  0  0  0
  7 10  1  0  0  0  0
  7 71  1  6  0  0  0
  8  9  1  0  0  0  0
  8 72  1  0  0  0  0
  8 73  1  0  0  0  0
  9 74  1  0  0  0  0
 10 11  1  0  0  0  0
 10 12  1  0  0  0  0
 10 75  1  6  0  0  0
 11 76  1  0  0  0  0
 12 13  1  0  0  0  0
 12 14  1  0  0  0  0
 12 77  1  6  0  0  0
 13 78  1  0  0  0  0
 14 15  1  0  0  0  0
 14  5  1  0  0  0  0
 14 79  1  1  0  0  0
 15 80  1  0  0  0  0
 16 17  1  0  0  0  0
 16 29  1  0  0  0  0
 16 81  1  1  0  0  0
 18 17  1  0  0  0  0
 18 19  1  0  0  0  0
 18 82  1  1  0  0  0
 19 20  1  0  0  0  0
 20 21  1  0  0  0  0
 20 23  1  0  0  0  0
 20 83  1  6  0  0  0
 21 22  1  0  0  0  0
 21 84  1  0  0  0  0
 21 85  1  0  0  0  0
 22 86  1  0  0  0  0
 23 24  1  0  0  0  0
 23 25  1  0  0  0  0
 23 87  1  1  0  0  0
 24 88  1  0  0  0  0
 25 26  1  0  0  0  0
 25 27  1  0  0  0  0
 25 89  1  6  0  0  0
 26 90  1  0  0  0  0
 27 28  1  0  0  0  0
 27 18  1  0  0  0  0
 27 91  1  6  0  0  0
 28 92  1  0  0  0  0
 29 30  1  0  0  0  0
 29 42  1  0  0  0  0
 29 93  1  6  0  0  0
 31 30  1  0  0  0  0
 31 32  1  0  0  0  0
 31 94  1  1  0  0  0
 32 33  1  0  0  0  0
 33 34  1  0  0  0  0
 33 36  1  0  0  0  0
 33 95  1  1  0  0  0
 34 35  1  0  0  0  0
 34 96  1  0  0  0  0
 34 97  1  0  0  0  0
 35 98  1  0  0  0  0
 36 37  1  0  0  0  0
 36 38  1  0  0  0  0
 36 99  1  1  0  0  0
 37100  1  0  0  0  0
 38 39  1  0  0  0  0
 38 40  1  0  0  0  0
 38101  1  1  0  0  0
 39102  1  0  0  0  0
 40 41  1  0  0  0  0
 40 31  1  0  0  0  0
 40103  1  1  0  0  0
 41104  1  0  0  0  0
 42 43  1  0  0  0  0
 42 56  1  0  0  0  0
 42105  1  1  0  0  0
 43 44  1  0  0  0  0
 43106  1  0  0  0  0
 43107  1  0  0  0  0
 45 44  1  0  0  0  0
 45 46  1  0  0  0  0
 45108  1  6  0  0  0
 46 47  1  0  0  0  0
 47 48  1  0  0  0  0
 47 50  1  0  0  0  0
 47109  1  1  0  0  0
 48 49  1  0  0  0  0
 48110  1  0  0  0  0
 48111  1  0  0  0  0
 49112  1  0  0  0  0
 50 51  1  0  0  0  0
 50 52  1  0  0  0  0
 50113  1  1  0  0  0
 51114  1  0  0  0  0
 52 53  1  0  0  0  0
 52 54  1  0  0  0  0
 52115  1  1  0  0  0
 53116  1  0  0  0  0
 54 55  1  0  0  0  0
 54 45  1  0  0  0  0
 54117  1  6  0  0  0
 55118  1  0  0  0  0
 57 56  1  0  0  0  0
 57 58  1  0  0  0  0
 57119  1  1  0  0  0
 58 59  1  0  0  0  0
 59 60  1  0  0  0  0
 59 62  1  0  0  0  0
 59120  1  6  0  0  0
 60 61  1  0  0  0  0
 60121  1  0  0  0  0
 60122  1  0  0  0  0
 61123  1  0  0  0  0
 62 63  1  0  0  0  0
 62 64  1  0  0  0  0
 62124  1  6  0  0  0
 63125  1  0  0  0  0
 64 65  1  0  0  0  0
 64 66  1  0  0  0  0
 64126  1  6  0  0  0
 65127  1  0  0  0  0
 66 67  1  0  0  0  0
 66 57  1  0  0  0  0
 66128  1  1  0  0  0
 67129  1  0  0  0  0
M  END
>  <IDENTIFIER>
CNP0359497.1

>  <Energy>
3941.14

$$$$
