
 OpenBabel09112521593D

 52 54  0  0  0  0  0  0  0  0999 V2000
    1.5686   -0.7536   -3.1201 C   0  0  0  0  0  0  0  0  0  0  0  0
    0.3209   -0.4723   -2.7377 C   0  0  0  0  0  0  0  0  0  0  0  0
   -0.9036   -0.6065   -3.5411 C   0  0  0  0  0  0  0  0  0  0  0  0
   -0.9524   -0.9316   -4.7166 O   0  0  0  0  0  0  0  0  0  0  0  0
   -1.9995   -0.3173   -2.7960 O   0  0  0  0  0  0  0  0  0  0  0  0
   -1.6053   -0.4370   -1.4797 C   0  0  1  0  0  0  0  0  0  0  0  0
   -0.1668    0.1402   -1.4681 C   0  0  1  0  0  0  0  0  0  0  0  0
    0.4888    0.1682   -0.0459 C   0  0  2  0  0  0  0  0  0  0  0  0
    1.8345   -0.1643   -0.0793 O   0  0  0  0  0  0  0  0  0  0  0  0
    2.8518    0.6518    0.3138 C   0  0  0  0  0  0  0  0  0  0  0  0
    2.6066    1.8003    0.6500 O   0  0  0  0  0  0  0  0  0  0  0  0
    4.2535    0.1166    0.3409 C   0  0  0  0  0  0  0  0  0  0  0  0
    5.3503    0.8182    0.7570 C   0  0  0  0  0  0  0  0  0  0  0  0
    5.4288    2.2347    1.2717 C   0  0  0  0  0  0  0  0  0  0  0  0
    4.4128   -1.3266   -0.1278 C   0  0  0  0  0  0  0  0  0  0  0  0
    5.7336   -1.7981   -0.0574 O   0  0  0  0  0  0  0  0  0  0  0  0
   -0.2814   -0.7326    0.9308 C   0  0  0  0  0  0  0  0  0  0  0  0
   -1.8299   -0.3820    1.0249 C   0  0  1  0  0  0  0  0  0  0  0  0
   -2.5368   -1.7238    1.3935 C   0  0  0  0  0  0  0  0  0  0  0  0
   -2.1730    0.7297    2.0687 C   0  0  2  0  0  0  0  0  0  0  0  0
   -1.6529    0.4639    3.3483 O   0  0  0  0  0  0  0  0  0  0  0  0
   -3.7101    1.0060    2.1292 C   0  0  0  0  0  0  0  0  0  0  0  0
   -4.4606    0.8007    0.8127 C   0  0  0  0  0  0  0  0  0  0  0  0
   -3.8664    0.3673   -0.3266 C   0  0  0  0  0  0  0  0  0  0  0  0
   -4.6835    0.0627   -1.5522 C   0  0  0  0  0  0  0  0  0  0  0  0
   -2.3636    0.2347   -0.3344 C   0  0  2  0  0  0  0  0  0  0  0  0
    1.7605   -1.1667   -4.1051 H   0  0  0  0  0  0  0  0  0  0  0  0
    2.4070   -0.5612   -2.4693 H   0  0  0  0  0  0  0  0  0  0  0  0
   -1.6048   -1.5353   -1.2802 H   0  0  0  0  0  0  0  0  0  0  0  0
   -0.2169    1.2197   -1.7525 H   0  0  0  0  0  0  0  0  0  0  0  0
    0.3354    1.1884    0.3742 H   0  0  0  0  0  0  0  0  0  0  0  0
    6.3204    0.3350    0.7409 H   0  0  0  0  0  0  0  0  0  0  0  0
    4.4866    2.7959    1.3273 H   0  0  0  0  0  0  0  0  0  0  0  0
    6.1164    2.8119    0.6196 H   0  0  0  0  0  0  0  0  0  0  0  0
    5.8531    2.2130    2.2970 H   0  0  0  0  0  0  0  0  0  0  0  0
    4.0385   -1.4368   -1.1682 H   0  0  0  0  0  0  0  0  0  0  0  0
    3.7842   -1.9836    0.5093 H   0  0  0  0  0  0  0  0  0  0  0  0
    6.1950   -1.4774   -0.8768 H   0  0  0  0  0  0  0  0  0  0  0  0
    0.1769   -0.7565    1.9427 H   0  0  0  0  0  0  0  0  0  0  0  0
   -0.1482   -1.7545    0.5088 H   0  0  0  0  0  0  0  0  0  0  0  0
   -2.1452   -2.1259    2.3507 H   0  0  0  0  0  0  0  0  0  0  0  0
   -2.3619   -2.4966    0.6168 H   0  0  0  0  0  0  0  0  0  0  0  0
   -3.6353   -1.6274    1.4935 H   0  0  0  0  0  0  0  0  0  0  0  0
   -1.6827    1.6658    1.7210 H   0  0  0  0  0  0  0  0  0  0  0  0
   -2.1580   -0.2972    3.7353 H   0  0  0  0  0  0  0  0  0  0  0  0
   -3.8909    2.0157    2.5547 H   0  0  0  0  0  0  0  0  0  0  0  0
   -4.1751    0.2702    2.8196 H   0  0  0  0  0  0  0  0  0  0  0  0
   -5.5388    0.9296    0.8387 H   0  0  0  0  0  0  0  0  0  0  0  0
   -5.7688    0.2194   -1.3751 H   0  0  0  0  0  0  0  0  0  0  0  0
   -4.5267   -0.9950   -1.8487 H   0  0  0  0  0  0  0  0  0  0  0  0
   -4.3702    0.7308   -2.3814 H   0  0  0  0  0  0  0  0  0  0  0  0
   -2.0608    1.3071   -0.4041 H   0  0  0  0  0  0  0  0  0  0  0  0
  1  2  2  0  0  0  0
  1 27  1  0  0  0  0
  1 28  1  0  0  0  0
  2  3  1  0  0  0  0
  3  4  2  0  0  0  0
  3  5  1  0  0  0  0
  6  5  1  0  0  0  0
  6  7  1  0  0  0  0
  6 29  1  1  0  0  0
  7  8  1  0  0  0  0
  7  2  1  0  0  0  0
  7 30  1  6  0  0  0
  8  9  1  0  0  0  0
  8 17  1  0  0  0  0
  8 31  1  1  0  0  0
  9 10  1  0  0  0  0
 10 11  2  0  0  0  0
 10 12  1  0  0  0  0
 12 13  2  0  0  0  0
 12 15  1  0  0  0  0
 13 14  1  0  0  0  0
 13 32  1  0  0  0  0
 14 33  1  0  0  0  0
 14 34  1  0  0  0  0
 14 35  1  0  0  0  0
 15 16  1  0  0  0  0
 15 36  1  0  0  0  0
 15 37  1  0  0  0  0
 16 38  1  0  0  0  0
 17 18  1  0  0  0  0
 17 39  1  0  0  0  0
 17 40  1  0  0  0  0
 18 19  1  1  0  0  0
 18 20  1  0  0  0  0
 19 41  1  0  0  0  0
 19 42  1  0  0  0  0
 19 43  1  0  0  0  0
 20 21  1  0  0  0  0
 20 22  1  0  0  0  0
 20 44  1  6  0  0  0
 21 45  1  0  0  0  0
 22 23  1  0  0  0  0
 22 46  1  0  0  0  0
 22 47  1  0  0  0  0
 23 24  2  0  0  0  0
 23 48  1  0  0  0  0
 24 25  1  0  0  0  0
 25 49  1  0  0  0  0
 25 50  1  0  0  0  0
 25 51  1  0  0  0  0
 26 24  1  0  0  0  0
 26 18  1  0  0  0  0
 26  6  1  0  0  0  0
 26 52  1  1  0  0  0
M  END
>  <IDENTIFIER>
CNP0157285.1

>  <Energy>
779.04

$$$$
