
 OpenBabel09072503203D

101110  0  0  0  0  0  0  0  0999 V2000
    0.9354    2.1910   -4.3952 C   0  0  0  0  0  0  0  0  0  0  0  0
   -0.3342    2.9997   -4.6705 C   0  0  0  0  0  0  0  0  0  0  0  0
   -1.5023    2.2648   -4.3583 O   0  0  0  0  0  0  0  0  0  0  0  0
   -1.7432    2.2042   -2.9605 C   0  0  1  0  0  0  0  0  0  0  0  0
   -3.0918    2.8895   -2.6435 C   0  0  0  0  0  0  0  0  0  0  0  0
   -3.4525    2.7491   -1.1517 C   0  0  0  0  0  0  0  0  0  0  0  0
   -3.4663    1.2550   -0.7949 C   0  0  2  0  0  0  0  0  0  0  0  0
   -3.7283    0.9031    0.6516 C   0  0  0  0  0  0  0  0  0  0  0  0
   -3.4507   -0.5877    0.5780 C   0  0  0  0  0  0  0  0  0  0  0  0
   -2.0962   -0.7913   -0.2971 C   0  0  2  0  0  0  0  0  0  0  0  0
   -2.4902   -1.8792   -1.3136 C   0  0  0  0  0  0  0  0  0  0  0  0
   -2.6727   -3.2601   -0.6657 C   0  0  1  0  0  0  0  0  0  0  0  0
   -2.7347   -4.2920   -1.8102 C   0  0  0  0  0  0  0  0  0  0  0  0
   -1.5917   -3.5787    0.4459 C   0  0  2  0  0  0  0  0  0  0  0  0
   -1.6832   -5.0648    0.9208 C   0  0  0  0  0  0  0  0  0  0  0  0
   -2.8585   -5.0249    1.9079 C   0  0  0  0  0  0  0  0  0  0  0  0
   -2.6059   -3.7024    2.5790 C   0  0  0  0  0  0  0  0  0  0  0  0
   -2.9227   -3.3807    4.0044 C   0  0  0  0  0  0  0  0  0  0  0  0
   -1.9373   -2.9078    1.7427 C   0  0  0  0  0  0  0  0  0  0  0  0
   -1.2292   -1.5747    1.9786 C   0  0  0  0  0  0  0  0  0  0  0  0
   -0.6642   -1.2937    0.5337 C   0  0  1  0  0  0  0  0  0  0  0  0
   -0.2187   -2.8480    0.2669 C   0  0  1  0  0  0  0  0  0  0  0  0
    0.7957   -3.4893    1.3575 C   0  0  0  0  0  0  0  0  0  0  0  0
    0.5664   -2.9315   -1.0576 C   0  0  0  0  0  0  0  0  0  0  0  0
    1.8761   -2.2391   -0.8305 C   0  0  0  0  0  0  0  0  0  0  0  0
    1.9709   -1.1031   -0.0946 C   0  0  0  0  0  0  0  0  0  0  0  0
    3.3624   -0.5828    0.1340 C   0  0  0  0  0  0  0  0  0  0  0  0
    3.6652    0.6119    0.6834 C   0  0  0  0  0  0  0  0  0  0  0  0
    2.6206    1.6553    1.0980 C   0  0  1  0  0  0  0  0  0  0  0  0
    1.7285    1.8798   -0.0744 C   0  0  0  0  0  0  0  0  0  0  0  0
    0.8525    0.9047   -0.3578 C   0  0  0  0  0  0  0  0  0  0  0  0
    0.7402   -0.3678    0.5248 C   0  0  1  0  0  0  0  0  0  0  0  0
    1.0727   -0.1074    1.9754 N   0  0  2  0  0  0  0  0  0  0  0  0
    0.3823    1.1346    2.4822 C   0  0  0  0  0  0  0  0  0  0  0  0
    1.8310    1.1206    2.2611 C   0  0  2  0  0  0  0  0  0  0  0  0
    2.7100    1.2147    3.4787 C   0  0  0  0  0  0  0  0  0  0  0  0
    3.2258    2.6487    3.2928 C   0  0  0  0  0  0  0  0  0  0  0  0
    3.2192    2.9379    1.7531 C   0  0  1  0  0  0  0  0  0  0  0  0
    4.5837    3.4592    1.2438 C   0  0  0  0  0  0  0  0  0  0  0  0
    4.6082    3.7299   -0.2678 C   0  0  0  0  0  0  0  0  0  0  0  0
    5.9980    4.1795   -0.7320 C   0  0  0  0  0  0  0  0  0  0  0  0
    6.3899    5.3608   -0.0876 O   0  0  0  0  0  0  0  0  0  0  0  0
   -2.0935    0.6214   -1.0130 C   0  0  1  0  0  0  0  0  0  0  0  0
   -1.7665    0.7189   -2.5319 C   0  0  0  0  0  0  0  0  0  0  0  0
    1.8237    2.7674   -4.7269 H   0  0  0  0  0  0  0  0  0  0  0  0
    0.9010    1.2277   -4.9461 H   0  0  0  0  0  0  0  0  0  0  0  0
    1.0467    1.9838   -3.3131 H   0  0  0  0  0  0  0  0  0  0  0  0
   -0.3638    3.2245   -5.7573 H   0  0  0  0  0  0  0  0  0  0  0  0
   -0.3124    3.9838   -4.1502 H   0  0  0  0  0  0  0  0  0  0  0  0
   -0.9611    2.7231   -2.3546 H   0  0  0  0  0  0  0  0  0  0  0  0
   -3.8922    2.4144   -3.2531 H   0  0  0  0  0  0  0  0  0  0  0  0
   -3.0432    3.9655   -2.9170 H   0  0  0  0  0  0  0  0  0  0  0  0
   -4.4498    3.2000   -0.9601 H   0  0  0  0  0  0  0  0  0  0  0  0
   -2.7010    3.2865   -0.5314 H   0  0  0  0  0  0  0  0  0  0  0  0
   -4.2349    0.7555   -1.4343 H   0  0  0  0  0  0  0  0  0  0  0  0
   -4.7626    1.1435    0.9795 H   0  0  0  0  0  0  0  0  0  0  0  0
   -3.0003    1.3961    1.3353 H   0  0  0  0  0  0  0  0  0  0  0  0
   -4.3321   -0.9625    0.0039 H   0  0  0  0  0  0  0  0  0  0  0  0
   -3.6373   -1.1241    1.5221 H   0  0  0  0  0  0  0  0  0  0  0  0
   -1.7511   -1.9089   -2.1128 H   0  0  0  0  0  0  0  0  0  0  0  0
   -3.4190   -1.6253   -1.8736 H   0  0  0  0  0  0  0  0  0  0  0  0
   -3.6710   -3.2850   -0.1773 H   0  0  0  0  0  0  0  0  0  0  0  0
   -1.7572   -4.3666   -2.3305 H   0  0  0  0  0  0  0  0  0  0  0  0
   -3.5108   -3.9942   -2.5485 H   0  0  0  0  0  0  0  0  0  0  0  0
   -3.0382   -5.2925   -1.4469 H   0  0  0  0  0  0  0  0  0  0  0  0
   -0.8245   -5.3487    1.5567 H   0  0  0  0  0  0  0  0  0  0  0  0
   -1.7113   -5.8514    0.1432 H   0  0  0  0  0  0  0  0  0  0  0  0
   -2.8527   -5.8990    2.5936 H   0  0  0  0  0  0  0  0  0  0  0  0
   -3.8248   -4.9741    1.3625 H   0  0  0  0  0  0  0  0  0  0  0  0
   -3.4294   -4.2425    4.4866 H   0  0  0  0  0  0  0  0  0  0  0  0
   -3.5889   -2.4943    4.0500 H   0  0  0  0  0  0  0  0  0  0  0  0
   -1.9825   -3.1659    4.5548 H   0  0  0  0  0  0  0  0  0  0  0  0
   -0.4661   -1.7577    2.7574 H   0  0  0  0  0  0  0  0  0  0  0  0
   -1.7968   -0.7291    2.4105 H   0  0  0  0  0  0  0  0  0  0  0  0
    1.7208   -2.9182    1.5539 H   0  0  0  0  0  0  0  0  0  0  0  0
    1.1285   -4.4929    1.0142 H   0  0  0  0  0  0  0  0  0  0  0  0
    0.3873   -3.6503    2.3735 H   0  0  0  0  0  0  0  0  0  0  0  0
    0.1256   -2.4456   -1.9253 H   0  0  0  0  0  0  0  0  0  0  0  0
    0.7583   -3.9855   -1.3529 H   0  0  0  0  0  0  0  0  0  0  0  0
    2.7743   -2.7351   -1.1869 H   0  0  0  0  0  0  0  0  0  0  0  0
    4.2004   -1.2062   -0.1672 H   0  0  0  0  0  0  0  0  0  0  0  0
    4.7194    0.8305    0.7771 H   0  0  0  0  0  0  0  0  0  0  0  0
    1.8147    2.7621   -0.7019 H   0  0  0  0  0  0  0  0  0  0  0  0
    0.3541    1.0290   -1.2749 H   0  0  0  0  0  0  0  0  0  0  0  0
    0.0074    0.9159    3.5038 H   0  0  0  0  0  0  0  0  0  0  0  0
   -0.3021    1.5920    1.7385 H   0  0  0  0  0  0  0  0  0  0  0  0
    3.5565    0.5073    3.3448 H   0  0  0  0  0  0  0  0  0  0  0  0
    2.2369    1.0294    4.4675 H   0  0  0  0  0  0  0  0  0  0  0  0
    4.1879    2.8288    3.8184 H   0  0  0  0  0  0  0  0  0  0  0  0
    2.4688    3.3308    3.7449 H   0  0  0  0  0  0  0  0  0  0  0  0
    2.4714    3.7533    1.6040 H   0  0  0  0  0  0  0  0  0  0  0  0
    5.3833    2.7358    1.5030 H   0  0  0  0  0  0  0  0  0  0  0  0
    4.8195    4.4009    1.7859 H   0  0  0  0  0  0  0  0  0  0  0  0
    3.8551    4.5065   -0.5257 H   0  0  0  0  0  0  0  0  0  0  0  0
    4.3596    2.8026   -0.8242 H   0  0  0  0  0  0  0  0  0  0  0  0
    6.0095    4.3226   -1.8365 H   0  0  0  0  0  0  0  0  0  0  0  0
    6.7424    3.3865   -0.5037 H   0  0  0  0  0  0  0  0  0  0  0  0
    5.8894    6.0997   -0.5235 H   0  0  0  0  0  0  0  0  0  0  0  0
   -1.4753    1.2805   -0.3887 H   0  0  0  0  0  0  0  0  0  0  0  0
   -2.5437    0.1877   -3.1235 H   0  0  0  0  0  0  0  0  0  0  0  0
   -0.8056    0.2317   -2.7903 H   0  0  0  0  0  0  0  0  0  0  0  0
  1  2  1  0  0  0  0
  1 45  1  0  0  0  0
  1 46  1  0  0  0  0
  1 47  1  0  0  0  0
  2  3  1  0  0  0  0
  2 48  1  0  0  0  0
  2 49  1  0  0  0  0
  4  3  1  0  0  0  0
  4  5  1  0  0  0  0
  4 50  1  1  0  0  0
  5  6  1  0  0  0  0
  5 51  1  0  0  0  0
  5 52  1  0  0  0  0
  6 53  1  0  0  0  0
  6 54  1  0  0  0  0
  7  6  1  0  0  0  0
  7  8  1  0  0  0  0
  7 55  1  6  0  0  0
  8  9  1  0  0  0  0
  8 56  1  0  0  0  0
  8 57  1  0  0  0  0
  9 58  1  0  0  0  0
  9 59  1  0  0  0  0
 10  9  1  1  0  0  0
 10 11  1  0  0  0  0
 10 43  1  0  0  0  0
 11 12  1  0  0  0  0
 11 60  1  0  0  0  0
 11 61  1  0  0  0  0
 12 13  1  0  0  0  0
 12 14  1  0  0  0  0
 12 62  1  1  0  0  0
 13 63  1  0  0  0  0
 13 64  1  0  0  0  0
 13 65  1  0  0  0  0
 14 15  1  0  0  0  0
 14 19  1  1  0  0  0
 15 16  1  0  0  0  0
 15 66  1  0  0  0  0
 15 67  1  0  0  0  0
 16 17  1  0  0  0  0
 16 68  1  0  0  0  0
 16 69  1  0  0  0  0
 17 18  1  0  0  0  0
 17 19  2  0  0  0  0
 18 70  1  0  0  0  0
 18 71  1  0  0  0  0
 18 72  1  0  0  0  0
 19 20  1  0  0  0  0
 20 73  1  0  0  0  0
 20 74  1  0  0  0  0
 21 20  1  1  0  0  0
 21 22  1  0  0  0  0
 21 10  1  0  0  0  0
 22 23  1  1  0  0  0
 22 24  1  0  0  0  0
 22 14  1  0  0  0  0
 23 75  1  0  0  0  0
 23 76  1  0  0  0  0
 23 77  1  0  0  0  0
 24 25  1  0  0  0  0
 24 78  1  0  0  0  0
 24 79  1  0  0  0  0
 25 26  2  0  0  0  0
 25 80  1  0  0  0  0
 26 27  1  0  0  0  0
 27 28  2  0  0  0  0
 27 81  1  0  0  0  0
 28 82  1  0  0  0  0
 29 28  1  6  0  0  0
 29 30  1  0  0  0  0
 30 31  2  0  0  0  0
 30 83  1  0  0  0  0
 31 84  1  0  0  0  0
 32 31  1  6  0  0  0
 32 33  1  0  0  0  0
 32 26  1  0  0  0  0
 32 21  1  0  0  0  0
 33 34  1  1  0  0  0
 34 85  1  0  0  0  0
 34 86  1  0  0  0  0
 35 34  1  1  0  0  0
 35 36  1  0  0  0  0
 35 33  1  0  0  0  0
 35 29  1  0  0  0  0
 36 37  1  0  0  0  0
 36 87  1  0  0  0  0
 36 88  1  0  0  0  0
 37 38  1  0  0  0  0
 37 89  1  0  0  0  0
 37 90  1  0  0  0  0
 38 39  1  0  0  0  0
 38 29  1  0  0  0  0
 38 91  1  6  0  0  0
 39 40  1  0  0  0  0
 39 92  1  0  0  0  0
 39 93  1  0  0  0  0
 40 41  1  0  0  0  0
 40 94  1  0  0  0  0
 40 95  1  0  0  0  0
 41 42  1  0  0  0  0
 41 96  1  0  0  0  0
 41 97  1  0  0  0  0
 42 98  1  0  0  0  0
 43 44  1  0  0  0  0
 43  7  1  0  0  0  0
 43 99  1  1  0  0  0
 44  4  1  0  0  0  0
 44100  1  0  0  0  0
 44101  1  0  0  0  0
M  END
>  <IDENTIFIER>
CNP0361543.2

>  <Energy>
3641.99

$$$$
