
 OpenBabel09062515573D

 67 72  0  0  0  0  0  0  0  0999 V2000
   -5.2874    5.6309    1.0656 C   0  0  0  0  0  0  0  0  0  0  0  0
   -4.2728    4.7065    1.2139 O   0  0  0  0  0  0  0  0  0  0  0  0
   -4.2849    3.4353    0.7342 C   0  0  0  0  0  0  0  0  0  0  0  0
   -5.3691    2.9108    0.0089 C   0  0  0  0  0  0  0  0  0  0  0  0
   -5.3374    1.5967   -0.4642 C   0  0  0  0  0  0  0  0  0  0  0  0
   -4.2196    0.7668   -0.2262 C   0  0  0  0  0  0  0  0  0  0  0  0
   -4.1442   -0.6474   -0.7112 C   0  0  0  0  0  0  0  0  0  0  0  0
   -5.1771   -1.2575   -1.4399 C   0  0  0  0  0  0  0  0  0  0  0  0
   -5.0465   -2.5807   -1.8571 C   0  0  0  0  0  0  0  0  0  0  0  0
   -5.9645   -3.0724   -2.4863 O   0  0  0  0  0  0  0  0  0  0  0  0
   -3.8728   -3.3108   -1.5459 C   0  0  0  0  0  0  0  0  0  0  0  0
   -3.6324   -4.6698   -1.9217 C   0  0  0  0  0  0  0  0  0  0  0  0
   -4.4983   -5.4340   -2.6277 O   0  0  0  0  0  0  0  0  0  0  0  0
   -2.4316   -5.2840   -1.5542 C   0  0  0  0  0  0  0  0  0  0  0  0
   -1.4555   -4.5985   -0.8292 C   0  0  0  0  0  0  0  0  0  0  0  0
   -0.3014   -5.2145   -0.4934 O   0  0  0  0  0  0  0  0  0  0  0  0
   -1.6735   -3.2674   -0.4545 C   0  0  0  0  0  0  0  0  0  0  0  0
   -0.6278   -2.5427    0.2917 C   0  0  0  0  0  0  0  0  0  0  0  0
   -0.5957   -2.5847    1.6881 C   0  0  0  0  0  0  0  0  0  0  0  0
    0.4049   -1.9119    2.3943 C   0  0  0  0  0  0  0  0  0  0  0  0
    0.3918   -1.9869    3.7511 O   0  0  0  0  0  0  0  0  0  0  0  0
    1.3031   -1.3961    4.6020 C   0  0  0  0  0  0  0  0  0  0  0  0
    1.3853   -1.1900    1.6815 C   0  0  0  0  0  0  0  0  0  0  0  0
    1.3709   -1.1372    0.2717 C   0  0  0  0  0  0  0  0  0  0  0  0
    2.4377   -0.3667   -0.4421 C   0  0  0  0  0  0  0  0  0  0  0  0
    2.5042   -0.2672   -1.8422 C   0  0  0  0  0  0  0  0  0  0  0  0
    3.5304    0.4655   -2.4399 C   0  0  0  0  0  0  0  0  0  0  0  0
    3.5543    0.5281   -3.6547 O   0  0  0  0  0  0  0  0  0  0  0  0
    4.5031    1.1076   -1.6353 C   0  0  0  0  0  0  0  0  0  0  0  0
    5.5980    1.8841   -2.1299 C   0  0  0  0  0  0  0  0  0  0  0  0
    5.8453    2.1056   -3.4421 O   0  0  0  0  0  0  0  0  0  0  0  0
    6.4935    2.4689   -1.2257 C   0  0  0  0  0  0  0  0  0  0  0  0
    6.3407    2.3096    0.1617 C   0  0  0  0  0  0  0  0  0  0  0  0
    7.1935    2.8654    1.0616 O   0  0  0  0  0  0  0  0  0  0  0  0
    8.2928    3.6416    0.7573 C   0  0  0  0  0  0  0  0  0  0  0  0
    5.2745    1.5530    0.6433 C   0  0  0  0  0  0  0  0  0  0  0  0
    4.3637    0.9570   -0.2309 C   0  0  0  0  0  0  0  0  0  0  0  0
    3.3662    0.2472    0.2855 O   0  0  0  0  0  0  0  0  0  0  0  0
    0.3461   -1.8250   -0.4108 C   0  0  0  0  0  0  0  0  0  0  0  0
   -2.8720   -2.6222   -0.8066 C   0  0  0  0  0  0  0  0  0  0  0  0
   -3.0526   -1.3555   -0.4358 O   0  0  0  0  0  0  0  0  0  0  0  0
   -3.1387    1.3043    0.5016 C   0  0  0  0  0  0  0  0  0  0  0  0
   -3.1743    2.6204    0.9736 C   0  0  0  0  0  0  0  0  0  0  0  0
   -4.9926    6.5778    1.5621 H   0  0  0  0  0  0  0  0  0  0  0  0
   -6.2198    5.2577    1.5408 H   0  0  0  0  0  0  0  0  0  0  0  0
   -5.4654    5.8367   -0.0116 H   0  0  0  0  0  0  0  0  0  0  0  0
   -6.2461    3.5103   -0.1961 H   0  0  0  0  0  0  0  0  0  0  0  0
   -6.2007    1.2568   -1.0117 H   0  0  0  0  0  0  0  0  0  0  0  0
   -6.0860   -0.7353   -1.6946 H   0  0  0  0  0  0  0  0  0  0  0  0
   -5.3600   -5.1739   -2.9655 H   0  0  0  0  0  0  0  0  0  0  0  0
   -2.2542   -6.3134   -1.8425 H   0  0  0  0  0  0  0  0  0  0  0  0
   -0.1151   -6.1322   -0.7379 H   0  0  0  0  0  0  0  0  0  0  0  0
   -1.3493   -3.1449    2.2292 H   0  0  0  0  0  0  0  0  0  0  0  0
    1.0303   -1.6377    5.6497 H   0  0  0  0  0  0  0  0  0  0  0  0
    1.2857   -0.2924    4.4773 H   0  0  0  0  0  0  0  0  0  0  0  0
    2.3237   -1.7875    4.4034 H   0  0  0  0  0  0  0  0  0  0  0  0
    2.1631   -0.6708    2.2245 H   0  0  0  0  0  0  0  0  0  0  0  0
    1.7826   -0.7431   -2.4875 H   0  0  0  0  0  0  0  0  0  0  0  0
    5.3354    1.7816   -4.1901 H   0  0  0  0  0  0  0  0  0  0  0  0
    7.3145    3.0525   -1.6217 H   0  0  0  0  0  0  0  0  0  0  0  0
    8.7909    3.9498    1.6992 H   0  0  0  0  0  0  0  0  0  0  0  0
    7.9778    4.5546    0.2082 H   0  0  0  0  0  0  0  0  0  0  0  0
    9.0168    3.0599    0.1477 H   0  0  0  0  0  0  0  0  0  0  0  0
    5.1504    1.4256    1.7122 H   0  0  0  0  0  0  0  0  0  0  0  0
    0.2813   -1.8269   -1.4868 H   0  0  0  0  0  0  0  0  0  0  0  0
   -2.2591    0.7081    0.7106 H   0  0  0  0  0  0  0  0  0  0  0  0
   -2.3311    3.0095    1.5308 H   0  0  0  0  0  0  0  0  0  0  0  0
  1  2  1  0  0  0  0
  1 44  1  0  0  0  0
  1 45  1  0  0  0  0
  1 46  1  0  0  0  0
  2  3  1  0  0  0  0
  3  4  2  0  0  0  0
  4  5  1  0  0  0  0
  4 47  1  0  0  0  0
  5  6  2  0  0  0  0
  5 48  1  0  0  0  0
  6  7  1  0  0  0  0
  6 42  1  0  0  0  0
  7  8  2  0  0  0  0
  8  9  1  0  0  0  0
  8 49  1  0  0  0  0
  9 10  2  0  0  0  0
  9 11  1  0  0  0  0
 11 12  2  0  0  0  0
 12 13  1  0  0  0  0
 12 14  1  0  0  0  0
 13 50  1  0  0  0  0
 14 15  2  0  0  0  0
 14 51  1  0  0  0  0
 15 16  1  0  0  0  0
 15 17  1  0  0  0  0
 16 52  1  0  0  0  0
 17 18  1  0  0  0  0
 17 40  2  0  0  0  0
 18 19  2  0  0  0  0
 19 20  1  0  0  0  0
 19 53  1  0  0  0  0
 20 21  1  0  0  0  0
 20 23  2  0  0  0  0
 21 22  1  0  0  0  0
 22 54  1  0  0  0  0
 22 55  1  0  0  0  0
 22 56  1  0  0  0  0
 23 24  1  0  0  0  0
 23 57  1  0  0  0  0
 24 25  1  0  0  0  0
 24 39  2  0  0  0  0
 25 26  2  0  0  0  0
 26 27  1  0  0  0  0
 26 58  1  0  0  0  0
 27 28  2  0  0  0  0
 27 29  1  0  0  0  0
 29 30  2  0  0  0  0
 30 31  1  0  0  0  0
 30 32  1  0  0  0  0
 31 59  1  0  0  0  0
 32 33  2  0  0  0  0
 32 60  1  0  0  0  0
 33 34  1  0  0  0  0
 33 36  1  0  0  0  0
 34 35  1  0  0  0  0
 35 61  1  0  0  0  0
 35 62  1  0  0  0  0
 35 63  1  0  0  0  0
 36 37  2  0  0  0  0
 36 64  1  0  0  0  0
 37 38  1  0  0  0  0
 37 29  1  0  0  0  0
 38 25  1  0  0  0  0
 39 18  1  0  0  0  0
 39 65  1  0  0  0  0
 40 41  1  0  0  0  0
 40 11  1  0  0  0  0
 41  7  1  0  0  0  0
 42 43  2  0  0  0  0
 42 66  1  0  0  0  0
 43  3  1  0  0  0  0
 43 67  1  0  0  0  0
M  END
>  <IDENTIFIER>
CNP0352324.0

>  <Energy>
618.344

$$$$
