
 OpenBabel09132511273D

 15 16  0  0  0  0  0  0  0  0999 V2000
   -1.6176   -1.4702   -0.1392 C   0  0  0  0  0  0  0  0  0  0  0  0
   -0.7700   -0.4409   -0.0770 C   0  0  0  0  0  0  0  0  0  0  0  0
   -1.0604    0.9307    0.0445 C   0  0  0  0  0  0  0  0  0  0  0  0
   -2.2798    1.4982    0.1248 O   0  0  0  0  0  0  0  0  0  0  0  0
    0.1570    1.6358    0.0698 C   0  0  0  0  0  0  0  0  0  0  0  0
    1.1049    0.6440   -0.0381 C   0  0  0  0  0  0  0  0  0  0  0  0
    2.4413    0.5883   -0.0791 N   0  0  0  0  0  0  0  0  0  0  0  0
    2.6514   -0.7594   -0.1964 C   0  0  0  0  0  0  0  0  0  0  0  0
    1.4842   -1.4688   -0.2235 N   0  0  0  0  0  0  0  0  0  0  0  0
    0.5638   -0.5345   -0.1211 N   0  0  0  0  0  0  0  0  0  0  0  0
   -2.6904   -1.3167   -0.0973 H   0  0  0  0  0  0  0  0  0  0  0  0
   -1.2418   -2.4842   -0.2335 H   0  0  0  0  0  0  0  0  0  0  0  0
   -3.0917    0.9741    0.1035 H   0  0  0  0  0  0  0  0  0  0  0  0
    0.3119    2.7031    0.1541 H   0  0  0  0  0  0  0  0  0  0  0  0
    3.6318   -1.2119   -0.2606 H   0  0  0  0  0  0  0  0  0  0  0  0
  1  2  2  0  0  0  0
  1 11  1  0  0  0  0
  1 12  1  0  0  0  0
  2  3  1  0  0  0  0
  3  4  1  0  0  0  0
  3  5  2  0  0  0  0
  4 13  1  0  0  0  0
  5  6  1  0  0  0  0
  5 14  1  0  0  0  0
  6  7  2  0  0  0  0
  7  8  1  0  0  0  0
  8  9  2  0  0  0  0
  8 15  1  0  0  0  0
  9 10  1  0  0  0  0
 10  2  1  0  0  0  0
 10  6  1  0  0  0  0
M  END
>  <IDENTIFIER>
CNP0000601.0

>  <Energy>
452.519

$$$$
