
 OpenBabel09112508483D

 55 56  0  0  0  0  0  0  0  0999 V2000
   -7.5372    1.1866    0.4446 C   0  0  0  0  0  0  0  0  0  0  0  0
   -7.5148   -0.3254    0.4580 C   0  0  0  0  0  0  0  0  0  0  0  0
   -8.7975   -1.0837    0.2452 C   0  0  0  0  0  0  0  0  0  0  0  0
   -6.3747   -1.0273    0.6481 C   0  0  0  0  0  0  0  0  0  0  0  0
   -5.0218   -0.4044    0.8779 C   0  0  0  0  0  0  0  0  0  0  0  0
   -4.0503   -0.7893   -0.2456 C   0  0  0  0  0  0  0  0  0  0  0  0
   -2.7239   -0.0936   -0.0372 C   0  0  0  0  0  0  0  0  0  0  0  0
   -2.6875    1.4184   -0.1212 C   0  0  0  0  0  0  0  0  0  0  0  0
   -1.6117   -0.8216    0.2188 C   0  0  0  0  0  0  0  0  0  0  0  0
   -0.2574   -0.2167    0.4956 C   0  0  0  0  0  0  0  0  0  0  0  0
    0.7793   -0.6275   -0.5562 C   0  0  0  0  0  0  0  0  0  0  0  0
    2.1704   -0.0104   -0.3880 C   0  0  0  0  0  0  0  0  0  0  0  0
    3.1521   -0.3684   -1.4760 C   0  0  0  0  0  0  0  0  0  0  0  0
    2.4670    0.8322    0.6505 C   0  0  0  0  0  0  0  0  0  0  0  0
    3.7323    1.5986    0.9942 C   0  0  0  0  0  0  0  0  0  0  0  0
    4.9891    1.3115    0.2353 C   0  0  0  0  0  0  0  0  0  0  0  0
    5.6357    2.1696   -0.6469 C   0  0  0  0  0  0  0  0  0  0  0  0
    6.7581    1.5834   -1.1242 N   0  0  0  0  0  0  0  0  0  0  0  0
    6.8306    0.3746   -0.5392 C   0  0  0  0  0  0  0  0  0  0  0  0
    7.8193   -0.5930   -0.7114 C   0  0  0  0  0  0  0  0  0  0  0  0
    7.6967   -1.7920    0.0160 C   0  0  0  0  0  0  0  0  0  0  0  0
    6.6053   -1.9923    0.8904 C   0  0  0  0  0  0  0  0  0  0  0  0
    5.6241   -0.9970    1.0440 C   0  0  0  0  0  0  0  0  0  0  0  0
    5.7699    0.1774    0.3043 C   0  0  0  0  0  0  0  0  0  0  0  0
   -8.5581    1.5817    0.2637 H   0  0  0  0  0  0  0  0  0  0  0  0
   -6.8784    1.5651   -0.3662 H   0  0  0  0  0  0  0  0  0  0  0  0
   -7.1887    1.5826    1.4219 H   0  0  0  0  0  0  0  0  0  0  0  0
   -9.6586   -0.3997    0.0949 H   0  0  0  0  0  0  0  0  0  0  0  0
   -9.0078   -1.7172    1.1329 H   0  0  0  0  0  0  0  0  0  0  0  0
   -8.7057   -1.7311   -0.6523 H   0  0  0  0  0  0  0  0  0  0  0  0
   -6.4179   -2.1137    0.6354 H   0  0  0  0  0  0  0  0  0  0  0  0
   -4.6242   -0.7603    1.8533 H   0  0  0  0  0  0  0  0  0  0  0  0
   -5.0949    0.6961    0.9407 H   0  0  0  0  0  0  0  0  0  0  0  0
   -4.4577   -0.4858   -1.2347 H   0  0  0  0  0  0  0  0  0  0  0  0
   -3.9350   -1.8963   -0.2460 H   0  0  0  0  0  0  0  0  0  0  0  0
   -3.6800    1.8402   -0.3803 H   0  0  0  0  0  0  0  0  0  0  0  0
   -1.9841    1.7323   -0.9216 H   0  0  0  0  0  0  0  0  0  0  0  0
   -2.3706    1.8500    0.8514 H   0  0  0  0  0  0  0  0  0  0  0  0
   -1.6790   -1.9060    0.2539 H   0  0  0  0  0  0  0  0  0  0  0  0
    0.0680   -0.5570    1.5021 H   0  0  0  0  0  0  0  0  0  0  0  0
   -0.3129    0.8878    0.5000 H   0  0  0  0  0  0  0  0  0  0  0  0
    0.3915   -0.3129   -1.5505 H   0  0  0  0  0  0  0  0  0  0  0  0
    0.8768   -1.7355   -0.5530 H   0  0  0  0  0  0  0  0  0  0  0  0
    2.6745   -1.0055   -2.2511 H   0  0  0  0  0  0  0  0  0  0  0  0
    3.9869   -0.9645   -1.0750 H   0  0  0  0  0  0  0  0  0  0  0  0
    3.5196    0.5491   -1.9803 H   0  0  0  0  0  0  0  0  0  0  0  0
    1.6948    1.0669    1.3683 H   0  0  0  0  0  0  0  0  0  0  0  0
    3.9646    1.4320    2.0672 H   0  0  0  0  0  0  0  0  0  0  0  0
    3.4762    2.6740    0.8778 H   0  0  0  0  0  0  0  0  0  0  0  0
    5.3041    3.1624   -0.9251 H   0  0  0  0  0  0  0  0  0  0  0  0
    7.4333    1.9962   -1.8045 H   0  0  0  0  0  0  0  0  0  0  0  0
    8.6532   -0.4278   -1.3800 H   0  0  0  0  0  0  0  0  0  0  0  0
    8.4458   -2.5645   -0.0942 H   0  0  0  0  0  0  0  0  0  0  0  0
    6.5216   -2.9174    1.4454 H   0  0  0  0  0  0  0  0  0  0  0  0
    4.7825   -1.1411    1.7097 H   0  0  0  0  0  0  0  0  0  0  0  0
  1  2  1  0  0  0  0
  1 25  1  0  0  0  0
  1 26  1  0  0  0  0
  1 27  1  0  0  0  0
  2  3  1  0  0  0  0
  2  4  2  0  0  0  0
  3 28  1  0  0  0  0
  3 29  1  0  0  0  0
  3 30  1  0  0  0  0
  4  5  1  0  0  0  0
  4 31  1  0  0  0  0
  5  6  1  0  0  0  0
  5 32  1  0  0  0  0
  5 33  1  0  0  0  0
  6  7  1  0  0  0  0
  6 34  1  0  0  0  0
  6 35  1  0  0  0  0
  7  8  1  0  0  0  0
  7  9  2  3  0  0  0
  8 36  1  0  0  0  0
  8 37  1  0  0  0  0
  8 38  1  0  0  0  0
  9 10  1  0  0  0  0
  9 39  1  0  0  0  0
 10 11  1  0  0  0  0
 10 40  1  0  0  0  0
 10 41  1  0  0  0  0
 11 12  1  0  0  0  0
 11 42  1  0  0  0  0
 11 43  1  0  0  0  0
 12 13  1  0  0  0  0
 12 14  2  3  0  0  0
 13 44  1  0  0  0  0
 13 45  1  0  0  0  0
 13 46  1  0  0  0  0
 14 15  1  0  0  0  0
 14 47  1  0  0  0  0
 15 16  1  0  0  0  0
 15 48  1  0  0  0  0
 15 49  1  0  0  0  0
 16 17  2  0  0  0  0
 17 18  1  0  0  0  0
 17 50  1  0  0  0  0
 18 19  1  0  0  0  0
 18 51  1  0  0  0  0
 19 20  2  0  0  0  0
 20 21  1  0  0  0  0
 20 52  1  0  0  0  0
 21 22  2  0  0  0  0
 21 53  1  0  0  0  0
 22 23  1  0  0  0  0
 22 54  1  0  0  0  0
 23 24  2  0  0  0  0
 23 55  1  0  0  0  0
 24 16  1  0  0  0  0
 24 19  1  0  0  0  0
M  END
>  <IDENTIFIER>
CNP0148032.0

>  <Energy>
375.227

$$$$
