
 OpenBabel09082502033D

 54 59  0  0  0  0  0  0  0  0999 V2000
    2.1482   -1.9995    0.1318 O   0  0  0  0  0  0  0  0  0  0  0  0
    1.6074   -0.9154    0.3083 C   0  0  0  0  0  0  0  0  0  0  0  0
    0.1168   -0.9080    0.5592 C   0  0  2  0  0  0  0  0  0  0  0  0
   -0.6448   -1.6323   -0.5628 C   0  0  0  0  0  0  0  0  0  0  0  0
   -2.0618   -1.7237   -0.1044 C   0  0  0  0  0  0  0  0  0  0  0  0
   -2.6585   -0.7288    0.6391 C   0  0  0  0  0  0  0  0  0  0  0  0
   -3.9411   -1.0469    0.9290 N   0  0  0  0  0  0  0  0  0  0  0  0
   -4.1417   -2.2657    0.3883 C   0  0  0  0  0  0  0  0  0  0  0  0
   -5.3058   -3.0302    0.4346 C   0  0  0  0  0  0  0  0  0  0  0  0
   -5.2900   -4.2885   -0.1955 C   0  0  0  0  0  0  0  0  0  0  0  0
   -4.1255   -4.7481   -0.8511 C   0  0  0  0  0  0  0  0  0  0  0  0
   -2.9631   -3.9554   -0.8838 C   0  0  0  0  0  0  0  0  0  0  0  0
   -3.0072   -2.7150   -0.2488 C   0  0  0  0  0  0  0  0  0  0  0  0
   -1.9347    0.5265    1.0565 C   0  0  2  0  0  0  0  0  0  0  0  0
   -2.6000    1.6827    0.3276 C   0  0  0  0  0  0  0  0  0  0  0  0
   -3.2556    2.6885    1.0613 C   0  0  0  0  0  0  0  0  0  0  0  0
   -3.8665    3.7598    0.4046 C   0  0  0  0  0  0  0  0  0  0  0  0
   -3.8305    3.8390   -0.9894 C   0  0  0  0  0  0  0  0  0  0  0  0
   -3.1829    2.8457   -1.7293 C   0  0  0  0  0  0  0  0  0  0  0  0
   -2.5698    1.7711   -1.0771 C   0  0  0  0  0  0  0  0  0  0  0  0
   -0.4742    0.4269    0.7823 N   0  0  0  0  0  0  0  0  0  0  0  0
    0.3157    1.5471    0.8307 C   0  0  0  0  0  0  0  0  0  0  0  0
   -0.1730    2.6382    1.0885 O   0  0  0  0  0  0  0  0  0  0  0  0
    1.7954    1.5245    0.5773 C   0  0  0  0  0  0  0  0  0  0  0  0
    2.3685    0.2119    0.3195 N   0  0  0  0  0  0  0  0  0  0  0  0
    3.7395    0.0644    0.1550 N   0  0  0  0  0  0  0  0  0  0  0  0
    4.5800    1.0416    0.0531 C   0  0  0  0  0  0  0  0  0  0  0  0
    6.0349    0.7849   -0.0293 C   0  0  0  0  0  0  0  0  0  0  0  0
    6.5595   -0.5167    0.0520 C   0  0  0  0  0  0  0  0  0  0  0  0
    7.9427   -0.7066   -0.0063 C   0  0  0  0  0  0  0  0  0  0  0  0
    8.7734    0.3604   -0.1446 N   0  0  0  0  0  0  0  0  0  0  0  0
    8.2944    1.6295   -0.2285 C   0  0  0  0  0  0  0  0  0  0  0  0
    6.9187    1.8650   -0.1704 C   0  0  0  0  0  0  0  0  0  0  0  0
   -0.0269   -1.5056    1.4891 H   0  0  0  0  0  0  0  0  0  0  0  0
   -0.2475   -2.6492   -0.7690 H   0  0  0  0  0  0  0  0  0  0  0  0
   -0.5827   -1.0195   -1.4879 H   0  0  0  0  0  0  0  0  0  0  0  0
   -4.6238   -0.4755    1.4739 H   0  0  0  0  0  0  0  0  0  0  0  0
   -6.1921   -2.6704    0.9406 H   0  0  0  0  0  0  0  0  0  0  0  0
   -6.1768   -4.9083   -0.1766 H   0  0  0  0  0  0  0  0  0  0  0  0
   -4.1277   -5.7176   -1.3319 H   0  0  0  0  0  0  0  0  0  0  0  0
   -2.0680   -4.3007   -1.3845 H   0  0  0  0  0  0  0  0  0  0  0  0
   -2.0529    0.6518    2.1553 H   0  0  0  0  0  0  0  0  0  0  0  0
   -3.2928    2.6450    2.1428 H   0  0  0  0  0  0  0  0  0  0  0  0
   -4.3680    4.5296    0.9771 H   0  0  0  0  0  0  0  0  0  0  0  0
   -4.3035    4.6701   -1.4955 H   0  0  0  0  0  0  0  0  0  0  0  0
   -3.1555    2.9096   -2.8092 H   0  0  0  0  0  0  0  0  0  0  0  0
   -2.0705    1.0113   -1.6635 H   0  0  0  0  0  0  0  0  0  0  0  0
    2.2884    1.9478    1.4796 H   0  0  0  0  0  0  0  0  0  0  0  0
    1.9959    2.1866   -0.2927 H   0  0  0  0  0  0  0  0  0  0  0  0
    4.2476    2.0737    0.0507 H   0  0  0  0  0  0  0  0  0  0  0  0
    5.9114   -1.3762    0.1682 H   0  0  0  0  0  0  0  0  0  0  0  0
    8.3566   -1.7037    0.0628 H   0  0  0  0  0  0  0  0  0  0  0  0
    8.9819    2.4577   -0.3368 H   0  0  0  0  0  0  0  0  0  0  0  0
    6.5483    2.8810   -0.2335 H   0  0  0  0  0  0  0  0  0  0  0  0
  1  2  2  0  0  0  0
  2  3  1  0  0  0  0
  3  4  1  0  0  0  0
  3 34  1  1  0  0  0
  4  5  1  0  0  0  0
  4 35  1  0  0  0  0
  4 36  1  0  0  0  0
  5  6  2  0  0  0  0
  6  7  1  0  0  0  0
  6 14  1  0  0  0  0
  7  8  1  0  0  0  0
  7 37  1  0  0  0  0
  8  9  2  0  0  0  0
  9 10  1  0  0  0  0
  9 38  1  0  0  0  0
 10 11  2  0  0  0  0
 10 39  1  0  0  0  0
 11 12  1  0  0  0  0
 11 40  1  0  0  0  0
 12 13  2  0  0  0  0
 12 41  1  0  0  0  0
 13  5  1  0  0  0  0
 13  8  1  0  0  0  0
 14 15  1  0  0  0  0
 14 21  1  0  0  0  0
 14 42  1  1  0  0  0
 15 16  2  0  0  0  0
 16 17  1  0  0  0  0
 16 43  1  0  0  0  0
 17 18  2  0  0  0  0
 17 44  1  0  0  0  0
 18 19  1  0  0  0  0
 18 45  1  0  0  0  0
 19 20  2  0  0  0  0
 19 46  1  0  0  0  0
 20 15  1  0  0  0  0
 20 47  1  0  0  0  0
 21 22  1  0  0  0  0
 21  3  1  0  0  0  0
 22 23  2  0  0  0  0
 22 24  1  0  0  0  0
 24 25  1  0  0  0  0
 24 48  1  0  0  0  0
 24 49  1  0  0  0  0
 25 26  1  0  0  0  0
 25  2  1  0  0  0  0
 26 27  2  0  0  0  0
 27 28  1  0  0  0  0
 27 50  1  0  0  0  0
 28 29  2  0  0  0  0
 29 30  1  0  0  0  0
 29 51  1  0  0  0  0
 30 31  2  0  0  0  0
 30 52  1  0  0  0  0
 31 32  1  0  0  0  0
 32 33  2  0  0  0  0
 32 53  1  0  0  0  0
 33 28  1  0  0  0  0
 33 54  1  0  0  0  0
M  END
>  <IDENTIFIER>
CNP0377785.1

>  <Energy>
510.609

$$$$
