
 OpenBabel09082510132D

163162  0  0  0  0  0  0  0  0999 V2000
   -3.7500   -6.4952    0.0000 C   0  0  0  0  0  0  0  0  0  0  0  0
   -3.0000   -5.1962    0.0000 C   0  0  0  0  0  0  0  0  0  0  0  0
   -3.2386   -3.7610   -0.5113 C   0  0  0  0  0  0  0  0  0  0  0  0
   -1.9627   -2.9141   -0.0898 C   0  0  0  0  0  0  0  0  0  0  0  0
   -1.9649   -1.4404   -0.5246 C   0  0  0  0  0  0  0  0  0  0  0  0
   -0.9773   -0.5310    0.2239 C   0  0  0  0  0  0  0  0  0  0  0  0
    0.3726   -0.3445    0.1336 C   0  0  0  0  0  0  0  0  0  0  0  0
    1.4079   -0.9954   -0.7647 C   0  0  0  0  0  0  0  0  0  0  0  0
    2.7042   -1.2756    0.0151 C   0  0  0  0  0  0  0  0  0  0  0  0
    3.9356   -0.7108   -0.2085 C   0  0  0  0  0  0  0  0  0  0  0  0
    4.2107    0.3004   -1.3096 C   0  0  0  0  0  0  0  0  0  0  0  0
    5.5912    0.9497   -1.5582 C   0  0  0  0  0  0  0  0  0  0  0  0
    6.8147    0.9109   -0.9542 C   0  0  0  0  0  0  0  0  0  0  0  0
    7.1979    0.1481    0.2786 C   0  0  0  0  0  0  0  0  0  0  0  0
    8.6301    0.2175    0.8499 C   0  0  0  0  0  0  0  0  0  0  0  0
    9.8461    0.7679    0.5271 C   0  0  0  0  0  0  0  0  0  0  0  0
   10.3771    1.6102   -0.6281 C   0  0  0  0  0  0  0  0  0  0  0  0
   11.1706    2.8528   -0.1224 C   0  0  0  0  0  2  0  0  0  0  0  0
   12.2859    3.3253   -1.1010 C   0  0  0  0  0  0  0  0  0  0  0  0
   12.8429    4.7106   -0.7880 C   0  0  0  0  0  0  0  0  0  0  0  0
   12.0645    5.6489   -0.8020 O   0  0  0  0  0  0  0  0  0  0  0  0
   14.1935    4.9385   -0.6150 O   0  0  0  0  0  0  0  0  0  0  0  0
   14.7990    6.1854   -0.3645 C   0  0  2  0  0  0  0  0  0  0  0  0
   16.3426    6.1242   -0.5724 C   0  0  0  0  0  0  0  0  0  0  0  0
   16.9400    7.3853   -0.4017 O   0  0  0  0  0  0  0  0  0  0  0  0
   18.2167    7.7111   -0.7922 C   0  0  0  0  0  0  0  0  0  0  0  0
   18.8756    6.9004   -1.4274 O   0  0  0  0  0  0  0  0  0  0  0  0
   18.8000    9.1212   -0.5741 C   0  0  0  0  0  0  0  0  0  0  0  0
   20.2500    9.0933    0.0000 C   0  0  0  0  0  0  0  0  0  0  0  0
   21.0000   10.3923    0.0000 C   0  0  0  0  0  0  0  0  0  0  0  0
   21.7500   11.6913    0.0000 C   0  0  0  0  0  0  0  0  0  0  0  0
   22.4846   12.0968    1.2915 C   0  0  0  0  0  0  0  0  0  0  0  0
   23.7795   12.5073    1.5169 C   0  0  0  0  0  0  0  0  0  0  0  0
   25.0207   12.7134    0.6124 C   0  0  0  0  0  0  0  0  0  0  0  0
   26.3021   12.2836    1.3625 C   0  0  0  0  0  0  0  0  0  0  0  0
   27.6224   12.6235    1.1614 C   0  0  0  0  0  0  0  0  0  0  0  0
   28.2464   13.5239    0.0867 C   0  0  0  0  0  0  0  0  0  0  0  0
   29.7456   13.9330    0.3161 C   0  0  0  0  0  0  0  0  0  0  0  0
   30.8778   13.1457    0.2872 C   0  0  0  0  0  0  0  0  0  0  0  0
   30.7500   11.6913    0.0000 C   0  0  0  0  0  0  0  0  0  0  0  0
   31.5000   10.3923    0.0000 C   0  0  0  0  0  0  0  0  0  0  0  0
   32.2500    9.0933    0.0000 C   0  0  0  0  0  0  0  0  0  0  0  0
   31.9421    8.2844   -1.2703 C   0  0  0  0  0  0  0  0  0  0  0  0
   32.6553    6.9351   -1.2516 C   0  0  0  0  0  0  0  0  0  0  0  0
   14.4729    6.6999    1.0498 C   0  0  0  0  0  0  0  0  0  0  0  0
   13.1518    7.1131    1.1163 O   0  0  0  0  0  0  0  0  0  0  0  0
   12.7757    8.4155    1.2333 C   0  0  0  0  0  0  0  0  0  0  0  0
   13.6133    9.3070    1.2912 O   0  0  0  0  0  0  0  0  0  0  0  0
   11.3282    8.8021    1.2739 C   0  0  0  0  0  0  0  0  0  0  0  0
   10.5538    8.3971    0.0000 C   0  0  0  0  0  0  0  0  0  0  0  0
    9.2548    9.1471    0.0000 C   0  0  0  0  0  0  0  0  0  0  0  0
    7.9558    9.8971    0.0000 C   0  0  0  0  0  0  0  0  0  0  0  0
    6.6567   10.6471    0.0000 C   0  0  0  0  0  0  0  0  0  0  0  0
    5.3577   11.3971    0.0000 C   0  0  0  0  0  0  0  0  0  0  0  0
    4.0587   12.1471    0.0000 C   0  0  0  0  0  0  0  0  0  0  0  0
    2.7264   12.6844   -0.9117 C   0  0  0  0  0  0  0  0  0  0  0  0
    1.4586   13.6037   -0.2054 C   0  0  0  0  0  0  0  0  0  0  0  0
    0.1522   14.3810   -0.9923 C   0  0  0  0  0  0  0  0  0  0  0  0
   -1.1378   15.1862   -0.2064 C   0  0  0  0  0  0  0  0  0  0  0  0
   -2.4191   16.0822   -0.9182 C   0  0  0  0  0  0  0  0  0  0  0  0
   -3.7356   16.6471    0.0000 C   0  0  0  0  0  0  0  0  0  0  0  0
   -5.0346   17.3971    0.0000 C   0  0  0  0  0  0  0  0  0  0  0  0
   -6.3336   18.1471    0.0000 C   0  0  0  0  0  0  0  0  0  0  0  0
   -7.6327   18.8971    0.0000 C   0  0  0  0  0  0  0  0  0  0  0  0
   -8.9317   19.6471    0.0000 C   0  0  0  0  0  0  0  0  0  0  0  0
   -4.5837   -6.1396    0.6447 H   0  0  0  0  0  0  0  0  0  0  0  0
   -3.0067   -7.0993    0.5735 H   0  0  0  0  0  0  0  0  0  0  0  0
   -4.2850   -7.4218    0.0000 H   0  0  0  0  0  0  0  0  0  0  0  0
   -2.0648   -5.4788   -0.5383 H   0  0  0  0  0  0  0  0  0  0  0  0
   -2.7145   -5.0550    1.0733 H   0  0  0  0  0  0  0  0  0  0  0  0
   -4.1476   -3.3321   -0.0379 H   0  0  0  0  0  0  0  0  0  0  0  0
   -3.3632   -3.7663   -1.6149 H   0  0  0  0  0  0  0  0  0  0  0  0
   -1.9206   -2.9253    1.0225 H   0  0  0  0  0  0  0  0  0  0  0  0
   -1.0282   -3.3790   -0.4725 H   0  0  0  0  0  0  0  0  0  0  0  0
   -1.8687   -1.3289   -1.6245 H   0  0  0  0  0  0  0  0  0  0  0  0
   -2.9715   -1.0618   -0.2413 H   0  0  0  0  0  0  0  0  0  0  0  0
   -1.4667    0.1391    0.9278 H   0  0  0  0  0  0  0  0  0  0  0  0
    0.7712    0.4499    0.7613 H   0  0  0  0  0  0  0  0  0  0  0  0
    1.6261   -0.2713   -1.5736 H   0  0  0  0  0  0  0  0  0  0  0  0
    1.0050   -1.9158   -1.2360 H   0  0  0  0  0  0  0  0  0  0  0  0
    2.6264   -1.9851    0.8344 H   0  0  0  0  0  0  0  0  0  0  0  0
    4.7431   -1.0128    0.4437 H   0  0  0  0  0  0  0  0  0  0  0  0
    3.5069    1.1452   -1.1551 H   0  0  0  0  0  0  0  0  0  0  0  0
    3.9433   -0.2058   -2.2613 H   0  0  0  0  0  0  0  0  0  0  0  0
    5.5618    1.6005   -2.4290 H   0  0  0  0  0  0  0  0  0  0  0  0
    7.5733    1.5163   -1.4151 H   0  0  0  0  0  0  0  0  0  0  0  0
    6.5213    0.4973    1.0871 H   0  0  0  0  0  0  0  0  0  0  0  0
    6.9959   -0.9257    0.0840 H   0  0  0  0  0  0  0  0  0  0  0  0
    8.6758   -0.3641    1.7684 H   0  0  0  0  0  0  0  0  0  0  0  0
   10.6387    0.5218    1.2318 H   0  0  0  0  0  0  0  0  0  0  0  0
    9.6202    1.9179   -1.3646 H   0  0  0  0  0  0  0  0  0  0  0  0
   11.0989    0.9532   -1.1579 H   0  0  0  0  0  0  0  0  0  0  0  0
   11.8512    3.3685   -2.1229 H   0  0  0  0  0  0  0  0  0  0  0  0
   13.1091    2.5794   -1.1061 H   0  0  0  0  0  0  0  0  0  0  0  0
   14.4362    6.9303   -1.1126 H   0  0  0  0  0  0  0  0  0  0  0  0
   16.8067    5.3916    0.1234 H   0  0  0  0  0  0  0  0  0  0  0  0
   16.5141    5.7762   -1.6151 H   0  0  0  0  0  0  0  0  0  0  0  0
   18.1231    9.7311    0.0602 H   0  0  0  0  0  0  0  0  0  0  0  0
   18.8603    9.5986   -1.5757 H   0  0  0  0  0  0  0  0  0  0  0  0
   20.8063    8.4198   -0.6963 H   0  0  0  0  0  0  0  0  0  0  0  0
   20.2491    8.5941    1.0017 H   0  0  0  0  0  0  0  0  0  0  0  0
   20.3487   10.7520    0.8331 H   0  0  0  0  0  0  0  0  0  0  0  0
   21.9186    9.8672    0.3630 H   0  0  0  0  0  0  0  0  0  0  0  0
   21.0211   12.5029   -0.2288 H   0  0  0  0  0  0  0  0  0  0  0  0
   22.4807   11.6896   -0.8390 H   0  0  0  0  0  0  0  0  0  0  0  0
   21.8394   12.1152    2.1662 H   0  0  0  0  0  0  0  0  0  0  0  0
   23.9613   12.8083    2.5465 H   0  0  0  0  0  0  0  0  0  0  0  0
   25.1070   13.8147    0.5020 H   0  0  0  0  0  0  0  0  0  0  0  0
   24.9233   12.2729   -0.4013 H   0  0  0  0  0  0  0  0  0  0  0  0
   26.1287   11.6687    2.2434 H   0  0  0  0  0  0  0  0  0  0  0  0
   28.3101   12.2358    1.9056 H   0  0  0  0  0  0  0  0  0  0  0  0
   27.6635   14.4689    0.1035 H   0  0  0  0  0  0  0  0  0  0  0  0
   28.1146   13.0637   -0.9154 H   0  0  0  0  0  0  0  0  0  0  0  0
   29.9085   14.9887    0.5112 H   0  0  0  0  0  0  0  0  0  0  0  0
   31.8542   13.5786    0.4775 H   0  0  0  0  0  0  0  0  0  0  0  0
   29.9781   11.4047    0.7436 H   0  0  0  0  0  0  0  0  0  0  0  0
   30.2147   11.6695   -0.9798 H   0  0  0  0  0  0  0  0  0  0  0  0
   31.9355   10.6513    0.9984 H   0  0  0  0  0  0  0  0  0  0  0  0
   32.1602   10.7992   -0.8052 H   0  0  0  0  0  0  0  0  0  0  0  0
   31.9157    8.4851    0.8736 H   0  0  0  0  0  0  0  0  0  0  0  0
   33.3562    9.2420    0.0886 H   0  0  0  0  0  0  0  0  0  0  0  0
   30.8461    8.1083   -1.3416 H   0  0  0  0  0  0  0  0  0  0  0  0
   32.2707    8.8495   -2.1699 H   0  0  0  0  0  0  0  0  0  0  0  0
   32.4105    6.3718   -2.1767 H   0  0  0  0  0  0  0  0  0  0  0  0
   33.7554    7.0808   -1.2035 H   0  0  0  0  0  0  0  0  0  0  0  0
   32.3273    6.3370   -0.3746 H   0  0  0  0  0  0  0  0  0  0  0  0
   15.1496    7.5492    1.2815 H   0  0  0  0  0  0  0  0  0  0  0  0
   14.6771    5.9205    1.8148 H   0  0  0  0  0  0  0  0  0  0  0  0
   10.8444    8.3598    2.1714 H   0  0  0  0  0  0  0  0  0  0  0  0
   11.2883    9.9117    1.3754 H   0  0  0  0  0  0  0  0  0  0  0  0
   11.1414    8.7378   -0.8847 H   0  0  0  0  0  0  0  0  0  0  0  0
   10.4383    7.2893   -0.0453 H   0  0  0  0  0  0  0  0  0  0  0  0
    8.9571    8.6174   -0.9447 H   0  0  0  0  0  0  0  0  0  0  0  0
    8.8771    8.5128    0.8470 H   0  0  0  0  0  0  0  0  0  0  0  0
    8.2722   10.4589    0.9252 H   0  0  0  0  0  0  0  0  0  0  0  0
    8.3349   10.5556   -0.8335 H   0  0  0  0  0  0  0  0  0  0  0  0
    6.2813    9.9471    0.8042 H   0  0  0  0  0  0  0  0  0  0  0  0
    6.3440   10.1156   -0.9435 H   0  0  0  0  0  0  0  0  0  0  0  0
    5.6558   11.8327    0.9992 H   0  0  0  0  0  0  0  0  0  0  0  0
    5.7294   12.0729   -0.8142 H   0  0  0  0  0  0  0  0  0  0  0  0
    3.5204   11.6507    0.8404 H   0  0  0  0  0  0  0  0  0  0  0  0
    4.3231   13.1783    0.3670 H   0  0  0  0  0  0  0  0  0  0  0  0
    2.2588   11.7968   -1.3866 H   0  0  0  0  0  0  0  0  0  0  0  0
    3.1493   13.3086   -1.7268 H   0  0  0  0  0  0  0  0  0  0  0  0
    1.9620   14.4155    0.3596 H   0  0  0  0  0  0  0  0  0  0  0  0
    1.0005   12.9284    0.5467 H   0  0  0  0  0  0  0  0  0  0  0  0
   -0.3265   13.6122   -1.6338 H   0  0  0  0  0  0  0  0  0  0  0  0
    0.6169   15.1260   -1.6709 H   0  0  0  0  0  0  0  0  0  0  0  0
   -1.6297   14.3948    0.3966 H   0  0  0  0  0  0  0  0  0  0  0  0
   -0.6644   15.8867    0.5125 H   0  0  0  0  0  0  0  0  0  0  0  0
   -2.8565   15.4319   -1.7048 H   0  0  0  0  0  0  0  0  0  0  0  0
   -1.9612   16.9540   -1.4300 H   0  0  0  0  0  0  0  0  0  0  0  0
   -3.1843   17.1659    0.8180 H   0  0  0  0  0  0  0  0  0  0  0  0
   -3.9939   15.6265    0.3998 H   0  0  0  0  0  0  0  0  0  0  0  0
   -5.4181   16.7000   -0.7907 H   0  0  0  0  0  0  0  0  0  0  0  0
   -5.3188   16.9868    1.0141 H   0  0  0  0  0  0  0  0  0  0  0  0
   -5.9310   18.8710    0.7711 H   0  0  0  0  0  0  0  0  0  0  0  0
   -6.0244   18.6553   -0.9601 H   0  0  0  0  0  0  0  0  0  0  0  0
   -7.9019   18.4479    0.9952 H   0  0  0  0  0  0  0  0  0  0  0  0
   -7.9783   18.1892   -0.8129 H   0  0  0  0  0  0  0  0  0  0  0  0
   -8.8064   20.1194   -1.0026 H   0  0  0  0  0  0  0  0  0  0  0  0
   -9.6888   18.8119    0.0115 H   0  0  0  0  0  0  0  0  0  0  0  0
   -9.8583   20.1821    0.0000 H   0  0  0  0  0  0  0  0  0  0  0  0
  1  2  1  0  0  0  0
  1 66  1  0  0  0  0
  1 67  1  0  0  0  0
  1 68  1  0  0  0  0
  2  3  1  0  0  0  0
  2 69  1  0  0  0  0
  2 70  1  0  0  0  0
  3  4  1  0  0  0  0
  3 71  1  0  0  0  0
  3 72  1  0  0  0  0
  4  5  1  0  0  0  0
  4 73  1  0  0  0  0
  4 74  1  0  0  0  0
  5  6  1  0  0  0  0
  5 75  1  0  0  0  0
  5 76  1  0  0  0  0
  6  7  2  0  0  0  0
  6 77  1  0  0  0  0
  7  8  1  0  0  0  0
  7 78  1  0  0  0  0
  8  9  1  0  0  0  0
  8 79  1  0  0  0  0
  8 80  1  0  0  0  0
  9 10  2  0  0  0  0
  9 81  1  0  0  0  0
 10 11  1  0  0  0  0
 10 82  1  0  0  0  0
 11 12  1  0  0  0  0
 11 83  1  0  0  0  0
 11 84  1  0  0  0  0
 12 13  2  0  0  0  0
 12 85  1  0  0  0  0
 13 14  1  0  0  0  0
 13 86  1  0  0  0  0
 14 15  1  0  0  0  0
 14 87  1  0  0  0  0
 14 88  1  0  0  0  0
 15 16  2  0  0  0  0
 15 89  1  0  0  0  0
 16 17  1  0  0  0  0
 16 90  1  0  0  0  0
 17 18  1  0  0  0  0
 17 91  1  0  0  0  0
 17 92  1  0  0  0  0
 18 19  1  0  0  0  0
 19 20  1  0  0  0  0
 19 93  1  0  0  0  0
 19 94  1  0  0  0  0
 20 21  2  0  0  0  0
 20 22  1  0  0  0  0
 22 23  1  0  0  0  0
 23 24  1  0  0  0  0
 23 45  1  0  0  0  0
 23 95  1  6  0  0  0
 24 25  1  0  0  0  0
 24 96  1  0  0  0  0
 24 97  1  0  0  0  0
 25 26  1  0  0  0  0
 26 27  2  0  0  0  0
 26 28  1  0  0  0  0
 28 29  1  0  0  0  0
 28 98  1  0  0  0  0
 28 99  1  0  0  0  0
 29 30  1  0  0  0  0
 29100  1  0  0  0  0
 29101  1  0  0  0  0
 30 31  1  0  0  0  0
 30102  1  0  0  0  0
 30103  1  0  0  0  0
 31 32  1  0  0  0  0
 31104  1  0  0  0  0
 31105  1  0  0  0  0
 32 33  2  0  0  0  0
 32106  1  0  0  0  0
 33 34  1  0  0  0  0
 33107  1  0  0  0  0
 34 35  1  0  0  0  0
 34108  1  0  0  0  0
 34109  1  0  0  0  0
 35 36  2  0  0  0  0
 35110  1  0  0  0  0
 36 37  1  0  0  0  0
 36111  1  0  0  0  0
 37 38  1  0  0  0  0
 37112  1  0  0  0  0
 37113  1  0  0  0  0
 38 39  2  0  0  0  0
 38114  1  0  0  0  0
 39 40  1  0  0  0  0
 39115  1  0  0  0  0
 40 41  1  0  0  0  0
 40116  1  0  0  0  0
 40117  1  0  0  0  0
 41 42  1  0  0  0  0
 41118  1  0  0  0  0
 41119  1  0  0  0  0
 42 43  1  0  0  0  0
 42120  1  0  0  0  0
 42121  1  0  0  0  0
 43 44  1  0  0  0  0
 43122  1  0  0  0  0
 43123  1  0  0  0  0
 44124  1  0  0  0  0
 44125  1  0  0  0  0
 44126  1  0  0  0  0
 45 46  1  0  0  0  0
 45127  1  0  0  0  0
 45128  1  0  0  0  0
 46 47  1  0  0  0  0
 47 48  2  0  0  0  0
 47 49  1  0  0  0  0
 49 50  1  0  0  0  0
 49129  1  0  0  0  0
 49130  1  0  0  0  0
 50 51  1  0  0  0  0
 50131  1  0  0  0  0
 50132  1  0  0  0  0
 51 52  1  0  0  0  0
 51133  1  0  0  0  0
 51134  1  0  0  0  0
 52 53  1  0  0  0  0
 52135  1  0  0  0  0
 52136  1  0  0  0  0
 53 54  1  0  0  0  0
 53137  1  0  0  0  0
 53138  1  0  0  0  0
 54 55  1  0  0  0  0
 54139  1  0  0  0  0
 54140  1  0  0  0  0
 55 56  1  0  0  0  0
 55141  1  0  0  0  0
 55142  1  0  0  0  0
 56 57  1  0  0  0  0
 56143  1  0  0  0  0
 56144  1  0  0  0  0
 57 58  1  0  0  0  0
 57145  1  0  0  0  0
 57146  1  0  0  0  0
 58 59  1  0  0  0  0
 58147  1  0  0  0  0
 58148  1  0  0  0  0
 59 60  1  0  0  0  0
 59149  1  0  0  0  0
 59150  1  0  0  0  0
 60 61  1  0  0  0  0
 60151  1  0  0  0  0
 60152  1  0  0  0  0
 61 62  1  0  0  0  0
 61153  1  0  0  0  0
 61154  1  0  0  0  0
 62 63  1  0  0  0  0
 62155  1  0  0  0  0
 62156  1  0  0  0  0
 63 64  1  0  0  0  0
 63157  1  0  0  0  0
 63158  1  0  0  0  0
 64 65  1  0  0  0  0
 64159  1  0  0  0  0
 64160  1  0  0  0  0
 65161  1  0  0  0  0
 65162  1  0  0  0  0
 65163  1  0  0  0  0
M  END
>  <IDENTIFIER>
CNP0522504.1

>  <Energy>
6048.29

$$$$
