
 OpenBabel09062503593D

 41 42  0  0  0  0  0  0  0  0999 V2000
    6.8536    1.3831   -1.3874 C   0  0  0  0  0  0  0  0  0  0  0  0
    5.4901    0.8421   -1.8199 C   0  0  1  0  0  0  0  0  0  0  0  0
    5.2949   -0.6612   -1.9114 C   0  0  0  0  0  0  0  0  0  0  0  0
    4.7848    0.1212   -0.6861 C   0  0  2  0  0  0  0  0  0  0  0  0
    3.2827    0.2196   -0.6925 C   0  0  0  0  0  0  0  0  0  0  0  0
    2.6707    0.8919    0.2955 C   0  0  0  0  0  0  0  0  0  0  0  0
    1.1822    1.1422    0.4030 C   0  0  0  0  0  0  0  0  0  0  0  0
    0.3130    0.5432   -0.7138 C   0  0  0  0  0  0  0  0  0  0  0  0
   -1.0950    1.0614   -0.5859 C   0  0  0  0  0  0  0  0  0  0  0  0
   -2.1636    0.2732   -0.3928 C   0  0  0  0  0  0  0  0  0  0  0  0
   -3.5112    0.8947   -0.3046 C   0  0  0  0  0  0  0  0  0  0  0  0
   -4.6962    0.2969   -0.0568 C   0  0  0  0  0  0  0  0  0  0  0  0
   -5.0245   -1.1561    0.2589 C   0  0  2  0  0  0  0  0  0  0  0  0
   -5.9036   -1.2301    1.5227 C   0  0  0  0  0  0  0  0  0  0  0  0
   -5.0848   -0.8967    2.7458 C   0  0  0  0  0  0  0  0  0  0  0  0
   -3.8226   -1.3405    2.8229 C   0  0  0  0  0  0  0  0  0  0  0  0
   -3.2457   -2.0192    1.6399 C   0  0  0  0  0  0  0  0  0  0  0  0
   -2.1614   -2.5733    1.7144 O   0  0  0  0  0  0  0  0  0  0  0  0
   -3.9089   -1.9658    0.4475 O   0  0  0  0  0  0  0  0  0  0  0  0
    7.4456    1.6370   -2.2909 H   0  0  0  0  0  0  0  0  0  0  0  0
    7.4276    0.6525   -0.7778 H   0  0  0  0  0  0  0  0  0  0  0  0
    6.7063    2.3076   -0.7898 H   0  0  0  0  0  0  0  0  0  0  0  0
    4.7918    1.5001   -2.3836 H   0  0  0  0  0  0  0  0  0  0  0  0
    6.3037   -1.1257   -1.8704 H   0  0  0  0  0  0  0  0  0  0  0  0
    4.6541   -0.8098   -2.8071 H   0  0  0  0  0  0  0  0  0  0  0  0
    5.2969   -0.3506    0.1805 H   0  0  0  0  0  0  0  0  0  0  0  0
    2.7160   -0.2252   -1.5041 H   0  0  0  0  0  0  0  0  0  0  0  0
    3.2843    1.3284    1.0797 H   0  0  0  0  0  0  0  0  0  0  0  0
    1.0563    2.2465    0.3990 H   0  0  0  0  0  0  0  0  0  0  0  0
    0.8237    0.7530    1.3807 H   0  0  0  0  0  0  0  0  0  0  0  0
    0.3529   -0.5675   -0.6646 H   0  0  0  0  0  0  0  0  0  0  0  0
    0.6869    0.8748   -1.7058 H   0  0  0  0  0  0  0  0  0  0  0  0
   -1.2304    2.1377   -0.6604 H   0  0  0  0  0  0  0  0  0  0  0  0
   -2.0133   -0.7929   -0.3269 H   0  0  0  0  0  0  0  0  0  0  0  0
   -3.5584    1.9664   -0.4843 H   0  0  0  0  0  0  0  0  0  0  0  0
   -5.5631    0.9523   -0.0940 H   0  0  0  0  0  0  0  0  0  0  0  0
   -5.6182   -1.5416   -0.5976 H   0  0  0  0  0  0  0  0  0  0  0  0
   -6.2191   -2.2915    1.6250 H   0  0  0  0  0  0  0  0  0  0  0  0
   -6.8253   -0.6119    1.4645 H   0  0  0  0  0  0  0  0  0  0  0  0
   -5.5248   -0.3380    3.5660 H   0  0  0  0  0  0  0  0  0  0  0  0
   -3.2287   -1.1767    3.7164 H   0  0  0  0  0  0  0  0  0  0  0  0
  1 20  1  0  0  0  0
  1 21  1  0  0  0  0
  1 22  1  0  0  0  0
  2  1  1  0  0  0  0
  2  3  1  0  0  0  0
  2 23  1  6  0  0  0
  3  4  1  0  0  0  0
  3 24  1  0  0  0  0
  3 25  1  0  0  0  0
  4  5  1  0  0  0  0
  4  2  1  0  0  0  0
  4 26  1  1  0  0  0
  5  6  2  0  0  0  0
  5 27  1  0  0  0  0
  6  7  1  0  0  0  0
  6 28  1  0  0  0  0
  7  8  1  0  0  0  0
  7 29  1  0  0  0  0
  7 30  1  0  0  0  0
  8  9  1  0  0  0  0
  8 31  1  0  0  0  0
  8 32  1  0  0  0  0
  9 10  2  0  0  0  0
  9 33  1  0  0  0  0
 10 11  1  0  0  0  0
 10 34  1  0  0  0  0
 11 12  2  3  0  0  0
 11 35  1  0  0  0  0
 12 36  1  0  0  0  0
 13 12  1  0  0  0  0
 13 14  1  0  0  0  0
 13 37  1  6  0  0  0
 14 15  1  0  0  0  0
 14 38  1  0  0  0  0
 14 39  1  0  0  0  0
 15 16  2  0  0  0  0
 15 40  1  0  0  0  0
 16 17  1  0  0  0  0
 16 41  1  0  0  0  0
 17 18  2  0  0  0  0
 17 19  1  0  0  0  0
 19 13  1  0  0  0  0
M  END
>  <IDENTIFIER>
CNP0116997.3

>  <Energy>
1492.23

$$$$
