
 OpenBabel09072501413D

190191  0  0  0  0  0  0  0  0999 V2000
  -10.7576   -3.2079    0.0234 C   0  0  0  0  0  0  0  0  0  0  0  0
  -11.2621   -1.9854   -0.1757 C   0  0  0  0  0  0  0  0  0  0  0  0
  -12.4863   -1.5025    0.5643 C   0  0  0  0  0  0  0  0  0  0  0  0
  -12.2331   -0.3174    1.5165 C   0  0  0  0  0  0  0  0  0  0  0  0
  -12.0923    1.0967    0.8872 C   0  0  1  0  0  0  0  0  0  0  0  0
  -12.1072    2.1487    2.0141 C   0  0  0  0  0  0  0  0  0  0  0  0
  -10.8724    1.3227   -0.0420 C   0  0  0  0  0  0  0  0  0  0  0  0
   -9.4967    1.0160    0.5949 C   0  0  0  0  0  0  0  0  0  0  0  0
   -8.3252    1.4590   -0.3290 C   0  0  2  0  0  0  0  0  0  0  0  0
   -8.3640    0.8517   -1.6012 O   0  0  0  0  0  0  0  0  0  0  0  0
   -6.9015    1.3049    0.3156 C   0  0  1  0  0  0  0  0  0  0  0  0
   -6.6883    2.2128    1.5789 C   0  0  0  0  0  0  0  0  0  0  0  0
   -6.1738    3.5904    1.2087 C   0  0  0  0  0  0  0  0  0  0  0  0
   -6.8400    4.5204    0.4990 C   0  0  0  0  0  0  0  0  0  0  0  0
   -6.2197    5.7792   -0.0213 C   0  0  0  0  0  0  0  0  0  0  0  0
   -6.9018    6.4864   -0.7484 O   0  0  0  0  0  0  0  0  0  0  0  0
   -4.7502    6.1261    0.1759 C   0  0  2  0  0  0  0  0  0  0  0  0
   -4.5822    7.6417    0.3921 C   0  0  0  0  0  0  0  0  0  0  0  0
   -3.7746    5.6015   -0.9411 C   0  0  2  0  0  0  0  0  0  0  0  0
   -3.8608    6.3419   -2.1365 O   0  0  0  0  0  0  0  0  0  0  0  0
   -3.8320    4.0580   -1.2216 C   0  0  1  0  0  0  0  0  0  0  0  0
   -4.9635    3.6507   -2.1862 C   0  0  0  0  0  0  0  0  0  0  0  0
   -2.5611    3.4315   -1.7561 C   0  0  0  0  0  0  0  0  0  0  0  0
   -1.4639    4.0850   -2.1521 C   0  0  0  0  0  0  0  0  0  0  0  0
   -0.2556    3.4030   -2.6607 C   0  0  0  0  0  0  0  0  0  0  0  0
    0.1836    2.1389   -2.4465 C   0  0  0  0  0  0  0  0  0  0  0  0
   -0.2844    1.0342   -1.5529 C   0  0  0  0  0  0  0  0  0  0  0  0
   -0.9190    0.9750   -0.3515 C   0  0  0  0  0  0  0  0  0  0  0  0
   -1.3863    1.9720    0.6640 C   0  0  0  0  0  0  0  0  0  0  0  0
   -1.0005    3.2219    1.0106 C   0  0  0  0  0  0  0  0  0  0  0  0
    0.1270    4.0628    0.5541 C   0  0  0  0  0  0  0  0  0  0  0  0
    1.2303    3.6334   -0.0673 C   0  0  0  0  0  0  0  0  0  0  0  0
    2.2613    4.6175   -0.5516 C   0  0  0  0  0  0  0  0  0  0  0  0
    2.9930    5.3364    0.5942 C   0  0  0  0  0  0  0  0  0  0  0  0
    3.8944    4.3832    1.3951 C   0  0  0  0  0  0  0  0  0  0  0  0
    4.9583    3.8024    0.5075 C   0  0  0  0  0  0  0  0  0  0  0  0
    5.7408    4.5562   -0.0563 O   0  0  0  0  0  0  0  0  0  0  0  0
    5.0147    2.4583    0.3035 O   0  0  0  0  0  0  0  0  0  0  0  0
    5.8612    1.8470   -0.6063 C   0  0  1  0  0  0  0  0  0  0  0  0
    7.3113    2.1899   -0.3279 C   0  0  0  0  0  0  0  0  0  0  0  0
    8.1455    2.4991   -1.3347 C   0  0  0  0  0  0  0  0  0  0  0  0
    9.5937    2.8519   -1.1216 C   0  0  0  0  0  0  0  0  0  0  0  0
   10.3935    1.7942   -0.3309 C   0  0  2  0  0  0  0  0  0  0  0  0
   11.7202    2.2391   -0.2087 O   0  0  0  0  0  0  0  0  0  0  0  0
   10.3196    0.3733   -0.9481 C   0  0  0  0  0  0  0  0  0  0  0  0
   10.9382   -0.7316   -0.0648 C   0  0  0  0  0  0  0  0  0  0  0  0
   12.4652   -0.6291    0.0922 C   0  0  0  0  0  0  0  0  0  0  0  0
   13.0417   -1.8095    0.9038 C   0  0  2  0  0  0  0  0  0  0  0  0
   12.4179   -1.8482    2.1658 O   0  0  0  0  0  0  0  0  0  0  0  0
   14.5787   -1.7622    1.1128 C   0  0  0  0  0  0  0  0  0  0  0  0
   15.4960   -2.1065   -0.0865 C   0  0  0  0  0  0  0  0  0  0  0  0
   15.5700   -1.1237   -1.2658 C   0  0  0  0  0  0  0  0  0  0  0  0
   15.9363    0.2195   -0.8254 N   0  0  0  0  0  0  0  0  0  0  0  0
    5.6403    0.3226   -0.6644 C   0  0  0  0  0  0  0  0  0  0  0  0
    5.7175   -0.4702    0.6683 C   0  0  2  0  0  0  0  0  0  0  0  0
    6.8312   -0.0779    1.4317 O   0  0  0  0  0  0  0  0  0  0  0  0
    5.8193   -1.9954    0.4005 C   0  0  0  0  0  0  0  0  0  0  0  0
    4.6851   -2.6559   -0.4209 C   0  0  1  0  0  0  0  0  0  0  0  0
    5.1447   -3.9062   -0.8778 O   0  0  0  0  0  0  0  0  0  0  0  0
    3.3666   -2.8509    0.3695 C   0  0  0  0  0  0  0  0  0  0  0  0
    2.2881   -3.5234   -0.5233 C   0  0  2  0  0  0  0  0  0  0  0  0
    1.7841   -2.6303   -1.4848 O   0  0  0  0  0  0  0  0  0  0  0  0
    1.1624   -4.2322    0.2559 C   0  0  0  0  0  0  0  0  0  0  0  0
    0.2102   -3.3393    1.0518 C   0  0  0  0  0  0  0  0  0  0  0  0
   -0.6930   -4.1040    2.0544 C   0  0  0  0  0  0  0  0  0  0  0  0
   -1.6581   -5.2091    1.5482 C   0  0  2  0  0  0  0  0  0  0  0  0
   -0.9609   -6.5476    1.2152 C   0  0  0  0  0  0  0  0  0  0  0  0
   -2.0156   -7.6360    0.9572 C   0  0  2  0  0  0  0  0  0  0  0  0
   -1.4890   -8.6353    0.1158 O   0  0  0  0  0  0  0  0  0  0  0  0
   -3.3288   -7.0319    0.4158 C   0  0  0  0  0  0  0  0  0  0  0  0
   -3.0726   -5.7107   -0.3684 C   0  0  2  0  0  0  0  0  0  0  0  0
   -2.2390   -6.0039   -1.4652 O   0  0  0  0  0  0  0  0  0  0  0  0
   -2.4445   -4.7116    0.4601 O   0  0  0  0  0  0  0  0  0  0  0  0
   -4.4012   -5.1003   -0.9209 C   0  0  1  0  0  0  0  0  0  0  0  0
   -5.1740   -6.0636   -1.8380 C   0  0  0  0  0  0  0  0  0  0  0  0
   -5.3516   -4.6114    0.1713 C   0  0  0  0  0  0  0  0  0  0  0  0
   -5.8391   -3.3522    0.2576 C   0  0  0  0  0  0  0  0  0  0  0  0
   -5.4664   -2.2559   -0.7167 C   0  0  2  0  0  0  0  0  0  0  0  0
   -4.1085   -1.9057   -0.5952 O   0  0  0  0  0  0  0  0  0  0  0  0
   -6.3686   -1.0066   -0.7019 C   0  0  0  0  0  0  0  0  0  0  0  0
   -6.4224   -0.1604    0.5893 C   0  0  0  0  0  0  0  0  0  0  0  0
   -9.8793   -3.5283   -0.5277 H   0  0  0  0  0  0  0  0  0  0  0  0
  -11.2073   -3.8972    0.7317 H   0  0  0  0  0  0  0  0  0  0  0  0
  -10.7673   -1.3582   -0.8977 H   0  0  0  0  0  0  0  0  0  0  0  0
  -12.8546   -2.3381    1.2007 H   0  0  0  0  0  0  0  0  0  0  0  0
  -13.2992   -1.2537   -0.1505 H   0  0  0  0  0  0  0  0  0  0  0  0
  -11.3796   -0.5482    2.1904 H   0  0  0  0  0  0  0  0  0  0  0  0
  -13.1434   -0.2670    2.1555 H   0  0  0  0  0  0  0  0  0  0  0  0
  -13.0009    1.2913    0.2744 H   0  0  0  0  0  0  0  0  0  0  0  0
  -11.2591    2.0143    2.7158 H   0  0  0  0  0  0  0  0  0  0  0  0
  -13.0473    2.0699    2.6007 H   0  0  0  0  0  0  0  0  0  0  0  0
  -12.0645    3.1742    1.5884 H   0  0  0  0  0  0  0  0  0  0  0  0
  -10.8917    2.3891   -0.3588 H   0  0  0  0  0  0  0  0  0  0  0  0
  -11.0090    0.7438   -0.9713 H   0  0  0  0  0  0  0  0  0  0  0  0
   -9.4106   -0.0637    0.8343 H   0  0  0  0  0  0  0  0  0  0  0  0
   -9.4314    1.5837    1.5364 H   0  0  0  0  0  0  0  0  0  0  0  0
   -8.4944    2.5245   -0.5303 H   0  0  0  0  0  0  0  0  0  0  0  0
   -8.9416    0.0485   -1.5751 H   0  0  0  0  0  0  0  0  0  0  0  0
   -6.1659    1.6668   -0.4351 H   0  0  0  0  0  0  0  0  0  0  0  0
   -5.8496    1.7798    2.1680 H   0  0  0  0  0  0  0  0  0  0  0  0
   -7.5460    2.2421    2.2737 H   0  0  0  0  0  0  0  0  0  0  0  0
   -5.1542    3.7644    1.5147 H   0  0  0  0  0  0  0  0  0  0  0  0
   -7.8664    4.3482    0.2144 H   0  0  0  0  0  0  0  0  0  0  0  0
   -4.4141    5.6738    1.1266 H   0  0  0  0  0  0  0  0  0  0  0  0
   -4.8808    8.2053   -0.5173 H   0  0  0  0  0  0  0  0  0  0  0  0
   -3.5246    7.8857    0.6265 H   0  0  0  0  0  0  0  0  0  0  0  0
   -5.2149    7.9797    1.2409 H   0  0  0  0  0  0  0  0  0  0  0  0
   -2.7792    5.8169   -0.4950 H   0  0  0  0  0  0  0  0  0  0  0  0
   -4.8145    6.3672   -2.4062 H   0  0  0  0  0  0  0  0  0  0  0  0
   -3.9558    3.5575   -0.2490 H   0  0  0  0  0  0  0  0  0  0  0  0
   -4.7817    4.0822   -3.1938 H   0  0  0  0  0  0  0  0  0  0  0  0
   -5.9601    3.9783   -1.8556 H   0  0  0  0  0  0  0  0  0  0  0  0
   -4.9968    2.5457   -2.2955 H   0  0  0  0  0  0  0  0  0  0  0  0
   -2.5750    2.3516   -1.8216 H   0  0  0  0  0  0  0  0  0  0  0  0
   -1.4507    5.1675   -2.1781 H   0  0  0  0  0  0  0  0  0  0  0  0
    0.3581    4.0128   -3.3182 H   0  0  0  0  0  0  0  0  0  0  0  0
    1.0535    1.8581   -3.0344 H   0  0  0  0  0  0  0  0  0  0  0  0
   -0.0346    0.0576   -1.9599 H   0  0  0  0  0  0  0  0  0  0  0  0
   -1.1689   -0.0380   -0.0430 H   0  0  0  0  0  0  0  0  0  0  0  0
   -2.2127    1.5899    1.2591 H   0  0  0  0  0  0  0  0  0  0  0  0
   -1.6136    3.7032    1.7689 H   0  0  0  0  0  0  0  0  0  0  0  0
    0.0358    5.1236    0.7698 H   0  0  0  0  0  0  0  0  0  0  0  0
    1.3847    2.5834   -0.2641 H   0  0  0  0  0  0  0  0  0  0  0  0
    1.7456    5.3641   -1.1936 H   0  0  0  0  0  0  0  0  0  0  0  0
    2.9975    4.0915   -1.1951 H   0  0  0  0  0  0  0  0  0  0  0  0
    2.2602    5.8251    1.2706 H   0  0  0  0  0  0  0  0  0  0  0  0
    3.6277    6.1393    0.1588 H   0  0  0  0  0  0  0  0  0  0  0  0
    3.2830    3.5711    1.8449 H   0  0  0  0  0  0  0  0  0  0  0  0
    4.3856    4.9458    2.2182 H   0  0  0  0  0  0  0  0  0  0  0  0
    5.6089    2.2122   -1.6291 H   0  0  0  0  0  0  0  0  0  0  0  0
    7.6767    2.1681    0.6928 H   0  0  0  0  0  0  0  0  0  0  0  0
    7.7799    2.4863   -2.3581 H   0  0  0  0  0  0  0  0  0  0  0  0
    9.6455    3.8127   -0.5664 H   0  0  0  0  0  0  0  0  0  0  0  0
   10.0592    3.0058   -2.1204 H   0  0  0  0  0  0  0  0  0  0  0  0
    9.9594    1.7363    0.6890 H   0  0  0  0  0  0  0  0  0  0  0  0
   12.1263    2.2205   -1.1160 H   0  0  0  0  0  0  0  0  0  0  0  0
   10.7782    0.3616   -1.9604 H   0  0  0  0  0  0  0  0  0  0  0  0
    9.2485    0.1022   -1.0631 H   0  0  0  0  0  0  0  0  0  0  0  0
   10.7113   -1.7065   -0.5496 H   0  0  0  0  0  0  0  0  0  0  0  0
   10.4451   -0.7224    0.9320 H   0  0  0  0  0  0  0  0  0  0  0  0
   12.7408    0.3032    0.6199 H   0  0  0  0  0  0  0  0  0  0  0  0
   12.8818   -0.6059   -0.9208 H   0  0  0  0  0  0  0  0  0  0  0  0
   12.7960   -2.7641    0.3898 H   0  0  0  0  0  0  0  0  0  0  0  0
   12.6532   -1.0103    2.6471 H   0  0  0  0  0  0  0  0  0  0  0  0
   14.8022   -2.5532    1.8633 H   0  0  0  0  0  0  0  0  0  0  0  0
   14.8761   -0.7960    1.5738 H   0  0  0  0  0  0  0  0  0  0  0  0
   15.2263   -3.1123   -0.4751 H   0  0  0  0  0  0  0  0  0  0  0  0
   16.5279   -2.1748    0.3237 H   0  0  0  0  0  0  0  0  0  0  0  0
   14.6415   -1.1030   -1.8605 H   0  0  0  0  0  0  0  0  0  0  0  0
   16.3540   -1.4963   -1.9607 H   0  0  0  0  0  0  0  0  0  0  0  0
   15.1462    0.6325   -0.2805 H   0  0  0  0  0  0  0  0  0  0  0  0
   16.0702    0.8181   -1.6723 H   0  0  0  0  0  0  0  0  0  0  0  0
    6.3957   -0.0770   -1.3781 H   0  0  0  0  0  0  0  0  0  0  0  0
    4.6358    0.1442   -1.1029 H   0  0  0  0  0  0  0  0  0  0  0  0
    4.8124   -0.2430    1.2709 H   0  0  0  0  0  0  0  0  0  0  0  0
    7.6507   -0.3000    0.9163 H   0  0  0  0  0  0  0  0  0  0  0  0
    5.9400   -2.5420    1.3613 H   0  0  0  0  0  0  0  0  0  0  0  0
    6.7591   -2.1431   -0.1783 H   0  0  0  0  0  0  0  0  0  0  0  0
    4.4879   -2.0483   -1.3254 H   0  0  0  0  0  0  0  0  0  0  0  0
    5.3389   -4.4707   -0.0836 H   0  0  0  0  0  0  0  0  0  0  0  0
    2.9849   -1.8936    0.7843 H   0  0  0  0  0  0  0  0  0  0  0  0
    3.5988   -3.5229    1.2247 H   0  0  0  0  0  0  0  0  0  0  0  0
    2.7772   -4.3593   -1.0673 H   0  0  0  0  0  0  0  0  0  0  0  0
    1.3970   -1.8574   -0.9976 H   0  0  0  0  0  0  0  0  0  0  0  0
    1.6442   -4.9599    0.9458 H   0  0  0  0  0  0  0  0  0  0  0  0
    0.5636   -4.7710   -0.5012 H   0  0  0  0  0  0  0  0  0  0  0  0
   -0.4109   -2.7446    0.3475 H   0  0  0  0  0  0  0  0  0  0  0  0
    0.8104   -2.6314    1.6631 H   0  0  0  0  0  0  0  0  0  0  0  0
   -1.3219   -3.3223    2.5333 H   0  0  0  0  0  0  0  0  0  0  0  0
   -0.0597   -4.5434    2.8570 H   0  0  0  0  0  0  0  0  0  0  0  0
   -2.3253   -5.4157    2.4170 H   0  0  0  0  0  0  0  0  0  0  0  0
   -0.2606   -6.8951    2.0061 H   0  0  0  0  0  0  0  0  0  0  0  0
   -0.3806   -6.4220    0.2932 H   0  0  0  0  0  0  0  0  0  0  0  0
   -2.2951   -8.1350    1.9114 H   0  0  0  0  0  0  0  0  0  0  0  0
   -1.3886   -8.2515   -0.7944 H   0  0  0  0  0  0  0  0  0  0  0  0
   -3.9572   -6.7545    1.2885 H   0  0  0  0  0  0  0  0  0  0  0  0
   -3.8786   -7.8142   -0.1466 H   0  0  0  0  0  0  0  0  0  0  0  0
   -1.8210   -5.1543   -1.7645 H   0  0  0  0  0  0  0  0  0  0  0  0
   -4.0928   -4.2555   -1.5665 H   0  0  0  0  0  0  0  0  0  0  0  0
   -5.5691   -6.9372   -1.2804 H   0  0  0  0  0  0  0  0  0  0  0  0
   -4.5293   -6.4197   -2.6685 H   0  0  0  0  0  0  0  0  0  0  0  0
   -6.0444   -5.5347   -2.2834 H   0  0  0  0  0  0  0  0  0  0  0  0
   -5.7102   -5.3338    0.8975 H   0  0  0  0  0  0  0  0  0  0  0  0
   -6.5587   -3.1327    1.0406 H   0  0  0  0  0  0  0  0  0  0  0  0
   -5.6227   -2.6709   -1.7364 H   0  0  0  0  0  0  0  0  0  0  0  0
   -3.9267   -1.7141    0.3613 H   0  0  0  0  0  0  0  0  0  0  0  0
   -7.3944   -1.3320   -0.9582 H   0  0  0  0  0  0  0  0  0  0  0  0
   -5.9765   -0.3682   -1.5249 H   0  0  0  0  0  0  0  0  0  0  0  0
   -5.3797   -0.0699    0.9605 H   0  0  0  0  0  0  0  0  0  0  0  0
   -7.0205   -0.6680    1.3752 H   0  0  0  0  0  0  0  0  0  0  0  0
  1  2  2  0  0  0  0
  1 82  1  0  0  0  0
  1 83  1  0  0  0  0
  2  3  1  0  0  0  0
  2 84  1  0  0  0  0
  3  4  1  0  0  0  0
  3 85  1  0  0  0  0
  3 86  1  0  0  0  0
  4  5  1  0  0  0  0
  4 87  1  0  0  0  0
  4 88  1  0  0  0  0
  5  6  1  0  0  0  0
  5  7  1  0  0  0  0
  5 89  1  6  0  0  0
  6 90  1  0  0  0  0
  6 91  1  0  0  0  0
  6 92  1  0  0  0  0
  7  8  1  0  0  0  0
  7 93  1  0  0  0  0
  7 94  1  0  0  0  0
  8  9  1  0  0  0  0
  8 95  1  0  0  0  0
  8 96  1  0  0  0  0
  9 10  1  0  0  0  0
  9 11  1  0  0  0  0
  9 97  1  6  0  0  0
 10 98  1  0  0  0  0
 11 12  1  0  0  0  0
 11 99  1  6  0  0  0
 12 13  1  0  0  0  0
 12100  1  0  0  0  0
 12101  1  0  0  0  0
 13 14  2  0  0  0  0
 13102  1  0  0  0  0
 14 15  1  0  0  0  0
 14103  1  0  0  0  0
 15 16  2  0  0  0  0
 15 17  1  0  0  0  0
 17 18  1  0  0  0  0
 17 19  1  0  0  0  0
 17104  1  1  0  0  0
 18105  1  0  0  0  0
 18106  1  0  0  0  0
 18107  1  0  0  0  0
 19 20  1  0  0  0  0
 19 21  1  0  0  0  0
 19108  1  1  0  0  0
 20109  1  0  0  0  0
 21 22  1  0  0  0  0
 21 23  1  0  0  0  0
 21110  1  1  0  0  0
 22111  1  0  0  0  0
 22112  1  0  0  0  0
 22113  1  0  0  0  0
 23 24  2  3  0  0  0
 23114  1  0  0  0  0
 24 25  1  0  0  0  0
 24115  1  0  0  0  0
 25 26  2  0  0  0  0
 25116  1  0  0  0  0
 26 27  1  0  0  0  0
 26117  1  0  0  0  0
 27 28  2  0  0  0  0
 27118  1  0  0  0  0
 28 29  1  0  0  0  0
 28119  1  0  0  0  0
 29 30  2  0  0  0  0
 29120  1  0  0  0  0
 30 31  1  0  0  0  0
 30121  1  0  0  0  0
 31 32  2  0  0  0  0
 31122  1  0  0  0  0
 32 33  1  0  0  0  0
 32123  1  0  0  0  0
 33 34  1  0  0  0  0
 33124  1  0  0  0  0
 33125  1  0  0  0  0
 34 35  1  0  0  0  0
 34126  1  0  0  0  0
 34127  1  0  0  0  0
 35 36  1  0  0  0  0
 35128  1  0  0  0  0
 35129  1  0  0  0  0
 36 37  2  0  0  0  0
 36 38  1  0  0  0  0
 38 39  1  0  0  0  0
 39 40  1  0  0  0  0
 39 54  1  0  0  0  0
 39130  1  6  0  0  0
 40 41  2  0  0  0  0
 40131  1  0  0  0  0
 41 42  1  0  0  0  0
 41132  1  0  0  0  0
 42 43  1  0  0  0  0
 42133  1  0  0  0  0
 42134  1  0  0  0  0
 43 44  1  0  0  0  0
 43 45  1  0  0  0  0
 43135  1  1  0  0  0
 44136  1  0  0  0  0
 45 46  1  0  0  0  0
 45137  1  0  0  0  0
 45138  1  0  0  0  0
 46 47  1  0  0  0  0
 46139  1  0  0  0  0
 46140  1  0  0  0  0
 47 48  1  0  0  0  0
 47141  1  0  0  0  0
 47142  1  0  0  0  0
 48 49  1  0  0  0  0
 48 50  1  0  0  0  0
 48143  1  6  0  0  0
 49144  1  0  0  0  0
 50 51  1  0  0  0  0
 50145  1  0  0  0  0
 50146  1  0  0  0  0
 51 52  1  0  0  0  0
 51147  1  0  0  0  0
 51148  1  0  0  0  0
 52 53  1  0  0  0  0
 52149  1  0  0  0  0
 52150  1  0  0  0  0
 53151  1  0  0  0  0
 53152  1  0  0  0  0
 54 55  1  0  0  0  0
 54153  1  0  0  0  0
 54154  1  0  0  0  0
 55 56  1  0  0  0  0
 55 57  1  0  0  0  0
 55155  1  1  0  0  0
 56156  1  0  0  0  0
 57 58  1  0  0  0  0
 57157  1  0  0  0  0
 57158  1  0  0  0  0
 58 59  1  0  0  0  0
 58 60  1  0  0  0  0
 58159  1  6  0  0  0
 59160  1  0  0  0  0
 60 61  1  0  0  0  0
 60161  1  0  0  0  0
 60162  1  0  0  0  0
 61 62  1  0  0  0  0
 61 63  1  0  0  0  0
 61163  1  6  0  0  0
 62164  1  0  0  0  0
 63 64  1  0  0  0  0
 63165  1  0  0  0  0
 63166  1  0  0  0  0
 64 65  1  0  0  0  0
 64167  1  0  0  0  0
 64168  1  0  0  0  0
 65169  1  0  0  0  0
 65170  1  0  0  0  0
 66 65  1  0  0  0  0
 66 67  1  0  0  0  0
 66171  1  1  0  0  0
 67 68  1  0  0  0  0
 67172  1  0  0  0  0
 67173  1  0  0  0  0
 68 69  1  0  0  0  0
 68 70  1  0  0  0  0
 68174  1  1  0  0  0
 69175  1  0  0  0  0
 70 71  1  0  0  0  0
 70176  1  0  0  0  0
 70177  1  0  0  0  0
 71 72  1  6  0  0  0
 71 73  1  0  0  0  0
 71 74  1  0  0  0  0
 72178  1  0  0  0  0
 73 66  1  0  0  0  0
 74 75  1  0  0  0  0
 74 76  1  0  0  0  0
 74179  1  6  0  0  0
 75180  1  0  0  0  0
 75181  1  0  0  0  0
 75182  1  0  0  0  0
 76 77  2  0  0  0  0
 76183  1  0  0  0  0
 77 78  1  0  0  0  0
 77184  1  0  0  0  0
 78 79  1  0  0  0  0
 78 80  1  0  0  0  0
 78185  1  6  0  0  0
 79186  1  0  0  0  0
 80 81  1  0  0  0  0
 80187  1  0  0  0  0
 80188  1  0  0  0  0
 81 11  1  0  0  0  0
 81189  1  0  0  0  0
 81190  1  0  0  0  0
M  END
>  <IDENTIFIER>
CNP0037459.2

>  <Energy>
1565.91

$$$$
