
 OpenBabel09132505403D

 54 57  0  0  0  0  0  0  0  0999 V2000
    8.0395    1.3801    0.1051 C   0  0  0  0  0  0  0  0  0  0  0  0
    7.0825    1.3698    1.2976 C   0  0  0  0  0  0  0  0  0  0  0  0
    5.8237    0.5176    1.0631 C   0  0  0  0  0  0  0  0  0  0  0  0
    4.8945    1.0951   -0.0212 C   0  0  0  0  0  0  0  0  0  0  0  0
    3.6474    0.2333   -0.2949 C   0  0  0  0  0  0  0  0  0  0  0  0
    2.7436    0.0352    0.9370 C   0  0  0  0  0  0  0  0  0  0  0  0
    1.4974   -0.6970    0.5715 N   0  0  0  0  0  0  0  0  0  0  0  0
    1.2571   -2.0146    0.9253 C   0  0  0  0  0  0  0  0  0  0  0  0
    2.2220   -2.7961    1.6662 S   0  0  0  0  0  0  0  0  0  0  0  0
    0.0883   -2.6173    0.5586 N   0  0  0  0  0  0  0  0  0  0  0  0
   -0.8737   -1.9635   -0.1416 C   0  0  0  0  0  0  0  0  0  0  0  0
   -2.0190   -2.6045   -0.4595 O   0  0  0  0  0  0  0  0  0  0  0  0
   -0.6836   -0.6253   -0.5165 C   0  0  0  0  0  0  0  0  0  0  0  0
   -1.7578    0.1556   -1.2775 C   0  0  1  0  0  0  0  0  0  0  0  0
   -1.9634   -0.4089   -2.6377 N   0  0  0  0  0  0  0  0  0  0  0  0
   -3.1206    0.2098   -3.3082 C   0  0  0  0  0  0  0  0  0  0  0  0
   -4.4465   -0.1568   -2.6031 C   0  0  0  0  0  0  0  0  0  0  0  0
   -4.2832    0.0305   -1.1286 C   0  0  0  0  0  0  0  0  0  0  0  0
   -3.0585    0.1933   -0.5124 C   0  0  0  0  0  0  0  0  0  0  0  0
   -3.2096    0.3683    0.8210 N   0  0  0  0  0  0  0  0  0  0  0  0
   -4.5361    0.2840    1.0480 C   0  0  0  0  0  0  0  0  0  0  0  0
   -5.1952    0.3824    2.2722 C   0  0  0  0  0  0  0  0  0  0  0  0
   -6.5982    0.2676    2.2743 C   0  0  0  0  0  0  0  0  0  0  0  0
   -7.3033    0.0609    1.0667 C   0  0  0  0  0  0  0  0  0  0  0  0
   -6.6128   -0.0384   -0.1555 C   0  0  0  0  0  0  0  0  0  0  0  0
   -5.2244    0.0747   -0.1253 C   0  0  0  0  0  0  0  0  0  0  0  0
    0.5277   -0.0071   -0.1455 C   0  0  0  0  0  0  0  0  0  0  0  0
    0.7159    1.1623   -0.4468 O   0  0  0  0  0  0  0  0  0  0  0  0
    8.9433    1.9704    0.3651 H   0  0  0  0  0  0  0  0  0  0  0  0
    7.5742    1.8460   -0.7862 H   0  0  0  0  0  0  0  0  0  0  0  0
    8.3538    0.3434   -0.1412 H   0  0  0  0  0  0  0  0  0  0  0  0
    6.7917    2.4117    1.5554 H   0  0  0  0  0  0  0  0  0  0  0  0
    7.6314    0.9411    2.1640 H   0  0  0  0  0  0  0  0  0  0  0  0
    5.2751    0.4921    2.0271 H   0  0  0  0  0  0  0  0  0  0  0  0
    6.1239   -0.5201    0.8002 H   0  0  0  0  0  0  0  0  0  0  0  0
    5.4460    1.1678   -0.9820 H   0  0  0  0  0  0  0  0  0  0  0  0
    4.5758    2.1176    0.2755 H   0  0  0  0  0  0  0  0  0  0  0  0
    3.9606   -0.7653   -0.6706 H   0  0  0  0  0  0  0  0  0  0  0  0
    3.0788    0.7352   -1.1049 H   0  0  0  0  0  0  0  0  0  0  0  0
    2.4750    1.0093    1.4019 H   0  0  0  0  0  0  0  0  0  0  0  0
    3.3318   -0.5076    1.6989 H   0  0  0  0  0  0  0  0  0  0  0  0
   -0.0938   -3.6151    0.8230 H   0  0  0  0  0  0  0  0  0  0  0  0
   -2.1787   -3.5257   -0.2105 H   0  0  0  0  0  0  0  0  0  0  0  0
   -1.4383    1.2123   -1.3902 H   0  0  0  0  0  0  0  0  0  0  0  0
   -2.1209   -1.4422   -2.6088 H   0  0  0  0  0  0  0  0  0  0  0  0
   -3.1665   -0.0997   -4.3740 H   0  0  0  0  0  0  0  0  0  0  0  0
   -2.9880    1.3153   -3.2897 H   0  0  0  0  0  0  0  0  0  0  0  0
   -4.7330   -1.2137   -2.7869 H   0  0  0  0  0  0  0  0  0  0  0  0
   -5.2399    0.5105   -3.0029 H   0  0  0  0  0  0  0  0  0  0  0  0
   -2.4556    0.5133    1.5291 H   0  0  0  0  0  0  0  0  0  0  0  0
   -4.6476    0.5417    3.1921 H   0  0  0  0  0  0  0  0  0  0  0  0
   -7.1413    0.3403    3.2075 H   0  0  0  0  0  0  0  0  0  0  0  0
   -8.3823   -0.0213    1.0819 H   0  0  0  0  0  0  0  0  0  0  0  0
   -7.1443   -0.1947   -1.0854 H   0  0  0  0  0  0  0  0  0  0  0  0
  1  2  1  0  0  0  0
  1 29  1  0  0  0  0
  1 30  1  0  0  0  0
  1 31  1  0  0  0  0
  2  3  1  0  0  0  0
  2 32  1  0  0  0  0
  2 33  1  0  0  0  0
  3  4  1  0  0  0  0
  3 34  1  0  0  0  0
  3 35  1  0  0  0  0
  4  5  1  0  0  0  0
  4 36  1  0  0  0  0
  4 37  1  0  0  0  0
  5  6  1  0  0  0  0
  5 38  1  0  0  0  0
  5 39  1  0  0  0  0
  6  7  1  0  0  0  0
  6 40  1  0  0  0  0
  6 41  1  0  0  0  0
  7  8  1  0  0  0  0
  8  9  2  0  0  0  0
  8 10  1  0  0  0  0
 10 11  1  0  0  0  0
 10 42  1  0  0  0  0
 11 12  1  0  0  0  0
 11 13  2  0  0  0  0
 12 43  1  0  0  0  0
 13 27  1  0  0  0  0
 14 13  1  0  0  0  0
 14 15  1  0  0  0  0
 14 44  1  6  0  0  0
 15 16  1  0  0  0  0
 15 45  1  0  0  0  0
 16 17  1  0  0  0  0
 16 46  1  0  0  0  0
 16 47  1  0  0  0  0
 17 18  1  0  0  0  0
 17 48  1  0  0  0  0
 17 49  1  0  0  0  0
 18 19  2  0  0  0  0
 19 20  1  0  0  0  0
 19 14  1  0  0  0  0
 20 21  1  0  0  0  0
 20 50  1  0  0  0  0
 21 22  2  0  0  0  0
 22 23  1  0  0  0  0
 22 51  1  0  0  0  0
 23 24  2  0  0  0  0
 23 52  1  0  0  0  0
 24 25  1  0  0  0  0
 24 53  1  0  0  0  0
 25 26  2  0  0  0  0
 25 54  1  0  0  0  0
 26 21  1  0  0  0  0
 26 18  1  0  0  0  0
 27 28  2  0  0  0  0
 27  7  1  0  0  0  0
M  END
>  <IDENTIFIER>
CNP0376866.0

>  <Energy>
470.411

$$$$
