
 OpenBabel09112523423D

 67 71  0  0  0  0  0  0  0  0999 V2000
   -7.5849    3.2653   -0.4102 C   0  0  0  0  0  0  0  0  0  0  0  0
   -6.2596    3.2796    0.1962 N   0  0  0  0  0  0  0  0  0  0  0  0
   -5.9295    4.3444    1.1339 C   0  0  0  0  0  0  0  0  0  0  0  0
   -5.2906    2.2571   -0.1241 C   0  0  0  0  0  0  0  0  0  0  0  0
   -4.0002    2.2593    0.4567 C   0  0  0  0  0  0  0  0  0  0  0  0
   -3.0638    1.2670    0.1485 C   0  0  0  0  0  0  0  0  0  0  0  0
   -3.3837    0.2381   -0.7476 C   0  0  0  0  0  0  0  0  0  0  0  0
   -2.4163   -0.8381   -1.0774 C   0  0  0  0  0  0  0  0  0  0  0  0
   -2.7163   -1.8511   -1.9111 N   0  0  0  0  0  0  0  0  0  0  0  0
   -1.6735   -2.6582   -1.9723 N   0  0  0  0  0  0  0  0  0  0  0  0
   -1.6690   -3.8696   -2.7892 C   0  0  0  0  0  0  0  0  0  0  0  0
   -0.6759   -2.1893   -1.1833 C   0  0  0  0  0  0  0  0  0  0  0  0
    0.6546   -2.8965   -0.9953 C   0  0  1  0  0  0  0  0  0  0  0  0
    1.9055   -2.1388   -1.5407 C   0  0  0  0  0  0  0  0  0  0  0  0
    3.1457   -2.6571   -0.8759 N   0  0  2  0  0  0  0  0  0  0  0  0
    3.0561   -4.1466   -0.7821 C   0  0  0  0  0  0  0  0  0  0  0  0
    1.9795   -4.5573    0.2851 C   0  0  0  0  0  0  0  0  0  0  0  0
    1.0040   -3.3554    0.4538 C   0  0  1  0  0  0  0  0  0  0  0  0
    1.8026   -2.2235    1.1861 C   0  0  0  0  0  0  0  0  0  0  0  0
    3.2213   -2.1510    0.5252 C   0  0  2  0  0  0  0  0  0  0  0  0
    3.9240   -0.7915    0.6267 C   0  0  0  0  0  0  0  0  0  0  0  0
    4.1829   -0.4479    2.0290 N   0  0  0  0  0  0  0  0  0  0  0  0
    5.1481    1.0352    2.0869 S   0  0  0  0  0  0  0  0  0  0  0  0
    6.5683    0.6297    1.6575 O   0  0  0  0  0  0  0  0  0  0  0  0
    5.3309    1.3357    3.5823 O   0  0  0  0  0  0  0  0  0  0  0  0
    4.4956    2.4256    1.1743 C   0  0  0  0  0  0  0  0  0  0  0  0
    3.5963    3.3030    1.7898 C   0  0  0  0  0  0  0  0  0  0  0  0
    3.0608    4.3731    1.0681 C   0  0  0  0  0  0  0  0  0  0  0  0
    3.4222    4.5659   -0.2693 C   0  0  0  0  0  0  0  0  0  0  0  0
    4.3218    3.6894   -0.8850 C   0  0  0  0  0  0  0  0  0  0  0  0
    4.8586    2.6191   -0.1643 C   0  0  0  0  0  0  0  0  0  0  0  0
   -1.1184   -1.0100   -0.5992 C   0  0  0  0  0  0  0  0  0  0  0  0
   -4.6616    0.2259   -1.3310 C   0  0  0  0  0  0  0  0  0  0  0  0
   -5.5989    1.2159   -1.0265 C   0  0  0  0  0  0  0  0  0  0  0  0
   -8.2149    4.1131   -0.0679 H   0  0  0  0  0  0  0  0  0  0  0  0
   -8.1147    2.3273   -0.1400 H   0  0  0  0  0  0  0  0  0  0  0  0
   -7.4961    3.3416   -1.5147 H   0  0  0  0  0  0  0  0  0  0  0  0
   -6.7708    5.0540    1.2796 H   0  0  0  0  0  0  0  0  0  0  0  0
   -5.0639    4.9264    0.7534 H   0  0  0  0  0  0  0  0  0  0  0  0
   -5.6843    3.9096    2.1260 H   0  0  0  0  0  0  0  0  0  0  0  0
   -3.6994    3.0261    1.1563 H   0  0  0  0  0  0  0  0  0  0  0  0
   -2.0920    1.3077    0.6208 H   0  0  0  0  0  0  0  0  0  0  0  0
   -2.6373   -3.9790   -3.3238 H   0  0  0  0  0  0  0  0  0  0  0  0
   -1.5210   -4.7617   -2.1449 H   0  0  0  0  0  0  0  0  0  0  0  0
   -0.8552   -3.8116   -3.5429 H   0  0  0  0  0  0  0  0  0  0  0  0
    0.5571   -3.8310   -1.5822 H   0  0  0  0  0  0  0  0  0  0  0  0
    1.8159   -1.0502   -1.3270 H   0  0  0  0  0  0  0  0  0  0  0  0
    1.9586   -2.2359   -2.6463 H   0  0  0  0  0  0  0  0  0  0  0  0
    4.0347   -4.6178   -0.5477 H   0  0  0  0  0  0  0  0  0  0  0  0
    2.7629   -4.5374   -1.7839 H   0  0  0  0  0  0  0  0  0  0  0  0
    2.4389   -4.7600    1.2781 H   0  0  0  0  0  0  0  0  0  0  0  0
    1.4761   -5.4908   -0.0470 H   0  0  0  0  0  0  0  0  0  0  0  0
    0.0974   -3.6573    1.0211 H   0  0  0  0  0  0  0  0  0  0  0  0
    1.9262   -2.4067    2.2750 H   0  0  0  0  0  0  0  0  0  0  0  0
    1.2451   -1.2726    1.0695 H   0  0  0  0  0  0  0  0  0  0  0  0
    3.8932   -2.8457    1.0856 H   0  0  0  0  0  0  0  0  0  0  0  0
    3.3115   -0.0014    0.1440 H   0  0  0  0  0  0  0  0  0  0  0  0
    4.8939   -0.8688    0.0840 H   0  0  0  0  0  0  0  0  0  0  0  0
    4.7624   -1.2012    2.4675 H   0  0  0  0  0  0  0  0  0  0  0  0
    3.3078    3.1533    2.8224 H   0  0  0  0  0  0  0  0  0  0  0  0
    2.3627    5.0487    1.5444 H   0  0  0  0  0  0  0  0  0  0  0  0
    3.0036    5.3920   -0.8282 H   0  0  0  0  0  0  0  0  0  0  0  0
    4.5990    3.8365   -1.9206 H   0  0  0  0  0  0  0  0  0  0  0  0
    5.5485    1.9389   -0.6481 H   0  0  0  0  0  0  0  0  0  0  0  0
   -0.5838   -0.3758    0.0910 H   0  0  0  0  0  0  0  0  0  0  0  0
   -4.9457   -0.5549   -2.0254 H   0  0  0  0  0  0  0  0  0  0  0  0
   -6.5656    1.1511   -1.5060 H   0  0  0  0  0  0  0  0  0  0  0  0
  1  2  1  0  0  0  0
  1 35  1  0  0  0  0
  1 36  1  0  0  0  0
  1 37  1  0  0  0  0
  2  3  1  0  0  0  0
  2  4  1  0  0  0  0
  3 38  1  0  0  0  0
  3 39  1  0  0  0  0
  3 40  1  0  0  0  0
  4  5  2  0  0  0  0
  5  6  1  0  0  0  0
  5 41  1  0  0  0  0
  6  7  2  0  0  0  0
  6 42  1  0  0  0  0
  7  8  1  0  0  0  0
  7 33  1  0  0  0  0
  8  9  2  0  0  0  0
  9 10  1  0  0  0  0
 10 11  1  0  0  0  0
 10 12  1  0  0  0  0
 11 43  1  0  0  0  0
 11 44  1  0  0  0  0
 11 45  1  0  0  0  0
 12 32  2  0  0  0  0
 13 12  1  0  0  0  0
 13 14  1  0  0  0  0
 13 46  1  6  0  0  0
 14 47  1  0  0  0  0
 14 48  1  0  0  0  0
 15 14  1  1  0  0  0
 15 16  1  0  0  0  0
 16 17  1  0  0  0  0
 16 49  1  0  0  0  0
 16 50  1  0  0  0  0
 17 51  1  0  0  0  0
 17 52  1  0  0  0  0
 18 17  1  0  0  0  0
 18 19  1  0  0  0  0
 18 13  1  0  0  0  0
 18 53  1  1  0  0  0
 19 20  1  0  0  0  0
 19 54  1  0  0  0  0
 19 55  1  0  0  0  0
 20 21  1  0  0  0  0
 20 15  1  0  0  0  0
 20 56  1  1  0  0  0
 21 22  1  0  0  0  0
 21 57  1  0  0  0  0
 21 58  1  0  0  0  0
 22 23  1  0  0  0  0
 22 59  1  0  0  0  0
 23 24  2  0  0  0  0
 23 25  2  0  0  0  0
 23 26  1  0  0  0  0
 26 27  2  0  0  0  0
 27 28  1  0  0  0  0
 27 60  1  0  0  0  0
 28 29  2  0  0  0  0
 28 61  1  0  0  0  0
 29 30  1  0  0  0  0
 29 62  1  0  0  0  0
 30 31  2  0  0  0  0
 30 63  1  0  0  0  0
 31 26  1  0  0  0  0
 31 64  1  0  0  0  0
 32  8  1  0  0  0  0
 32 65  1  0  0  0  0
 33 34  2  0  0  0  0
 33 66  1  0  0  0  0
 34  4  1  0  0  0  0
 34 67  1  0  0  0  0
M  END
>  <IDENTIFIER>
CNP0472271.1

>  <Energy>
1139.09

$$$$
