
 OpenBabel09082520023D

 43 45  0  0  0  0  0  0  0  0999 V2000
    3.0455    1.4480    1.3131 C   0  0  0  0  0  0  0  0  0  0  0  0
    2.7257    0.4488    0.1869 C   0  0  0  0  0  0  0  0  0  0  0  0
    3.9500    0.2998   -0.7462 C   0  0  0  0  0  0  0  0  0  0  0  0
    2.2173   -0.9379    0.6874 C   0  0  0  0  0  0  0  0  0  0  0  0
    1.2151   -0.9316   -0.4791 C   0  0  2  0  0  0  0  0  0  0  0  0
    1.4268    0.6379   -0.6551 C   0  0  1  0  0  0  0  0  0  0  0  0
    0.3376    1.7363   -0.1340 C   0  0  0  0  0  0  0  0  0  0  0  0
   -1.2347    1.5245   -0.4489 C   0  0  0  0  0  0  0  0  0  0  0  0
   -1.9289    0.3750    0.4450 C   0  0  2  0  0  0  0  0  0  0  0  0
   -2.4332    1.0601    1.7439 C   0  0  0  0  0  0  0  0  0  0  0  0
   -0.8447   -0.5810    0.7846 C   0  0  0  0  0  0  0  0  0  0  0  0
   -0.2939   -1.2323   -0.5469 C   0  0  1  0  0  0  0  0  0  0  0  0
   -0.5623   -0.5868   -1.7823 O   0  0  0  0  0  0  0  0  0  0  0  0
   -1.2332   -2.4581   -0.6559 C   0  0  0  0  0  0  0  0  0  0  0  0
   -2.6636   -1.8307   -0.9963 C   0  0  0  0  0  0  0  0  0  0  0  0
   -3.0816   -0.6027   -0.0783 C   0  0  2  0  0  0  0  0  0  0  0  0
   -4.1716    0.1008   -0.6089 O   0  0  0  0  0  0  0  0  0  0  0  0
    3.9485    1.1134    1.8669 H   0  0  0  0  0  0  0  0  0  0  0  0
    2.2252    1.5170    2.0543 H   0  0  0  0  0  0  0  0  0  0  0  0
    3.2387    2.4553    0.8877 H   0  0  0  0  0  0  0  0  0  0  0  0
    4.8345   -0.0380   -0.1651 H   0  0  0  0  0  0  0  0  0  0  0  0
    4.1873    1.2787   -1.2148 H   0  0  0  0  0  0  0  0  0  0  0  0
    3.7778   -0.4357   -1.5596 H   0  0  0  0  0  0  0  0  0  0  0  0
    1.7365   -0.8271    1.6755 H   0  0  0  0  0  0  0  0  0  0  0  0
    2.9538   -1.7701    0.7127 H   0  0  0  0  0  0  0  0  0  0  0  0
    1.7386   -1.4344   -1.3270 H   0  0  0  0  0  0  0  0  0  0  0  0
    1.5767    0.8434   -1.7399 H   0  0  0  0  0  0  0  0  0  0  0  0
    0.6573    2.7017   -0.5803 H   0  0  0  0  0  0  0  0  0  0  0  0
    0.4072    1.9147    0.9530 H   0  0  0  0  0  0  0  0  0  0  0  0
   -1.3941    1.4198   -1.5376 H   0  0  0  0  0  0  0  0  0  0  0  0
   -1.7769    2.4757   -0.2553 H   0  0  0  0  0  0  0  0  0  0  0  0
   -1.6284    1.6520    2.2298 H   0  0  0  0  0  0  0  0  0  0  0  0
   -2.7947    0.3163    2.4868 H   0  0  0  0  0  0  0  0  0  0  0  0
   -3.2738    1.7474    1.5087 H   0  0  0  0  0  0  0  0  0  0  0  0
   -1.1525   -1.3382    1.5446 H   0  0  0  0  0  0  0  0  0  0  0  0
   -0.1267   -0.0489    1.4137 H   0  0  0  0  0  0  0  0  0  0  0  0
   -0.2098   -1.1440   -2.5303 H   0  0  0  0  0  0  0  0  0  0  0  0
   -1.2414   -3.0712    0.2721 H   0  0  0  0  0  0  0  0  0  0  0  0
   -0.9350   -3.1357   -1.4845 H   0  0  0  0  0  0  0  0  0  0  0  0
   -3.4528   -2.6124   -1.0029 H   0  0  0  0  0  0  0  0  0  0  0  0
   -2.6418   -1.4572   -2.0420 H   0  0  0  0  0  0  0  0  0  0  0  0
   -3.4452   -1.1308    0.8324 H   0  0  0  0  0  0  0  0  0  0  0  0
   -3.8416    0.5518   -1.4282 H   0  0  0  0  0  0  0  0  0  0  0  0
  1  2  1  0  0  0  0
  1 18  1  0  0  0  0
  1 19  1  0  0  0  0
  1 20  1  0  0  0  0
  2  3  1  0  0  0  0
  2  4  1  0  0  0  0
  3 21  1  0  0  0  0
  3 22  1  0  0  0  0
  3 23  1  0  0  0  0
  4 24  1  0  0  0  0
  4 25  1  0  0  0  0
  5  4  1  0  0  0  0
  5  6  1  0  0  0  0
  5 26  1  6  0  0  0
  6  7  1  0  0  0  0
  6  2  1  0  0  0  0
  6 27  1  6  0  0  0
  7  8  1  0  0  0  0
  7 28  1  0  0  0  0
  7 29  1  0  0  0  0
  8  9  1  0  0  0  0
  8 30  1  0  0  0  0
  8 31  1  0  0  0  0
  9 10  1  1  0  0  0
  9 11  1  0  0  0  0
 10 32  1  0  0  0  0
 10 33  1  0  0  0  0
 10 34  1  0  0  0  0
 11 12  1  0  0  0  0
 11 35  1  0  0  0  0
 11 36  1  0  0  0  0
 12 13  1  6  0  0  0
 12 14  1  0  0  0  0
 12  5  1  0  0  0  0
 13 37  1  0  0  0  0
 14 15  1  0  0  0  0
 14 38  1  0  0  0  0
 14 39  1  0  0  0  0
 15 16  1  0  0  0  0
 15 40  1  0  0  0  0
 15 41  1  0  0  0  0
 16 17  1  0  0  0  0
 16  9  1  0  0  0  0
 16 42  1  1  0  0  0
 17 43  1  0  0  0  0
M  END
>  <IDENTIFIER>
CNP0139354.10

>  <Energy>
1448.93

$$$$
