
 OpenBabel09132506222D

112111  0  0  0  0  0  0  0  0999 V2000
   -1.2990    3.7500    0.0000 C   0  0  0  0  0  0  0  0  0  0  0  0
    0.0000    3.0000    0.0000 C   0  0  0  0  0  2  0  0  0  0  0  0
    1.2990    2.2500    0.0000 C   0  0  0  0  0  0  0  0  0  0  0  0
    1.6153    0.9560   -0.0236 C   0  0  0  0  0  0  0  0  0  0  0  0
    3.0920    0.8627   -0.0082 C   0  0  0  0  0  0  0  0  0  0  0  0
    3.9094   -0.3675   -0.0283 C   0  0  0  0  0  0  0  0  0  0  0  0
    5.1962    0.0000    0.0000 C   0  0  0  0  0  0  0  0  0  0  0  0
    6.4952   -0.7500    0.0000 C   0  0  0  0  0  0  0  0  0  0  0  0
    7.7942   -1.5000    0.0000 C   0  0  0  0  0  0  0  0  0  0  0  0
    8.2382   -2.7867   -0.0479 C   0  0  0  0  0  0  0  0  0  0  0  0
    9.7717   -2.9348    0.0587 C   0  0  0  0  0  0  0  0  0  0  0  0
   10.4754   -4.2831   -0.0810 C   0  0  0  0  0  0  0  0  0  0  0  0
   11.8368   -4.2899   -0.0165 C   0  0  0  0  0  0  0  0  0  0  0  0
   12.7490   -5.4813   -0.2851 C   0  0  0  0  0  0  0  0  0  0  0  0
   13.8326   -5.7371    0.7725 C   0  0  0  0  0  0  0  0  0  0  0  0
   14.9453   -6.4485    0.4450 C   0  0  0  0  0  0  0  0  0  0  0  0
   16.1231   -6.7617    1.3901 C   0  0  0  0  0  0  0  0  0  0  0  0
   17.3087   -7.3241    0.6026 C   0  0  0  0  0  0  0  0  0  0  0  0
   18.4966   -7.8184    1.0779 C   0  0  0  0  0  0  0  0  0  0  0  0
   19.4856   -8.2500    0.0000 C   0  0  0  0  0  0  0  0  0  0  0  0
   20.7846   -9.0000    0.0000 C   0  0  0  0  0  2  0  0  0  0  0  0
   22.0836   -9.7500    0.0000 C   0  0  0  0  0  0  0  0  0  0  0  0
   22.9997   -8.9936   -0.2830 O   0  0  0  0  0  0  0  0  0  0  0  0
   22.4716  -11.1333    0.1878 O   0  0  0  0  0  0  0  0  0  0  0  0
   23.7911  -11.6702   -0.2234 C   0  0  0  0  0  0  0  0  0  0  0  0
   24.5184  -13.1174    0.2486 C   0  0  2  0  0  0  0  0  0  0  0  0
   26.0842  -13.3624   -0.4401 C   0  0  0  0  0  0  0  0  0  0  0  0
   27.2798  -14.2500    0.0000 O   0  0  0  0  0  0  0  0  0  0  0  0
   27.2798  -15.7500    0.0000 P   0  0  3  0  0  0  0  0  0  0  0  0
   27.2798  -17.2500    0.0000 O   0  0  0  0  0  0  0  0  0  0  0  0
   25.7798  -15.7500    0.0000 O   0  0  0  0  0  0  0  0  0  0  0  0
   28.7798  -15.7500    0.0000 O   0  0  0  0  0  0  0  0  0  0  0  0
   29.4138  -16.3806   -1.1132 C   0  0  0  0  0  0  0  0  0  0  0  0
   30.3163  -17.5081   -0.5540 C   0  0  2  0  0  0  0  0  0  0  0  0
   31.3605  -16.9576    0.3172 N   0  0  0  0  0  0  0  0  0  0  0  0
   30.9217  -18.3461   -1.6515 C   0  0  0  0  0  0  0  0  0  0  0  0
   32.1354  -18.4524   -1.7627 O   0  0  0  0  0  0  0  0  0  0  0  0
   30.1094  -19.0334   -2.4815 O   0  0  0  0  0  0  0  0  0  0  0  0
   23.6716  -14.2182   -0.0372 O   0  0  0  0  0  0  0  0  0  0  0  0
   22.5383  -14.6851    0.6238 C   0  0  0  0  0  0  0  0  0  0  0  0
   22.1271  -14.1209    1.6251 O   0  0  0  0  0  0  0  0  0  0  0  0
   21.8329  -15.9628    0.0999 C   0  0  0  0  0  0  0  0  0  0  0  0
   20.6197  -16.6947    0.8619 C   0  0  0  0  0  0  0  0  0  0  0  0
   20.1817  -17.9462    0.0000 C   0  0  0  0  0  0  0  0  0  0  0  0
   19.4317  -19.2452    0.0000 C   0  0  0  0  0  2  0  0  0  0  0  0
   18.6817  -20.5442    0.0000 C   0  0  0  0  0  0  0  0  0  0  0  0
   17.9317  -21.8433    0.0000 C   0  0  0  0  0  0  0  0  0  0  0  0
   17.1817  -23.1423    0.0000 C   0  0  0  0  0  2  0  0  0  0  0  0
   16.4317  -24.4413    0.0000 C   0  0  0  0  0  0  0  0  0  0  0  0
   16.6046  -25.8112    0.0001 C   0  0  0  0  0  0  0  0  0  0  0  0
   15.3371  -26.7960    0.0000 C   0  0  0  0  0  0  0  0  0  0  0  0
   15.6817  -28.3385    0.0000 C   0  0  0  0  0  0  0  0  0  0  0  0
   14.9317  -29.6375    0.0000 C   0  0  0  0  0  2  0  0  0  0  0  0
   14.1817  -30.9365    0.0000 C   0  0  0  0  0  0  0  0  0  0  0  0
   -0.8173    4.7451   -0.0924 H   0  0  0  0  0  0  0  0  0  0  0  0
   -1.6050    3.3807   -1.0003 H   0  0  0  0  0  0  0  0  0  0  0  0
   -2.2256    4.2850    0.0000 H   0  0  0  0  0  0  0  0  0  0  0  0
    2.0887    3.0055    0.0238 H   0  0  0  0  0  0  0  0  0  0  0  0
    0.9094    0.1327   -0.0499 H   0  0  0  0  0  0  0  0  0  0  0  0
    3.4273    1.4414   -0.9112 H   0  0  0  0  0  0  0  0  0  0  0  0
    3.4031    1.3973    0.9299 H   0  0  0  0  0  0  0  0  0  0  0  0
    3.5459   -1.3891   -0.0599 H   0  0  0  0  0  0  0  0  0  0  0  0
    5.4546    1.0620    0.0319 H   0  0  0  0  0  0  0  0  0  0  0  0
    6.2200   -1.2368   -0.9613 H   0  0  0  0  0  0  0  0  0  0  0  0
    6.1751   -1.3169    0.9017 H   0  0  0  0  0  0  0  0  0  0  0  0
    8.5851   -0.7571    0.0834 H   0  0  0  0  0  0  0  0  0  0  0  0
    7.5648   -3.6323   -0.1409 H   0  0  0  0  0  0  0  0  0  0  0  0
   10.2052   -2.2967   -0.7439 H   0  0  0  0  0  0  0  0  0  0  0  0
   10.0723   -2.5062    1.0406 H   0  0  0  0  0  0  0  0  0  0  0  0
    9.9124   -5.1891   -0.2825 H   0  0  0  0  0  0  0  0  0  0  0  0
   12.3462   -3.3450    0.1537 H   0  0  0  0  0  0  0  0  0  0  0  0
   12.1836   -6.4134   -0.4970 H   0  0  0  0  0  0  0  0  0  0  0  0
   13.2830   -5.1959   -1.2161 H   0  0  0  0  0  0  0  0  0  0  0  0
   13.7384   -5.3074    1.7652 H   0  0  0  0  0  0  0  0  0  0  0  0
   15.0124   -6.8024   -0.5807 H   0  0  0  0  0  0  0  0  0  0  0  0
   15.7763   -7.4822    2.1584 H   0  0  0  0  0  0  0  0  0  0  0  0
   16.4667   -5.8307    1.8883 H   0  0  0  0  0  0  0  0  0  0  0  0
   17.1885   -7.3179   -0.4793 H   0  0  0  0  0  0  0  0  0  0  0  0
   18.7129   -7.8951    2.1381 H   0  0  0  0  0  0  0  0  0  0  0  0
   18.8895   -8.9137   -0.6643 H   0  0  0  0  0  0  0  0  0  0  0  0
   19.6989   -7.3382   -0.5987 H   0  0  0  0  0  0  0  0  0  0  0  0
   24.5465  -10.9106    0.0688 H   0  0  0  0  0  0  0  0  0  0  0  0
   23.7882  -11.6809   -1.3338 H   0  0  0  0  0  0  0  0  0  0  0  0
   24.6681  -13.0506    1.3476 H   0  0  0  0  0  0  0  0  0  0  0  0
   26.5176  -12.3443   -0.3711 H   0  0  0  0  0  0  0  0  0  0  0  0
   25.9375  -13.5058   -1.5323 H   0  0  0  0  0  0  0  0  0  0  0  0
   25.5146  -15.8317    0.9548 H   0  0  0  0  0  0  0  0  0  0  0  0
   30.0286  -15.6325   -1.6608 H   0  0  0  0  0  0  0  0  0  0  0  0
   28.7068  -16.8083   -1.8643 H   0  0  0  0  0  0  0  0  0  0  0  0
   29.6913  -18.2027    0.0519 H   0  0  0  0  0  0  0  0  0  0  0  0
   31.9365  -16.2608   -0.2093 H   0  0  0  0  0  0  0  0  0  0  0  0
   30.9263  -16.4825    1.1388 H   0  0  0  0  0  0  0  0  0  0  0  0
   30.4646  -19.6216   -3.1641 H   0  0  0  0  0  0  0  0  0  0  0  0
   22.6462  -16.7165    0.0246 H   0  0  0  0  0  0  0  0  0  0  0  0
   21.4986  -15.7259   -0.9331 H   0  0  0  0  0  0  0  0  0  0  0  0
   20.9738  -17.0234    1.8598 H   0  0  0  0  0  0  0  0  0  0  0  0
   19.7545  -16.0079    0.9877 H   0  0  0  0  0  0  0  0  0  0  0  0
   19.8625  -17.5016   -0.9667 H   0  0  0  0  0  0  0  0  0  0  0  0
   21.1714  -18.4048   -0.2073 H   0  0  0  0  0  0  0  0  0  0  0  0
   18.1260  -20.1750    0.8959 H   0  0  0  0  0  0  0  0  0  0  0  0
   18.1262  -20.1751   -0.8960 H   0  0  0  0  0  0  0  0  0  0  0  0
   18.4874  -22.2123    0.8960 H   0  0  0  0  0  0  0  0  0  0  0  0
   18.4875  -22.2124   -0.8959 H   0  0  0  0  0  0  0  0  0  0  0  0
   15.3763  -24.1869   -0.0001 H   0  0  0  0  0  0  0  0  0  0  0  0
   17.6090  -26.2215    0.0001 H   0  0  0  0  0  0  0  0  0  0  0  0
   14.7239  -26.5802   -0.9005 H   0  0  0  0  0  0  0  0  0  0  0  0
   14.7239  -26.5802    0.9005 H   0  0  0  0  0  0  0  0  0  0  0  0
   16.3479  -28.4548   -0.8808 H   0  0  0  0  0  0  0  0  0  0  0  0
   16.3476  -28.4548    0.8811 H   0  0  0  0  0  0  0  0  0  0  0  0
   13.3565  -30.5523    0.6342 H   0  0  0  0  0  0  0  0  0  0  0  0
   14.9254  -31.4581    0.6368 H   0  0  0  0  0  0  0  0  0  0  0  0
   13.6467  -31.8631    0.0000 H   0  0  0  0  0  0  0  0  0  0  0  0
  1  2  1  0  0  0  0
  1 55  1  0  0  0  0
  1 56  1  0  0  0  0
  1 57  1  0  0  0  0
  2  3  1  0  0  0  0
  3  4  2  3  0  0  0
  3 58  1  0  0  0  0
  4  5  1  0  0  0  0
  4 59  1  0  0  0  0
  5  6  1  0  0  0  0
  5 60  1  0  0  0  0
  5 61  1  0  0  0  0
  6  7  2  3  0  0  0
  6 62  1  0  0  0  0
  7  8  1  0  0  0  0
  7 63  1  0  0  0  0
  8  9  1  0  0  0  0
  8 64  1  0  0  0  0
  8 65  1  0  0  0  0
  9 10  2  3  0  0  0
  9 66  1  0  0  0  0
 10 11  1  0  0  0  0
 10 67  1  0  0  0  0
 11 12  1  0  0  0  0
 11 68  1  0  0  0  0
 11 69  1  0  0  0  0
 12 13  2  3  0  0  0
 12 70  1  0  0  0  0
 13 14  1  0  0  0  0
 13 71  1  0  0  0  0
 14 15  1  0  0  0  0
 14 72  1  0  0  0  0
 14 73  1  0  0  0  0
 15 16  2  3  0  0  0
 15 74  1  0  0  0  0
 16 17  1  0  0  0  0
 16 75  1  0  0  0  0
 17 18  1  0  0  0  0
 17 76  1  0  0  0  0
 17 77  1  0  0  0  0
 18 19  2  3  0  0  0
 18 78  1  0  0  0  0
 19 20  1  0  0  0  0
 19 79  1  0  0  0  0
 20 21  1  0  0  0  0
 20 80  1  0  0  0  0
 20 81  1  0  0  0  0
 21 22  1  0  0  0  0
 22 23  2  0  0  0  0
 22 24  1  0  0  0  0
 24 25  1  0  0  0  0
 25 82  1  0  0  0  0
 25 83  1  0  0  0  0
 26 25  1  0  0  0  0
 26 27  1  0  0  0  0
 26 39  1  0  0  0  0
 26 84  1  1  0  0  0
 27 28  1  0  0  0  0
 27 85  1  0  0  0  0
 27 86  1  0  0  0  0
 28 29  1  0  0  0  0
 29 30  2  0  0  0  0
 29 31  1  0  0  0  0
 29 32  1  0  0  0  0
 31 87  1  0  0  0  0
 32 33  1  0  0  0  0
 33 34  1  0  0  0  0
 33 88  1  0  0  0  0
 33 89  1  0  0  0  0
 34 35  1  0  0  0  0
 34 36  1  0  0  0  0
 34 90  1  1  0  0  0
 35 91  1  0  0  0  0
 35 92  1  0  0  0  0
 36 37  2  0  0  0  0
 36 38  1  0  0  0  0
 38 93  1  0  0  0  0
 39 40  1  0  0  0  0
 40 41  2  0  0  0  0
 40 42  1  0  0  0  0
 42 43  1  0  0  0  0
 42 94  1  0  0  0  0
 42 95  1  0  0  0  0
 43 44  1  0  0  0  0
 43 96  1  0  0  0  0
 43 97  1  0  0  0  0
 44 45  1  0  0  0  0
 44 98  1  0  0  0  0
 44 99  1  0  0  0  0
 45 46  1  0  0  0  0
 46 47  1  0  0  0  0
 46100  1  0  0  0  0
 46101  1  0  0  0  0
 47 48  1  0  0  0  0
 47102  1  0  0  0  0
 47103  1  0  0  0  0
 48 49  1  0  0  0  0
 49 50  2  3  0  0  0
 49104  1  0  0  0  0
 50 51  1  0  0  0  0
 50105  1  0  0  0  0
 51 52  1  0  0  0  0
 51106  1  0  0  0  0
 51107  1  0  0  0  0
 52 53  1  0  0  0  0
 52108  1  0  0  0  0
 52109  1  0  0  0  0
 53 54  1  0  0  0  0
 54110  1  0  0  0  0
 54111  1  0  0  0  0
 54112  1  0  0  0  0
M  END
>  <IDENTIFIER>
CNP0046362.1

>  <Energy>
6197.12

$$$$
