
 OpenBabel09092519153D

 69 72  0  0  0  0  0  0  0  0999 V2000
   -0.3039    4.3988    4.2547 C   0  0  0  0  0  0  0  0  0  0  0  0
   -0.2283    4.0248    2.7736 C   0  0  0  0  0  0  0  0  0  0  0  0
   -0.9518    5.0702    1.9183 C   0  0  0  0  0  0  0  0  0  0  0  0
   -0.8521    2.7281    2.5630 N   0  0  0  0  0  0  0  0  0  0  0  0
   -0.2195    1.6608    1.9976 C   0  0  0  0  0  0  0  0  0  0  0  0
    0.9578    1.7303    1.6784 O   0  0  0  0  0  0  0  0  0  0  0  0
   -1.0203    0.4034    1.7465 C   0  0  0  0  0  0  0  0  0  0  0  0
   -0.4180   -0.6780    0.7923 C   0  0  2  0  0  0  0  0  0  0  0  0
   -0.1878   -0.1100   -0.6025 C   0  0  0  0  0  0  0  0  0  0  0  0
   -0.6514   -0.7139   -1.7632 C   0  0  0  0  0  0  0  0  0  0  0  0
   -1.3349   -2.0332   -1.8066 C   0  0  0  0  0  0  0  0  0  0  0  0
   -0.9745   -2.8468   -0.5320 C   0  0  2  0  0  0  0  0  0  0  0  0
   -1.4322   -4.3805   -0.5790 C   0  0  2  0  0  0  0  0  0  0  0  0
   -0.4966   -5.1070   -1.5953 C   0  0  0  0  0  0  0  0  0  0  0  0
   -2.8942   -4.6481   -1.0798 C   0  0  0  0  0  0  0  0  0  0  0  0
   -3.0895   -4.1947   -2.3942 O   0  0  0  0  0  0  0  0  0  0  0  0
   -1.2040   -5.0638    0.8372 C   0  0  2  0  0  0  0  0  0  0  0  0
   -2.4014   -5.3958    1.5045 O   0  0  0  0  0  0  0  0  0  0  0  0
   -0.2861   -4.2367    1.7578 C   0  0  0  0  0  0  0  0  0  0  0  0
   -0.9150   -2.8604    2.0661 C   0  0  0  0  0  0  0  0  0  0  0  0
   -1.2999   -2.0214    0.7835 C   0  0  1  0  0  0  0  0  0  0  0  0
   -2.8211   -1.6813    0.8460 C   0  0  0  0  0  0  0  0  0  0  0  0
   -0.0618    0.1229   -3.1016 S   0  0  0  0  0  0  0  0  0  0  0  0
    0.7666    1.2292   -2.1434 C   0  0  0  0  0  0  0  0  0  0  0  0
    1.6592    2.2108   -2.6570 N   0  0  0  0  0  0  0  0  0  0  0  0
    2.4425    3.0071   -1.8746 C   0  0  0  0  0  0  0  0  0  0  0  0
    2.3617    2.9637   -0.6546 O   0  0  0  0  0  0  0  0  0  0  0  0
    3.4469    3.9308   -2.5158 C   0  0  0  0  0  0  0  0  0  0  0  0
    4.4752    4.6290   -1.6188 C   0  0  0  0  0  0  0  0  0  0  0  0
    5.4945    4.4089   -2.7387 C   0  0  0  0  0  0  0  0  0  0  0  0
    4.6190    3.2557   -3.2336 C   0  0  0  0  0  0  0  0  0  0  0  0
    0.6029    0.9716   -0.8278 N   0  0  0  0  0  0  0  0  0  0  0  0
    0.1651    5.3917    4.4236 H   0  0  0  0  0  0  0  0  0  0  0  0
    0.2361    3.6434    4.8631 H   0  0  0  0  0  0  0  0  0  0  0  0
   -1.3622    4.4415    4.5927 H   0  0  0  0  0  0  0  0  0  0  0  0
    0.8408    4.0129    2.4679 H   0  0  0  0  0  0  0  0  0  0  0  0
   -2.0270    5.1292    2.1949 H   0  0  0  0  0  0  0  0  0  0  0  0
   -0.8783    4.7934    0.8446 H   0  0  0  0  0  0  0  0  0  0  0  0
   -0.4904    6.0712    2.0548 H   0  0  0  0  0  0  0  0  0  0  0  0
   -1.8489    2.6322    2.8147 H   0  0  0  0  0  0  0  0  0  0  0  0
   -1.9716    0.7423    1.2833 H   0  0  0  0  0  0  0  0  0  0  0  0
   -1.2465   -0.0339    2.7427 H   0  0  0  0  0  0  0  0  0  0  0  0
    0.6043   -0.9446    1.1414 H   0  0  0  0  0  0  0  0  0  0  0  0
   -0.9731   -2.5581   -2.7113 H   0  0  0  0  0  0  0  0  0  0  0  0
   -2.4240   -1.8725   -1.9285 H   0  0  0  0  0  0  0  0  0  0  0  0
    0.1392   -2.8975   -0.5199 H   0  0  0  0  0  0  0  0  0  0  0  0
   -0.5951   -4.7100   -2.6251 H   0  0  0  0  0  0  0  0  0  0  0  0
   -0.7396   -6.1905   -1.6497 H   0  0  0  0  0  0  0  0  0  0  0  0
    0.5694   -5.0172   -1.2950 H   0  0  0  0  0  0  0  0  0  0  0  0
   -3.6492   -4.1979   -0.4136 H   0  0  0  0  0  0  0  0  0  0  0  0
   -3.0872   -5.7437   -1.0700 H   0  0  0  0  0  0  0  0  0  0  0  0
   -4.0538   -3.9766   -2.4877 H   0  0  0  0  0  0  0  0  0  0  0  0
   -0.7067   -6.0477    0.6865 H   0  0  0  0  0  0  0  0  0  0  0  0
   -2.9119   -4.5729    1.6913 H   0  0  0  0  0  0  0  0  0  0  0  0
    0.7045   -4.1027    1.2717 H   0  0  0  0  0  0  0  0  0  0  0  0
   -0.1092   -4.7841    2.7088 H   0  0  0  0  0  0  0  0  0  0  0  0
   -0.2098   -2.3094    2.7252 H   0  0  0  0  0  0  0  0  0  0  0  0
   -1.8024   -3.0118    2.7153 H   0  0  0  0  0  0  0  0  0  0  0  0
   -3.0824   -1.1650    1.7923 H   0  0  0  0  0  0  0  0  0  0  0  0
   -3.4538   -2.5744    0.8587 H   0  0  0  0  0  0  0  0  0  0  0  0
   -3.1389   -1.0282    0.0098 H   0  0  0  0  0  0  0  0  0  0  0  0
    1.7594    2.2767   -3.6827 H   0  0  0  0  0  0  0  0  0  0  0  0
    2.9783    4.6803   -3.1952 H   0  0  0  0  0  0  0  0  0  0  0  0
    4.7565    3.9608   -0.7702 H   0  0  0  0  0  0  0  0  0  0  0  0
    4.2731    5.6677   -1.2816 H   0  0  0  0  0  0  0  0  0  0  0  0
    6.5505    4.1970   -2.4661 H   0  0  0  0  0  0  0  0  0  0  0  0
    5.4131    5.2515   -3.4648 H   0  0  0  0  0  0  0  0  0  0  0  0
    4.9143    2.3345   -2.6760 H   0  0  0  0  0  0  0  0  0  0  0  0
    4.5446    3.0725   -4.3261 H   0  0  0  0  0  0  0  0  0  0  0  0
  1  2  1  0  0  0  0
  1 33  1  0  0  0  0
  1 34  1  0  0  0  0
  1 35  1  0  0  0  0
  2  3  1  0  0  0  0
  2  4  1  0  0  0  0
  2 36  1  0  0  0  0
  3 37  1  0  0  0  0
  3 38  1  0  0  0  0
  3 39  1  0  0  0  0
  4  5  1  0  0  0  0
  4 40  1  0  0  0  0
  5  6  2  0  0  0  0
  5  7  1  0  0  0  0
  7 41  1  0  0  0  0
  7 42  1  0  0  0  0
  8  7  1  0  0  0  0
  8  9  1  0  0  0  0
  8 43  1  1  0  0  0
  9 10  2  0  0  0  0
 10 11  1  0  0  0  0
 10 23  1  0  0  0  0
 11 44  1  0  0  0  0
 11 45  1  0  0  0  0
 12 11  1  0  0  0  0
 12 13  1  0  0  0  0
 12 46  1  6  0  0  0
 13 14  1  6  0  0  0
 13 15  1  0  0  0  0
 13 17  1  0  0  0  0
 14 47  1  0  0  0  0
 14 48  1  0  0  0  0
 14 49  1  0  0  0  0
 15 16  1  0  0  0  0
 15 50  1  0  0  0  0
 15 51  1  0  0  0  0
 16 52  1  0  0  0  0
 17 18  1  0  0  0  0
 17 19  1  0  0  0  0
 17 53  1  6  0  0  0
 18 54  1  0  0  0  0
 19 20  1  0  0  0  0
 19 55  1  0  0  0  0
 19 56  1  0  0  0  0
 20 21  1  0  0  0  0
 20 57  1  0  0  0  0
 20 58  1  0  0  0  0
 21 22  1  1  0  0  0
 21  8  1  0  0  0  0
 21 12  1  0  0  0  0
 22 59  1  0  0  0  0
 22 60  1  0  0  0  0
 22 61  1  0  0  0  0
 23 24  1  0  0  0  0
 24 25  1  0  0  0  0
 24 32  2  0  0  0  0
 25 26  1  0  0  0  0
 25 62  1  0  0  0  0
 26 27  2  0  0  0  0
 26 28  1  0  0  0  0
 28 29  1  0  0  0  0
 28 63  1  0  0  0  0
 29 30  1  0  0  0  0
 29 64  1  0  0  0  0
 29 65  1  0  0  0  0
 30 31  1  0  0  0  0
 30 66  1  0  0  0  0
 30 67  1  0  0  0  0
 31 28  1  0  0  0  0
 31 68  1  0  0  0  0
 31 69  1  0  0  0  0
 32  9  1  0  0  0  0
M  END
>  <IDENTIFIER>
CNP0039804.1

>  <Energy>
1273.9

$$$$
