
 OpenBabel09082508083D

 34 36  0  0  0  0  0  0  0  0999 V2000
    2.2836    0.7486   -1.7164 C   0  0  0  0  0  0  0  0  0  0  0  0
    2.6915    0.3136   -0.3288 C   0  0  0  0  0  0  0  0  0  0  0  0
    4.0472    0.4453    0.0303 C   0  0  0  0  0  0  0  0  0  0  0  0
    4.4993    0.0363    1.2839 C   0  0  0  0  0  0  0  0  0  0  0  0
    3.6113   -0.5194    2.1983 C   0  0  0  0  0  0  0  0  0  0  0  0
    2.2652   -0.6649    1.8661 C   0  0  0  0  0  0  0  0  0  0  0  0
    1.7750   -0.2485    0.6098 C   0  0  0  0  0  0  0  0  0  0  0  0
    0.2857   -0.4267    0.3441 C   0  0  1  0  0  0  0  0  0  0  0  0
   -0.4712    0.9100    0.4133 C   0  0  0  0  0  0  0  0  0  0  0  0
   -1.9251    0.6612    0.1454 C   0  0  0  0  0  0  0  0  0  0  0  0
   -2.8913    1.5811    0.5798 C   0  0  0  0  0  0  0  0  0  0  0  0
   -4.2491    1.3188    0.3805 C   0  0  0  0  0  0  0  0  0  0  0  0
   -4.6487    0.1415   -0.2561 C   0  0  0  0  0  0  0  0  0  0  0  0
   -3.6914   -0.7726   -0.7059 C   0  0  0  0  0  0  0  0  0  0  0  0
   -2.3232   -0.5161   -0.5182 C   0  0  0  0  0  0  0  0  0  0  0  0
   -1.2813   -1.4999   -1.0410 C   0  0  1  0  0  0  0  0  0  0  0  0
   -1.5188   -1.7384   -2.4027 O   0  0  0  0  0  0  0  0  0  0  0  0
    0.0693   -1.0644   -0.8965 O   0  0  0  0  0  0  0  0  0  0  0  0
    3.1500    1.1356   -2.2939 H   0  0  0  0  0  0  0  0  0  0  0  0
    1.5347    1.5585   -1.6820 H   0  0  0  0  0  0  0  0  0  0  0  0
    1.8789   -0.1139   -2.2837 H   0  0  0  0  0  0  0  0  0  0  0  0
    4.7642    0.8645   -0.6646 H   0  0  0  0  0  0  0  0  0  0  0  0
    5.5438    0.1466    1.5454 H   0  0  0  0  0  0  0  0  0  0  0  0
    3.9642   -0.8372    3.1710 H   0  0  0  0  0  0  0  0  0  0  0  0
    1.6004   -1.0954    2.6042 H   0  0  0  0  0  0  0  0  0  0  0  0
   -0.1312   -1.0683    1.1594 H   0  0  0  0  0  0  0  0  0  0  0  0
   -0.1087    1.6885   -0.2819 H   0  0  0  0  0  0  0  0  0  0  0  0
   -0.3485    1.2914    1.4516 H   0  0  0  0  0  0  0  0  0  0  0  0
   -2.5931    2.4886    1.0900 H   0  0  0  0  0  0  0  0  0  0  0  0
   -4.9924    2.0247    0.7276 H   0  0  0  0  0  0  0  0  0  0  0  0
   -5.7014   -0.0615   -0.4048 H   0  0  0  0  0  0  0  0  0  0  0  0
   -4.0145   -1.6761   -1.2079 H   0  0  0  0  0  0  0  0  0  0  0  0
   -1.4060   -2.4675   -0.5075 H   0  0  0  0  0  0  0  0  0  0  0  0
   -1.3122   -0.8945   -2.8857 H   0  0  0  0  0  0  0  0  0  0  0  0
  1  2  1  0  0  0  0
  1 19  1  0  0  0  0
  1 20  1  0  0  0  0
  1 21  1  0  0  0  0
  2  3  2  0  0  0  0
  3  4  1  0  0  0  0
  3 22  1  0  0  0  0
  4  5  2  0  0  0  0
  4 23  1  0  0  0  0
  5  6  1  0  0  0  0
  5 24  1  0  0  0  0
  6  7  2  0  0  0  0
  6 25  1  0  0  0  0
  7  2  1  0  0  0  0
  8  7  1  0  0  0  0
  8  9  1  0  0  0  0
  8 26  1  1  0  0  0
  9 10  1  0  0  0  0
  9 27  1  0  0  0  0
  9 28  1  0  0  0  0
 10 11  2  0  0  0  0
 11 12  1  0  0  0  0
 11 29  1  0  0  0  0
 12 13  2  0  0  0  0
 12 30  1  0  0  0  0
 13 14  1  0  0  0  0
 13 31  1  0  0  0  0
 14 15  2  0  0  0  0
 14 32  1  0  0  0  0
 15 16  1  0  0  0  0
 15 10  1  0  0  0  0
 16 17  1  0  0  0  0
 16 18  1  0  0  0  0
 16 33  1  1  0  0  0
 17 34  1  0  0  0  0
 18  8  1  0  0  0  0
M  END
>  <IDENTIFIER>
CNP0052779.1

>  <Energy>
252.709

$$$$
