
 OpenBabel09052502212D

206205  0  0  0  0  0  0  0  0999 V2000
   -0.7589    0.2877    0.0676 N   0  0  0  0  0  0  0  0  0  0  0  0
   -1.5678   -0.7111   -0.0118 C   0  0  0  0  0  0  0  0  0  0  0  0
   -2.6640   -0.5853   -0.9097 N   0  0  0  0  0  0  0  0  0  0  0  0
   -1.3131   -1.8650    0.8170 N   0  0  0  0  0  0  0  0  0  0  0  0
   -1.9242   -3.1919    0.8915 C   0  0  0  0  0  0  0  0  0  0  0  0
   -3.0658   -3.5330   -0.0794 C   0  0  0  0  0  0  0  0  0  0  0  0
   -3.4338   -5.0341   -0.0365 C   0  0  0  0  0  0  0  0  0  0  0  0
   -4.0790   -5.5341    1.2835 C   0  0  2  0  0  0  0  0  0  0  0  0
   -3.9657   -6.9922    1.3018 N   0  0  0  0  0  0  0  0  0  0  0  0
   -4.9522   -7.9434    1.3049 C   0  0  0  0  0  0  0  0  0  0  0  0
   -6.1361   -7.6416    1.3051 O   0  0  0  0  0  0  0  0  0  0  0  0
   -4.5369   -9.4041    1.3024 C   0  0  2  0  0  0  0  0  0  0  0  0
   -3.6962   -9.6962    0.0000 C   0  0  0  0  0  0  0  0  0  0  0  0
   -2.9462  -10.9952    0.0000 C   0  0  0  0  0  0  0  0  0  0  0  0
   -2.1962  -12.2942    0.0000 C   0  0  0  0  0  0  0  0  0  0  0  0
   -2.8638  -13.2820   -0.8354 N   0  0  0  0  0  0  0  0  0  0  0  0
   -2.4155  -14.6312   -0.9564 C   0  0  0  0  0  0  0  0  0  0  0  0
   -2.9751  -15.3958   -1.8257 N   0  0  0  0  0  0  0  0  0  0  0  0
   -1.3929  -15.1535   -0.1146 N   0  0  0  0  0  0  0  0  0  0  0  0
   -5.7000  -10.2998    1.5446 N   0  0  0  0  0  0  0  0  0  0  0  0
   -6.1740  -11.3127    0.7406 C   0  0  0  0  0  0  0  0  0  0  0  0
   -5.7013  -11.5179   -0.3668 O   0  0  0  0  0  0  0  0  0  0  0  0
   -7.3123  -12.2331    1.1595 C   0  0  2  0  0  0  0  0  0  0  0  0
   -8.3433  -12.1471    0.0000 C   0  0  0  0  0  0  0  0  0  0  0  0
   -9.6423  -12.8971    0.0000 C   0  0  0  0  0  0  0  0  0  0  0  0
  -10.9413  -13.6471    0.0000 C   0  0  0  0  0  0  0  0  0  0  0  0
  -12.1202  -12.7886   -0.0029 N   0  0  0  0  0  0  0  0  0  0  0  0
  -13.4490  -13.3166    0.0046 C   0  0  0  0  0  0  0  0  0  0  0  0
  -14.4537  -12.5168    0.0005 N   0  0  0  0  0  0  0  0  0  0  0  0
  -13.6854  -14.7195    0.0142 N   0  0  0  0  0  0  0  0  0  0  0  0
   -6.7407  -13.5586    1.4384 N   0  0  0  0  0  0  0  0  0  0  0  0
   -6.9328  -14.6984    0.7169 C   0  0  0  0  0  0  0  0  0  0  0  0
   -7.6219  -14.6817   -0.2877 O   0  0  0  0  0  0  0  0  0  0  0  0
   -6.2762  -16.0194    1.1202 C   0  0  2  0  0  0  0  0  0  0  0  0
   -5.5442  -16.5933    0.0000 C   0  0  0  0  0  0  0  0  0  0  0  0
   -4.7942  -17.8923    0.0000 C   0  0  0  0  0  2  0  0  0  0  0  0
   -4.0442  -19.1913    0.0000 C   0  0  0  0  0  0  0  0  0  0  0  0
   -4.5008  -20.0330    1.0874 N   0  0  0  0  0  0  0  0  0  0  0  0
   -3.9830  -21.3414    1.3148 C   0  0  0  0  0  0  0  0  0  0  0  0
   -4.4299  -22.0238    2.3089 N   0  0  0  0  0  0  0  0  0  0  0  0
   -2.9928  -21.9034    0.4602 N   0  0  0  0  0  0  0  0  0  0  0  0
   -7.2028  -17.0059    1.1896 N   0  0  0  0  0  0  0  0  0  0  0  0
   -7.5933  -17.5442    0.0000 C   0  0  0  0  0  0  0  0  0  0  0  0
   -7.5343  -17.0563   -1.1352 O   0  0  0  0  0  0  0  0  0  0  0  0
   -8.8923  -18.2942    0.0000 C   0  0  2  0  0  0  0  0  0  0  0  0
  -10.1913  -19.0442    0.0000 C   0  0  0  0  0  0  0  0  0  0  0  0
  -11.2641  -19.0299    1.1483 C   0  0  0  0  0  0  0  0  0  0  0  0
  -12.3954  -20.0029    0.7653 C   0  0  0  0  0  0  0  0  0  0  0  0
  -13.4528  -20.0475    1.7512 N   0  0  0  0  0  0  0  0  0  0  0  0
  -14.5614  -20.9428    1.6174 C   0  0  0  0  0  0  0  0  0  0  0  0
  -15.4990  -20.9371    2.4968 N   0  0  0  0  0  0  0  0  0  0  0  0
  -14.6465  -21.8576    0.5299 N   0  0  0  0  0  0  0  0  0  0  0  0
   -8.2624  -19.7344   -0.0039 N   0  0  0  0  0  0  0  0  0  0  0  0
   -8.5566  -20.8724    0.8601 C   0  0  0  0  0  0  0  0  0  0  0  0
   -9.0531  -20.6552    1.9490 O   0  0  0  0  0  0  0  0  0  0  0  0
   -8.3469  -22.4573    0.5602 C   0  0  2  0  0  0  0  0  0  0  0  0
   -7.5098  -22.6786   -0.7320 C   0  0  0  0  0  0  0  0  0  0  0  0
   -6.3675  -23.7161   -0.6437 C   0  0  0  0  0  0  0  0  0  0  0  0
   -6.7044  -25.1749   -0.3301 C   0  0  0  0  0  0  0  0  0  0  0  0
   -5.4753  -25.9589   -0.3473 N   0  0  0  0  0  0  0  0  0  0  0  0
   -5.4087  -27.3492   -0.0376 C   0  0  0  0  0  0  0  0  0  0  0  0
   -4.2852  -27.9623   -0.1637 N   0  0  0  0  0  0  0  0  0  0  0  0
   -6.5467  -28.0584    0.4248 N   0  0  0  0  0  0  0  0  0  0  0  0
   -9.6085  -23.3652    0.5273 N   0  0  0  0  0  0  0  0  0  0  0  0
   -9.8469  -24.4864    1.3657 C   0  0  0  0  0  0  0  0  0  0  0  0
   -9.0098  -24.6811    2.2369 O   0  0  0  0  0  0  0  0  0  0  0  0
  -11.0629  -25.6236    1.3844 C   0  0  2  0  0  0  0  0  0  0  0  0
  -12.7098  -25.7922    1.1991 C   0  0  0  0  0  0  0  0  0  0  0  0
  -13.3385  -26.6913    0.0000 C   0  0  0  0  0  0  0  0  0  0  0  0
  -14.6375  -27.4413    0.0000 C   0  0  0  0  0  0  0  0  0  0  0  0
  -15.9365  -28.1913    0.0000 N   0  0  0  0  0  0  0  0  0  0  0  0
  -16.1722  -29.4577   -0.6298 C   0  0  0  0  0  0  0  0  0  0  0  0
  -17.3206  -30.0237   -0.5110 N   0  0  0  0  0  0  0  0  0  0  0  0
  -15.1800  -30.0910   -1.4216 N   0  0  0  0  0  0  0  0  0  0  0  0
  -10.5477  -27.0071    1.3426 N   0  0  0  0  0  0  0  0  0  0  0  0
   -9.9579  -27.5580    0.2452 C   0  0  0  0  0  0  0  0  0  0  0  0
   -9.6335  -26.8231   -0.6794 O   0  0  0  0  0  0  0  0  0  0  0  0
   -9.9904  -29.0885    0.0000 C   0  0  2  0  0  0  0  0  0  0  0  0
   -9.2404  -30.3875    0.0000 C   0  0  0  0  0  2  0  0  0  0  0  0
   -8.4904  -31.6865    0.0000 C   0  0  0  0  0  0  0  0  0  0  0  0
   -8.9621  -33.1234   -0.0914 C   0  0  0  0  0  0  0  0  0  0  0  0
   -7.8287  -34.0297    0.0135 N   0  0  0  0  0  0  0  0  0  0  0  0
   -7.9573  -35.4492   -0.0433 C   0  0  0  0  0  0  0  0  0  0  0  0
   -6.9020  -36.1743    0.0750 N   0  0  0  0  0  0  0  0  0  0  0  0
   -9.2224  -36.0724   -0.2289 N   0  0  0  0  0  0  0  0  0  0  0  0
  -11.3293  -29.7513    0.3270 N   0  0  0  0  0  0  0  0  0  0  0  0
  -11.9816  -30.6894   -0.5338 C   0  0  0  0  0  0  0  0  0  0  0  0
  -11.8282  -30.5863   -1.7420 O   0  0  0  0  0  0  0  0  0  0  0  0
  -12.5885  -32.0885    0.0000 C   0  0  1  0  0  0  0  0  0  0  0  0
  -11.6535  -33.1036   -0.4562 N   0  0  0  0  0  0  0  0  0  0  0  0
  -13.8875  -32.8385    0.0000 C   0  0  0  0  0  0  0  0  0  0  0  0
  -15.1865  -33.5885    0.0000 C   0  0  0  0  0  0  0  0  0  0  0  0
  -15.8413  -33.6111    1.3993 C   0  0  0  0  0  0  0  0  0  0  0  0
  -17.1214  -34.2930    1.3677 N   0  0  0  0  0  0  0  0  0  0  0  0
  -17.2834  -35.6971    1.1486 C   0  0  0  0  0  0  0  0  0  0  0  0
  -18.4653  -36.1911    1.0378 N   0  0  0  0  0  0  0  0  0  0  0  0
  -16.1673  -36.5735    1.0820 N   0  0  0  0  0  0  0  0  0  0  0  0
   -5.4895   -5.0132    1.5441 C   0  0  0  0  0  0  0  0  0  0  0  0
   -6.0043   -5.2478    2.6265 O   0  0  0  0  0  0  0  0  0  0  0  0
   -6.1974   -4.2948    0.6417 O   0  0  0  0  0  0  0  0  0  0  0  0
    0.0603    0.2831    0.6934 H   0  0  0  0  0  0  0  0  0  0  0  0
   -2.7572    0.2790   -1.4637 H   0  0  0  0  0  0  0  0  0  0  0  0
   -3.4099   -1.2681   -1.0267 H   0  0  0  0  0  0  0  0  0  0  0  0
   -0.5193   -1.7662    1.4691 H   0  0  0  0  0  0  0  0  0  0  0  0
   -2.2741   -3.3410    1.9324 H   0  0  0  0  0  0  0  0  0  0  0  0
   -1.1063   -3.9217    0.7014 H   0  0  0  0  0  0  0  0  0  0  0  0
   -2.6987   -3.3417   -1.1109 H   0  0  0  0  0  0  0  0  0  0  0  0
   -3.9605   -2.9227    0.1491 H   0  0  0  0  0  0  0  0  0  0  0  0
   -2.4872   -5.5909   -0.2168 H   0  0  0  0  0  0  0  0  0  0  0  0
   -4.1055   -5.2941   -0.8828 H   0  0  0  0  0  0  0  0  0  0  0  0
   -3.4627   -5.1718    2.1304 H   0  0  0  0  0  0  0  0  0  0  0  0
   -2.9920   -7.3325    1.3038 H   0  0  0  0  0  0  0  0  0  0  0  0
   -3.8516   -9.5259    2.1703 H   0  0  0  0  0  0  0  0  0  0  0  0
   -4.3850   -9.6561   -0.8688 H   0  0  0  0  0  0  0  0  0  0  0  0
   -2.9650   -8.8887   -0.2352 H   0  0  0  0  0  0  0  0  0  0  0  0
   -2.2197  -10.5837    0.7448 H   0  0  0  0  0  0  0  0  0  0  0  0
   -3.7124  -11.5269    0.5647 H   0  0  0  0  0  0  0  0  0  0  0  0
   -1.1780  -12.1371   -0.4241 H   0  0  0  0  0  0  0  0  0  0  0  0
   -2.0684  -12.6986    1.0404 H   0  0  0  0  0  0  0  0  0  0  0  0
   -3.6890  -12.9998   -1.3879 H   0  0  0  0  0  0  0  0  0  0  0  0
   -2.6960  -16.3814   -1.9395 H   0  0  0  0  0  0  0  0  0  0  0  0
   -0.9437  -14.5816    0.6122 H   0  0  0  0  0  0  0  0  0  0  0  0
   -1.1154  -16.1434   -0.1870 H   0  0  0  0  0  0  0  0  0  0  0  0
   -6.1779  -10.1663    2.4488 H   0  0  0  0  0  0  0  0  0  0  0  0
   -7.7951  -11.8729    2.0940 H   0  0  0  0  0  0  0  0  0  0  0  0
   -8.5764  -11.0506   -0.0922 H   0  0  0  0  0  0  0  0  0  0  0  0
   -7.8270  -12.4170   -0.9527 H   0  0  0  0  0  0  0  0  0  0  0  0
   -9.9374  -12.3619    0.9353 H   0  0  0  0  0  0  0  0  0  0  0  0
   -9.9479  -12.3889   -0.9510 H   0  0  0  0  0  0  0  0  0  0  0  0
  -10.9696  -14.3018    0.9014 H   0  0  0  0  0  0  0  0  0  0  0  0
  -10.9709  -14.3140   -0.8929 H   0  0  0  0  0  0  0  0  0  0  0  0
  -12.0009  -11.7631   -0.0089 H   0  0  0  0  0  0  0  0  0  0  0  0
  -14.3330  -11.4935   -0.0074 H   0  0  0  0  0  0  0  0  0  0  0  0
  -14.6514  -15.0781    0.0192 H   0  0  0  0  0  0  0  0  0  0  0  0
  -12.9147  -15.3997    0.0180 H   0  0  0  0  0  0  0  0  0  0  0  0
   -6.1087  -13.6147    2.2517 H   0  0  0  0  0  0  0  0  0  0  0  0
   -5.6978  -15.9526    2.0717 H   0  0  0  0  0  0  0  0  0  0  0  0
   -5.6242  -16.1549   -1.0255 H   0  0  0  0  0  0  0  0  0  0  0  0
   -4.6498  -15.9473    0.1194 H   0  0  0  0  0  0  0  0  0  0  0  0
   -4.2305  -19.6987   -0.9699 H   0  0  0  0  0  0  0  0  0  0  0  0
   -2.9594  -18.9824    0.1114 H   0  0  0  0  0  0  0  0  0  0  0  0
   -5.2325  -19.6827    1.7269 H   0  0  0  0  0  0  0  0  0  0  0  0
   -4.0875  -22.9750    2.5093 H   0  0  0  0  0  0  0  0  0  0  0  0
   -2.6198  -21.3844   -0.3460 H   0  0  0  0  0  0  0  0  0  0  0  0
   -2.6341  -22.8542    0.6318 H   0  0  0  0  0  0  0  0  0  0  0  0
   -7.4558  -17.4255    2.0995 H   0  0  0  0  0  0  0  0  0  0  0  0
   -9.1889  -17.9432    1.0026 H   0  0  0  0  0  0  0  0  0  0  0  0
  -10.7370  -18.3866   -0.7153 H   0  0  0  0  0  0  0  0  0  0  0  0
  -10.3315  -19.9311   -0.6889 H   0  0  0  0  0  0  0  0  0  0  0  0
  -10.8701  -19.3405    2.1300 H   0  0  0  0  0  0  0  0  0  0  0  0
  -11.6567  -17.9975    1.2878 H   0  0  0  0  0  0  0  0  0  0  0  0
  -12.8283  -19.7054   -0.2162 H   0  0  0  0  0  0  0  0  0  0  0  0
  -11.9498  -21.0186    0.6762 H   0  0  0  0  0  0  0  0  0  0  0  0
  -13.4058  -19.4262    2.5732 H   0  0  0  0  0  0  0  0  0  0  0  0
  -15.4814  -20.2956    3.3026 H   0  0  0  0  0  0  0  0  0  0  0  0
  -15.4471  -22.5029    0.4583 H   0  0  0  0  0  0  0  0  0  0  0  0
  -13.9201  -21.9098   -0.1961 H   0  0  0  0  0  0  0  0  0  0  0  0
   -7.8124  -19.9439   -0.9053 H   0  0  0  0  0  0  0  0  0  0  0  0
   -7.6877  -22.7668    1.4004 H   0  0  0  0  0  0  0  0  0  0  0  0
   -6.9020  -21.7793   -0.9290 H   0  0  0  0  0  0  0  0  0  0  0  0
   -8.1736  -22.8277   -1.6101 H   0  0  0  0  0  0  0  0  0  0  0  0
   -5.8328  -23.6910   -1.6198 H   0  0  0  0  0  0  0  0  0  0  0  0
   -5.6549  -23.3732    0.1381 H   0  0  0  0  0  0  0  0  0  0  0  0
   -7.1590  -25.2306    0.6760 H   0  0  0  0  0  0  0  0  0  0  0  0
   -7.4082  -25.5725   -1.0896 H   0  0  0  0  0  0  0  0  0  0  0  0
   -4.5885  -25.4951   -0.6031 H   0  0  0  0  0  0  0  0  0  0  0  0
   -4.1879  -28.9646    0.0560 H   0  0  0  0  0  0  0  0  0  0  0  0
   -7.4306  -27.5721    0.5952 H   0  0  0  0  0  0  0  0  0  0  0  0
   -6.4889  -29.0640    0.6425 H   0  0  0  0  0  0  0  0  0  0  0  0
  -10.3012  -23.1764   -0.2113 H   0  0  0  0  0  0  0  0  0  0  0  0
  -11.2156  -25.4173    2.4703 H   0  0  0  0  0  0  0  0  0  0  0  0
  -13.2464  -24.8255    1.3115 H   0  0  0  0  0  0  0  0  0  0  0  0
  -13.0234  -26.3982    2.0825 H   0  0  0  0  0  0  0  0  0  0  0  0
  -13.3198  -25.9601   -0.8481 H   0  0  0  0  0  0  0  0  0  0  0  0
  -12.5336  -27.4170   -0.2720 H   0  0  0  0  0  0  0  0  0  0  0  0
  -14.1646  -28.2013    0.6664 H   0  0  0  0  0  0  0  0  0  0  0  0
  -14.5083  -27.5898   -1.0955 H   0  0  0  0  0  0  0  0  0  0  0  0
  -16.7282  -27.7258    0.4682 H   0  0  0  0  0  0  0  0  0  0  0  0
  -18.0798  -29.5985    0.0411 H   0  0  0  0  0  0  0  0  0  0  0  0
  -15.3890  -30.9821   -1.8941 H   0  0  0  0  0  0  0  0  0  0  0  0
  -14.2549  -29.6733   -1.5684 H   0  0  0  0  0  0  0  0  0  0  0  0
  -10.8650  -27.6467    2.0871 H   0  0  0  0  0  0  0  0  0  0  0  0
   -9.9732  -29.0294   -1.1103 H   0  0  0  0  0  0  0  0  0  0  0  0
   -7.7463  -31.5578   -0.8158 H   0  0  0  0  0  0  0  0  0  0  0  0
   -7.9106  -31.6270    0.9467 H   0  0  0  0  0  0  0  0  0  0  0  0
   -9.4168  -33.2760   -1.0895 H   0  0  0  0  0  0  0  0  0  0  0  0
   -9.6354  -33.3266    0.7657 H   0  0  0  0  0  0  0  0  0  0  0  0
   -6.8793  -33.6430    0.1390 H   0  0  0  0  0  0  0  0  0  0  0  0
   -6.9454  -37.2034    0.0399 H   0  0  0  0  0  0  0  0  0  0  0  0
  -10.0812  -35.5208   -0.3379 H   0  0  0  0  0  0  0  0  0  0  0  0
   -9.2986  -37.0994   -0.2653 H   0  0  0  0  0  0  0  0  0  0  0  0
  -11.4846  -29.8819    1.3382 H   0  0  0  0  0  0  0  0  0  0  0  0
  -12.4082  -31.9808    1.0961 H   0  0  0  0  0  0  0  0  0  0  0  0
  -11.7618  -34.0040    0.0712 H   0  0  0  0  0  0  0  0  0  0  0  0
  -11.7519  -33.2817   -1.4842 H   0  0  0  0  0  0  0  0  0  0  0  0
  -14.3938  -31.8985    0.3206 H   0  0  0  0  0  0  0  0  0  0  0  0
  -13.8847  -32.8609   -1.1180 H   0  0  0  0  0  0  0  0  0  0  0  0
  -14.9883  -34.6291   -0.3322 H   0  0  0  0  0  0  0  0  0  0  0  0
  -15.9288  -33.1444   -0.7121 H   0  0  0  0  0  0  0  0  0  0  0  0
  -16.0246  -32.5586    1.7115 H   0  0  0  0  0  0  0  0  0  0  0  0
  -15.1756  -34.0757    2.1579 H   0  0  0  0  0  0  0  0  0  0  0  0
  -17.9661  -33.7220    1.5272 H   0  0  0  0  0  0  0  0  0  0  0  0
  -19.3074  -35.5983    1.0897 H   0  0  0  0  0  0  0  0  0  0  0  0
  -16.3136  -37.5820    0.9286 H   0  0  0  0  0  0  0  0  0  0  0  0
  -15.2058  -36.2409    1.2300 H   0  0  0  0  0  0  0  0  0  0  0  0
   -5.8916   -4.0890   -0.2497 H   0  0  0  0  0  0  0  0  0  0  0  0
  1  2  2  0  0  0  0
  1101  1  0  0  0  0
  2  3  1  0  0  0  0
  2  4  1  0  0  0  0
  3102  1  0  0  0  0
  3103  1  0  0  0  0
  4  5  1  0  0  0  0
  4104  1  0  0  0  0
  5  6  1  0  0  0  0
  5105  1  0  0  0  0
  5106  1  0  0  0  0
  6  7  1  0  0  0  0
  6107  1  0  0  0  0
  6108  1  0  0  0  0
  7109  1  0  0  0  0
  7110  1  0  0  0  0
  8  7  1  0  0  0  0
  8  9  1  0  0  0  0
  8 98  1  0  0  0  0
  8111  1  1  0  0  0
  9 10  1  0  0  0  0
  9112  1  0  0  0  0
 10 11  2  0  0  0  0
 10 12  1  0  0  0  0
 12 13  1  0  0  0  0
 12 20  1  0  0  0  0
 12113  1  1  0  0  0
 13 14  1  0  0  0  0
 13114  1  0  0  0  0
 13115  1  0  0  0  0
 14 15  1  0  0  0  0
 14116  1  0  0  0  0
 14117  1  0  0  0  0
 15 16  1  0  0  0  0
 15118  1  0  0  0  0
 15119  1  0  0  0  0
 16 17  1  0  0  0  0
 16120  1  0  0  0  0
 17 18  2  0  0  0  0
 17 19  1  0  0  0  0
 18121  1  0  0  0  0
 19122  1  0  0  0  0
 19123  1  0  0  0  0
 20 21  1  0  0  0  0
 20124  1  0  0  0  0
 21 22  2  0  0  0  0
 21 23  1  0  0  0  0
 23 24  1  0  0  0  0
 23 31  1  0  0  0  0
 23125  1  6  0  0  0
 24 25  1  0  0  0  0
 24126  1  0  0  0  0
 24127  1  0  0  0  0
 25 26  1  0  0  0  0
 25128  1  0  0  0  0
 25129  1  0  0  0  0
 26 27  1  0  0  0  0
 26130  1  0  0  0  0
 26131  1  0  0  0  0
 27 28  1  0  0  0  0
 27132  1  0  0  0  0
 28 29  2  0  0  0  0
 28 30  1  0  0  0  0
 29133  1  0  0  0  0
 30134  1  0  0  0  0
 30135  1  0  0  0  0
 31 32  1  0  0  0  0
 31136  1  0  0  0  0
 32 33  2  0  0  0  0
 32 34  1  0  0  0  0
 34 35  1  0  0  0  0
 34 42  1  0  0  0  0
 34137  1  1  0  0  0
 35 36  1  0  0  0  0
 35138  1  0  0  0  0
 35139  1  0  0  0  0
 36 37  1  0  0  0  0
 37 38  1  0  0  0  0
 37140  1  0  0  0  0
 37141  1  0  0  0  0
 38 39  1  0  0  0  0
 38142  1  0  0  0  0
 39 40  2  0  0  0  0
 39 41  1  0  0  0  0
 40143  1  0  0  0  0
 41144  1  0  0  0  0
 41145  1  0  0  0  0
 42 43  1  0  0  0  0
 42146  1  0  0  0  0
 43 44  2  0  0  0  0
 43 45  1  0  0  0  0
 45 46  1  0  0  0  0
 45 53  1  0  0  0  0
 45147  1  6  0  0  0
 46 47  1  0  0  0  0
 46148  1  0  0  0  0
 46149  1  0  0  0  0
 47 48  1  0  0  0  0
 47150  1  0  0  0  0
 47151  1  0  0  0  0
 48 49  1  0  0  0  0
 48152  1  0  0  0  0
 48153  1  0  0  0  0
 49 50  1  0  0  0  0
 49154  1  0  0  0  0
 50 51  2  0  0  0  0
 50 52  1  0  0  0  0
 51155  1  0  0  0  0
 52156  1  0  0  0  0
 52157  1  0  0  0  0
 53 54  1  0  0  0  0
 53158  1  0  0  0  0
 54 55  2  0  0  0  0
 54 56  1  0  0  0  0
 56 57  1  0  0  0  0
 56 64  1  0  0  0  0
 56159  1  1  0  0  0
 57 58  1  0  0  0  0
 57160  1  0  0  0  0
 57161  1  0  0  0  0
 58 59  1  0  0  0  0
 58162  1  0  0  0  0
 58163  1  0  0  0  0
 59 60  1  0  0  0  0
 59164  1  0  0  0  0
 59165  1  0  0  0  0
 60 61  1  0  0  0  0
 60166  1  0  0  0  0
 61 62  2  0  0  0  0
 61 63  1  0  0  0  0
 62167  1  0  0  0  0
 63168  1  0  0  0  0
 63169  1  0  0  0  0
 64 65  1  0  0  0  0
 64170  1  0  0  0  0
 65 66  2  0  0  0  0
 65 67  1  0  0  0  0
 67 68  1  0  0  0  0
 67 75  1  0  0  0  0
 67171  1  6  0  0  0
 68 69  1  0  0  0  0
 68172  1  0  0  0  0
 68173  1  0  0  0  0
 69 70  1  0  0  0  0
 69174  1  0  0  0  0
 69175  1  0  0  0  0
 70 71  1  0  0  0  0
 70176  1  0  0  0  0
 70177  1  0  0  0  0
 71 72  1  0  0  0  0
 71178  1  0  0  0  0
 72 73  2  0  0  0  0
 72 74  1  0  0  0  0
 73179  1  0  0  0  0
 74180  1  0  0  0  0
 74181  1  0  0  0  0
 75 76  1  0  0  0  0
 75182  1  0  0  0  0
 76 77  2  0  0  0  0
 76 78  1  0  0  0  0
 78 79  1  0  0  0  0
 78 86  1  0  0  0  0
 78183  1  1  0  0  0
 79 80  1  0  0  0  0
 80 81  1  0  0  0  0
 80184  1  0  0  0  0
 80185  1  0  0  0  0
 81 82  1  0  0  0  0
 81186  1  0  0  0  0
 81187  1  0  0  0  0
 82 83  1  0  0  0  0
 82188  1  0  0  0  0
 83 84  2  0  0  0  0
 83 85  1  0  0  0  0
 84189  1  0  0  0  0
 85190  1  0  0  0  0
 85191  1  0  0  0  0
 86 87  1  0  0  0  0
 86192  1  0  0  0  0
 87 88  2  0  0  0  0
 87 89  1  0  0  0  0
 89 90  1  0  0  0  0
 89 91  1  0  0  0  0
 89193  1  6  0  0  0
 90194  1  0  0  0  0
 90195  1  0  0  0  0
 91 92  1  0  0  0  0
 91196  1  0  0  0  0
 91197  1  0  0  0  0
 92 93  1  0  0  0  0
 92198  1  0  0  0  0
 92199  1  0  0  0  0
 93 94  1  0  0  0  0
 93200  1  0  0  0  0
 93201  1  0  0  0  0
 94 95  1  0  0  0  0
 94202  1  0  0  0  0
 95 96  2  0  0  0  0
 95 97  1  0  0  0  0
 96203  1  0  0  0  0
 97204  1  0  0  0  0
 97205  1  0  0  0  0
 98 99  2  0  0  0  0
 98100  1  0  0  0  0
100206  1  0  0  0  0
M  END
>  <IDENTIFIER>
CNP0569096.1

>  <Energy>
6178.64

$$$$
