
 OpenBabel09092503083D

 60 62  0  0  0  0  0  0  0  0999 V2000
    7.4486   -1.0765    0.4377 C   0  0  0  0  0  0  0  0  0  0  0  0
    6.0821   -1.0918    0.6223 O   0  0  0  0  0  0  0  0  0  0  0  0
    5.1992   -0.4280   -0.1680 C   0  0  0  0  0  0  0  0  0  0  0  0
    5.6034    0.1941   -1.1349 O   0  0  0  0  0  0  0  0  0  0  0  0
    3.7579   -0.5007    0.2027 C   0  0  0  0  0  0  0  0  0  0  0  0
    2.6448    0.0958   -0.3274 C   0  0  0  0  0  0  0  0  0  0  0  0
    1.3613   -0.2637    0.3814 C   0  0  0  0  0  0  0  0  0  0  0  0
    0.2113    0.4437    0.3430 C   0  0  0  0  0  0  0  0  0  0  0  0
   -1.0484    0.0534    1.1338 C   0  0  1  0  0  0  0  0  0  0  0  0
   -0.6454   -0.0374    2.6326 C   0  0  0  0  0  0  0  0  0  0  0  0
   -2.1660    1.1532    0.9843 C   0  0  1  0  0  0  0  0  0  0  0  0
   -1.7768    2.5114    1.5452 C   0  0  0  0  0  0  0  0  0  0  0  0
   -2.3788    2.9594    2.5122 O   0  0  0  0  0  0  0  0  0  0  0  0
   -0.7492    3.2059    0.9943 O   0  0  0  0  0  0  0  0  0  0  0  0
   -0.2428    4.3777    1.5122 C   0  0  0  0  0  0  0  0  0  0  0  0
   -2.7376    1.2879   -0.4569 C   0  0  0  0  0  0  0  0  0  0  0  0
   -2.2832    0.1794   -1.4221 C   0  0  0  0  0  0  0  0  0  0  0  0
   -2.2726   -1.2749   -0.8569 C   0  0  1  0  0  0  0  0  0  0  0  0
   -1.4184   -2.1102   -1.8539 C   0  0  0  0  0  0  0  0  0  0  0  0
   -1.6134   -1.3439    0.6151 C   0  0  2  0  0  0  0  0  0  0  0  0
   -2.6583   -2.0482    1.5799 C   0  0  2  0  0  0  0  0  0  0  0  0
   -2.9911   -3.4066    0.9639 C   0  0  0  0  0  0  0  0  0  0  0  0
   -3.5662   -3.3275   -0.2567 C   0  0  0  0  0  0  0  0  0  0  0  0
   -3.7276   -1.8992   -0.7797 C   0  0  2  0  0  0  0  0  0  0  0  0
   -4.3993   -1.8433   -2.0138 O   0  0  0  0  0  0  0  0  0  0  0  0
   -4.4577   -1.1941    0.3479 C   0  0  0  0  0  0  0  0  0  0  0  0
   -5.5199   -0.6077    0.2102 O   0  0  0  0  0  0  0  0  0  0  0  0
   -3.8526   -1.3209    1.5658 O   0  0  0  0  0  0  0  0  0  0  0  0
    2.6399    1.0421   -1.5074 C   0  0  0  0  0  0  0  0  0  0  0  0
    1.5778    1.3738   -2.0130 O   0  0  0  0  0  0  0  0  0  0  0  0
    3.7871    1.5081   -2.0539 O   0  0  0  0  0  0  0  0  0  0  0  0
    3.8450    2.3403   -3.1533 C   0  0  0  0  0  0  0  0  0  0  0  0
    7.9282   -1.6983    1.2213 H   0  0  0  0  0  0  0  0  0  0  0  0
    7.8332   -0.0373    0.5225 H   0  0  0  0  0  0  0  0  0  0  0  0
    7.7059   -1.4927   -0.5593 H   0  0  0  0  0  0  0  0  0  0  0  0
    3.6077   -1.1462    1.0657 H   0  0  0  0  0  0  0  0  0  0  0  0
    1.3810   -1.1386    1.0230 H   0  0  0  0  0  0  0  0  0  0  0  0
    0.1716    1.3540   -0.2285 H   0  0  0  0  0  0  0  0  0  0  0  0
   -0.1701    0.9077    2.9730 H   0  0  0  0  0  0  0  0  0  0  0  0
    0.0711   -0.8635    2.8182 H   0  0  0  0  0  0  0  0  0  0  0  0
   -1.5295   -0.2030    3.2815 H   0  0  0  0  0  0  0  0  0  0  0  0
   -3.0069    0.8147    1.6159 H   0  0  0  0  0  0  0  0  0  0  0  0
    0.5925    4.7261    0.8703 H   0  0  0  0  0  0  0  0  0  0  0  0
    0.1482    4.2004    2.5373 H   0  0  0  0  0  0  0  0  0  0  0  0
   -1.0300    5.1603    1.5382 H   0  0  0  0  0  0  0  0  0  0  0  0
   -2.4160    2.2437   -0.9278 H   0  0  0  0  0  0  0  0  0  0  0  0
   -3.8443    1.3466   -0.3937 H   0  0  0  0  0  0  0  0  0  0  0  0
   -1.2434    0.4359   -1.7007 H   0  0  0  0  0  0  0  0  0  0  0  0
   -2.8438    0.2467   -2.3794 H   0  0  0  0  0  0  0  0  0  0  0  0
   -0.3853   -1.7058   -1.9212 H   0  0  0  0  0  0  0  0  0  0  0  0
   -1.8673   -2.0902   -2.8704 H   0  0  0  0  0  0  0  0  0  0  0  0
   -1.3269   -3.1700   -1.5379 H   0  0  0  0  0  0  0  0  0  0  0  0
   -0.7541   -2.0516    0.6108 H   0  0  0  0  0  0  0  0  0  0  0  0
   -2.2717   -2.1877    2.6086 H   0  0  0  0  0  0  0  0  0  0  0  0
   -2.8215   -4.3504    1.4714 H   0  0  0  0  0  0  0  0  0  0  0  0
   -3.8898   -4.2056   -0.8058 H   0  0  0  0  0  0  0  0  0  0  0  0
   -5.2761   -2.2949   -1.8933 H   0  0  0  0  0  0  0  0  0  0  0  0
    4.9071    2.5541   -3.3921 H   0  0  0  0  0  0  0  0  0  0  0  0
    3.3257    3.2981   -2.9367 H   0  0  0  0  0  0  0  0  0  0  0  0
    3.3749    1.8476   -4.0314 H   0  0  0  0  0  0  0  0  0  0  0  0
  1  2  1  0  0  0  0
  1 33  1  0  0  0  0
  1 34  1  0  0  0  0
  1 35  1  0  0  0  0
  2  3  1  0  0  0  0
  3  4  2  0  0  0  0
  3  5  1  0  0  0  0
  5  6  2  0  0  0  0
  5 36  1  0  0  0  0
  6  7  1  0  0  0  0
  6 29  1  0  0  0  0
  7  8  2  0  0  0  0
  7 37  1  0  0  0  0
  8 38  1  0  0  0  0
  9  8  1  6  0  0  0
  9 10  1  0  0  0  0
  9 11  1  0  0  0  0
 10 39  1  0  0  0  0
 10 40  1  0  0  0  0
 10 41  1  0  0  0  0
 11 12  1  0  0  0  0
 11 16  1  0  0  0  0
 11 42  1  1  0  0  0
 12 13  2  0  0  0  0
 12 14  1  0  0  0  0
 14 15  1  0  0  0  0
 15 43  1  0  0  0  0
 15 44  1  0  0  0  0
 15 45  1  0  0  0  0
 16 17  1  0  0  0  0
 16 46  1  0  0  0  0
 16 47  1  0  0  0  0
 17 18  1  0  0  0  0
 17 48  1  0  0  0  0
 17 49  1  0  0  0  0
 18 19  1  6  0  0  0
 18 20  1  0  0  0  0
 19 50  1  0  0  0  0
 19 51  1  0  0  0  0
 19 52  1  0  0  0  0
 20 21  1  0  0  0  0
 20  9  1  0  0  0  0
 20 53  1  6  0  0  0
 21 22  1  0  0  0  0
 21 28  1  0  0  0  0
 21 54  1  1  0  0  0
 22 23  2  0  0  0  0
 22 55  1  0  0  0  0
 23 24  1  0  0  0  0
 23 56  1  0  0  0  0
 24 25  1  6  0  0  0
 24 26  1  0  0  0  0
 24 18  1  0  0  0  0
 25 57  1  0  0  0  0
 26 27  2  0  0  0  0
 26 28  1  0  0  0  0
 29 30  2  0  0  0  0
 29 31  1  0  0  0  0
 31 32  1  0  0  0  0
 32 58  1  0  0  0  0
 32 59  1  0  0  0  0
 32 60  1  0  0  0  0
M  END
>  <IDENTIFIER>
CNP0315695.1

>  <Energy>
701.021

$$$$
