
 OpenBabel09042515383D

108113  0  0  0  0  0  0  0  0999 V2000
    4.6293    3.1313   -0.0959 C   0  0  0  0  0  0  0  0  0  0  0  0
    4.2308    1.6454   -0.2639 C   0  0  2  0  0  0  0  0  0  0  0  0
    5.0022    1.0191   -1.4692 C   0  0  0  0  0  0  0  0  0  0  0  0
    6.5490    1.0986   -1.3588 C   0  0  0  0  0  0  0  0  0  0  0  0
    7.1885    0.5371   -0.0473 C   0  0  2  0  0  0  0  0  0  0  0  0
    8.5570    0.8712   -0.0050 O   0  0  0  0  0  0  0  0  0  0  0  0
    6.9917   -0.9916    0.2360 C   0  0  0  0  0  0  0  0  0  0  0  0
    7.7067   -1.8566   -0.8278 C   0  0  0  0  0  0  0  0  0  0  0  0
    7.5629   -1.3211    1.6314 C   0  0  0  0  0  0  0  0  0  0  0  0
    5.6159   -1.2861    0.2484 O   0  0  0  0  0  0  0  0  0  0  0  0
    2.6611    1.5496   -0.2664 C   0  0  1  0  0  0  0  0  0  0  0  0
    1.8342    2.4055   -1.2815 C   0  0  1  0  0  0  0  0  0  0  0  0
    2.4374    2.5888   -2.5390 O   0  0  0  0  0  0  0  0  0  0  0  0
    0.4471    1.7103   -1.4038 C   0  0  0  0  0  0  0  0  0  0  0  0
    0.3499    0.7905   -0.1672 C   0  0  1  0  0  0  0  0  0  0  0  0
   -0.0596    1.6837    1.0689 C   0  0  0  0  0  0  0  0  0  0  0  0
   -0.6825   -0.3966   -0.2915 C   0  0  2  0  0  0  0  0  0  0  0  0
   -2.1795    0.0507   -0.1663 C   0  0  1  0  0  0  0  0  0  0  0  0
   -2.4796    1.0946   -1.0931 O   0  0  0  0  0  0  0  0  0  0  0  0
   -3.4714    1.9950   -0.5942 C   0  0  2  0  0  0  0  0  0  0  0  0
   -4.7601    1.5900   -1.0214 O   0  0  0  0  0  0  0  0  0  0  0  0
   -5.7985    2.2828   -0.3097 C   0  0  2  0  0  0  0  0  0  0  0  0
   -7.0787    2.2015   -1.1662 C   0  0  0  0  0  0  0  0  0  0  0  0
   -8.1691    2.7724   -0.4945 O   0  0  0  0  0  0  0  0  0  0  0  0
   -5.4390    3.7734    0.0538 C   0  0  1  0  0  0  0  0  0  0  0  0
   -4.8061    3.8302    1.3085 O   0  0  0  0  0  0  0  0  0  0  0  0
   -4.4742    4.3350   -1.0101 C   0  0  2  0  0  0  0  0  0  0  0  0
   -5.1397    4.4277   -2.2501 O   0  0  0  0  0  0  0  0  0  0  0  0
   -3.1891    3.4398   -1.0986 C   0  0  1  0  0  0  0  0  0  0  0  0
   -2.1197    4.0039   -0.3792 O   0  0  0  0  0  0  0  0  0  0  0  0
   -3.1218   -1.1407   -0.3811 C   0  0  0  0  0  0  0  0  0  0  0  0
   -2.9847   -2.1421    0.7962 C   0  0  1  0  0  0  0  0  0  0  0  0
   -3.9148   -3.4163    0.7025 C   0  0  0  0  0  0  0  0  0  0  0  0
   -3.5900   -4.2864   -0.5432 C   0  0  0  0  0  0  0  0  0  0  0  0
   -5.4001   -2.9922    0.5944 C   0  0  0  0  0  0  0  0  0  0  0  0
   -3.7361   -4.2423    2.0281 C   0  0  1  0  0  0  0  0  0  0  0  0
   -4.5603   -5.3848    2.0461 O   0  0  0  0  0  0  0  0  0  0  0  0
   -2.2638   -4.6248    2.3174 C   0  0  0  0  0  0  0  0  0  0  0  0
   -1.3733   -3.3814    2.4004 C   0  0  0  0  0  0  0  0  0  0  0  0
   -1.5154   -2.5563    1.1050 C   0  0  1  0  0  0  0  0  0  0  0  0
   -0.6237   -2.9076   -0.0182 C   0  0  0  0  0  0  0  0  0  0  0  0
   -0.3801   -1.5406    0.7749 C   0  0  1  0  0  0  0  0  0  0  0  0
    1.1040   -1.7393    1.3006 C   0  0  0  0  0  0  0  0  0  0  0  0
    2.0101   -0.4957    1.2386 C   0  0  0  0  0  0  0  0  0  0  0  0
    1.8346    0.2319   -0.1127 C   0  0  2  0  0  0  0  0  0  0  0  0
    2.1842   -0.7708   -1.2683 C   0  0  0  0  0  0  0  0  0  0  0  0
    5.7132    3.2507    0.0928 H   0  0  0  0  0  0  0  0  0  0  0  0
    4.1157    3.5822    0.7790 H   0  0  0  0  0  0  0  0  0  0  0  0
    4.3603    3.7137   -1.0026 H   0  0  0  0  0  0  0  0  0  0  0  0
    4.5432    1.1074    0.6538 H   0  0  0  0  0  0  0  0  0  0  0  0
    4.7148    1.5228   -2.4126 H   0  0  0  0  0  0  0  0  0  0  0  0
    4.7547   -0.0376   -1.5959 H   0  0  0  0  0  0  0  0  0  0  0  0
    6.8437    2.1648   -1.4424 H   0  0  0  0  0  0  0  0  0  0  0  0
    6.9936    0.5966   -2.2440 H   0  0  0  0  0  0  0  0  0  0  0  0
    6.7251    1.0952    0.7909 H   0  0  0  0  0  0  0  0  0  0  0  0
    8.9658    0.6283   -0.8754 H   0  0  0  0  0  0  0  0  0  0  0  0
    8.7998   -1.6613   -0.8347 H   0  0  0  0  0  0  0  0  0  0  0  0
    7.2974   -1.6615   -1.8394 H   0  0  0  0  0  0  0  0  0  0  0  0
    7.5671   -2.9366   -0.6069 H   0  0  0  0  0  0  0  0  0  0  0  0
    8.6504   -1.1018    1.6845 H   0  0  0  0  0  0  0  0  0  0  0  0
    7.4126   -2.3960    1.8701 H   0  0  0  0  0  0  0  0  0  0  0  0
    7.0422   -0.7227    2.4105 H   0  0  0  0  0  0  0  0  0  0  0  0
    5.5032   -2.2705    0.3186 H   0  0  0  0  0  0  0  0  0  0  0  0
    2.4634    2.0290    0.7078 H   0  0  0  0  0  0  0  0  0  0  0  0
    1.7142    3.4126   -0.8251 H   0  0  0  0  0  0  0  0  0  0  0  0
    2.4956    1.7114   -2.9931 H   0  0  0  0  0  0  0  0  0  0  0  0
    0.4702    1.0450   -2.2914 H   0  0  0  0  0  0  0  0  0  0  0  0
   -0.3897    2.4113   -1.5918 H   0  0  0  0  0  0  0  0  0  0  0  0
   -1.0413    2.1519    0.9024 H   0  0  0  0  0  0  0  0  0  0  0  0
    0.5821    2.5585    1.2703 H   0  0  0  0  0  0  0  0  0  0  0  0
   -0.1587    1.0922    2.0006 H   0  0  0  0  0  0  0  0  0  0  0  0
   -0.5421   -0.7933   -1.3200 H   0  0  0  0  0  0  0  0  0  0  0  0
   -2.3188    0.3781    0.8874 H   0  0  0  0  0  0  0  0  0  0  0  0
   -3.4679    2.0347    0.5180 H   0  0  0  0  0  0  0  0  0  0  0  0
   -6.0449    1.7256    0.6219 H   0  0  0  0  0  0  0  0  0  0  0  0
   -7.3044    1.1374   -1.4100 H   0  0  0  0  0  0  0  0  0  0  0  0
   -6.9604    2.7157   -2.1381 H   0  0  0  0  0  0  0  0  0  0  0  0
   -8.4735    2.1060    0.1751 H   0  0  0  0  0  0  0  0  0  0  0  0
   -6.3489    4.4124    0.1194 H   0  0  0  0  0  0  0  0  0  0  0  0
   -5.5015    3.6405    1.9917 H   0  0  0  0  0  0  0  0  0  0  0  0
   -4.1676    5.3746   -0.7596 H   0  0  0  0  0  0  0  0  0  0  0  0
   -4.9985    3.5938   -2.7663 H   0  0  0  0  0  0  0  0  0  0  0  0
   -2.8705    3.4267   -2.1638 H   0  0  0  0  0  0  0  0  0  0  0  0
   -2.4222    4.1591    0.5526 H   0  0  0  0  0  0  0  0  0  0  0  0
   -2.9236   -1.5900   -1.3747 H   0  0  0  0  0  0  0  0  0  0  0  0
   -4.1625   -0.7654   -0.3862 H   0  0  0  0  0  0  0  0  0  0  0  0
   -3.3144   -1.5755    1.6975 H   0  0  0  0  0  0  0  0  0  0  0  0
   -3.7256   -3.7102   -1.4809 H   0  0  0  0  0  0  0  0  0  0  0  0
   -4.2723   -5.1597   -0.6062 H   0  0  0  0  0  0  0  0  0  0  0  0
   -2.5582   -4.6822   -0.5301 H   0  0  0  0  0  0  0  0  0  0  0  0
   -5.6019   -2.4414   -0.3472 H   0  0  0  0  0  0  0  0  0  0  0  0
   -5.6900   -2.3496    1.4527 H   0  0  0  0  0  0  0  0  0  0  0  0
   -6.0646   -3.8828    0.5875 H   0  0  0  0  0  0  0  0  0  0  0  0
   -4.0596   -3.6014    2.8788 H   0  0  0  0  0  0  0  0  0  0  0  0
   -4.1267   -6.0909    1.4999 H   0  0  0  0  0  0  0  0  0  0  0  0
   -1.8771   -5.3012    1.5265 H   0  0  0  0  0  0  0  0  0  0  0  0
   -2.2051   -5.1728    3.2826 H   0  0  0  0  0  0  0  0  0  0  0  0
   -0.3351   -3.7185    2.5931 H   0  0  0  0  0  0  0  0  0  0  0  0
   -1.6971   -2.7517    3.2571 H   0  0  0  0  0  0  0  0  0  0  0  0
   -1.1704   -2.8915   -0.9800 H   0  0  0  0  0  0  0  0  0  0  0  0
   -0.0916   -3.8457    0.2556 H   0  0  0  0  0  0  0  0  0  0  0  0
    1.6461   -2.5084    0.7089 H   0  0  0  0  0  0  0  0  0  0  0  0
    1.1152   -2.1092    2.3450 H   0  0  0  0  0  0  0  0  0  0  0  0
    3.0658   -0.8046    1.3988 H   0  0  0  0  0  0  0  0  0  0  0  0
    1.7780    0.1829    2.0806 H   0  0  0  0  0  0  0  0  0  0  0  0
    3.1643   -1.2405   -1.0838 H   0  0  0  0  0  0  0  0  0  0  0  0
    2.1856   -0.3226   -2.2746 H   0  0  0  0  0  0  0  0  0  0  0  0
    1.4943   -1.6306   -1.3266 H   0  0  0  0  0  0  0  0  0  0  0  0
  1 47  1  0  0  0  0
  1 48  1  0  0  0  0
  1 49  1  0  0  0  0
  2  1  1  0  0  0  0
  2  3  1  0  0  0  0
  2 50  1  1  0  0  0
  3  4  1  0  0  0  0
  3 51  1  0  0  0  0
  3 52  1  0  0  0  0
  4  5  1  0  0  0  0
  4 53  1  0  0  0  0
  4 54  1  0  0  0  0
  5  6  1  0  0  0  0
  5  7  1  0  0  0  0
  5 55  1  1  0  0  0
  6 56  1  0  0  0  0
  7  8  1  0  0  0  0
  7  9  1  0  0  0  0
  7 10  1  0  0  0  0
  8 57  1  0  0  0  0
  8 58  1  0  0  0  0
  8 59  1  0  0  0  0
  9 60  1  0  0  0  0
  9 61  1  0  0  0  0
  9 62  1  0  0  0  0
 10 63  1  0  0  0  0
 11  2  1  0  0  0  0
 11 12  1  0  0  0  0
 11 64  1  1  0  0  0
 12 13  1  0  0  0  0
 12 14  1  0  0  0  0
 12 65  1  1  0  0  0
 13 66  1  0  0  0  0
 14 15  1  0  0  0  0
 14 67  1  0  0  0  0
 14 68  1  0  0  0  0
 15 16  1  1  0  0  0
 15 17  1  0  0  0  0
 16 69  1  0  0  0  0
 16 70  1  0  0  0  0
 16 71  1  0  0  0  0
 17 18  1  0  0  0  0
 17 72  1  6  0  0  0
 18 19  1  0  0  0  0
 18 31  1  0  0  0  0
 18 73  1  1  0  0  0
 20 19  1  0  0  0  0
 20 21  1  0  0  0  0
 20 74  1  1  0  0  0
 21 22  1  0  0  0  0
 22 23  1  0  0  0  0
 22 25  1  0  0  0  0
 22 75  1  1  0  0  0
 23 24  1  0  0  0  0
 23 76  1  0  0  0  0
 23 77  1  0  0  0  0
 24 78  1  0  0  0  0
 25 26  1  0  0  0  0
 25 27  1  0  0  0  0
 25 79  1  1  0  0  0
 26 80  1  0  0  0  0
 27 28  1  0  0  0  0
 27 29  1  0  0  0  0
 27 81  1  1  0  0  0
 28 82  1  0  0  0  0
 29 30  1  0  0  0  0
 29 20  1  0  0  0  0
 29 83  1  6  0  0  0
 30 84  1  0  0  0  0
 31 85  1  0  0  0  0
 31 86  1  0  0  0  0
 32 31  1  0  0  0  0
 32 33  1  0  0  0  0
 32 87  1  1  0  0  0
 33 34  1  0  0  0  0
 33 35  1  0  0  0  0
 33 36  1  0  0  0  0
 34 88  1  0  0  0  0
 34 89  1  0  0  0  0
 34 90  1  0  0  0  0
 35 91  1  0  0  0  0
 35 92  1  0  0  0  0
 35 93  1  0  0  0  0
 36 37  1  0  0  0  0
 36 38  1  0  0  0  0
 36 94  1  1  0  0  0
 37 95  1  0  0  0  0
 38 39  1  0  0  0  0
 38 96  1  0  0  0  0
 38 97  1  0  0  0  0
 39 98  1  0  0  0  0
 39 99  1  0  0  0  0
 40 39  1  1  0  0  0
 40 41  1  0  0  0  0
 40 32  1  0  0  0  0
 41100  1  0  0  0  0
 41101  1  0  0  0  0
 42 41  1  6  0  0  0
 42 43  1  0  0  0  0
 42 17  1  0  0  0  0
 42 40  1  0  0  0  0
 43 44  1  0  0  0  0
 43102  1  0  0  0  0
 43103  1  0  0  0  0
 44 45  1  0  0  0  0
 44104  1  0  0  0  0
 44105  1  0  0  0  0
 45 46  1  6  0  0  0
 45 11  1  0  0  0  0
 45 15  1  0  0  0  0
 46106  1  0  0  0  0
 46107  1  0  0  0  0
 46108  1  0  0  0  0
M  END
>  <IDENTIFIER>
CNP0112716.3

>  <Energy>
2636.9

$$$$
