
 OpenBabel09052520153D

 90 95  0  0  0  0  0  0  0  0999 V2000
   -8.6831   -2.3767   -2.7562 C   0  0  0  0  0  0  0  0  0  0  0  0
   -8.2942   -1.7572   -1.5868 O   0  0  0  0  0  0  0  0  0  0  0  0
   -7.0618   -1.8354   -1.0188 C   0  0  0  0  0  0  0  0  0  0  0  0
   -6.0218   -2.6061   -1.5768 C   0  0  0  0  0  0  0  0  0  0  0  0
   -4.7654   -2.6570   -0.9667 C   0  0  0  0  0  0  0  0  0  0  0  0
   -4.5087   -1.9349    0.2093 C   0  0  0  0  0  0  0  0  0  0  0  0
   -5.5517   -1.1776    0.7746 C   0  0  0  0  0  0  0  0  0  0  0  0
   -6.8238   -1.1226    0.1661 C   0  0  0  0  0  0  0  0  0  0  0  0
   -7.8152   -0.3697    0.7218 O   0  0  0  0  0  0  0  0  0  0  0  0
   -8.0538    0.9426    0.3356 C   0  0  0  0  0  0  0  0  0  0  0  0
   -6.8037    1.7304    0.5861 C   0  0  0  0  0  0  0  0  0  0  0  0
   -6.3266    1.8630    1.8968 C   0  0  0  0  0  0  0  0  0  0  0  0
   -5.0583    2.4022    2.1317 C   0  0  0  0  0  0  0  0  0  0  0  0
   -4.5564    2.4876    3.4340 C   0  0  0  0  0  0  0  0  0  0  0  0
   -3.2629    2.9555    3.6559 C   0  0  0  0  0  0  0  0  0  0  0  0
   -2.4310    3.2894    2.5768 C   0  0  0  0  0  0  0  0  0  0  0  0
   -1.1594    3.6792    2.8099 O   0  0  0  0  0  0  0  0  0  0  0  0
   -2.9140    3.1913    1.2509 C   0  0  0  0  0  0  0  0  0  0  0  0
   -4.2635    2.8158    1.0393 C   0  0  0  0  0  0  0  0  0  0  0  0
   -4.8121    2.8149   -0.2609 C   0  0  0  0  0  0  0  0  0  0  0  0
   -6.0690    2.2478   -0.4854 C   0  0  0  0  0  0  0  0  0  0  0  0
   -4.0352    3.4266   -1.3959 C   0  0  0  0  0  0  0  0  0  0  0  0
   -2.6104    2.9546   -1.2896 C   0  0  0  0  0  0  0  0  0  0  0  0
   -1.9795    3.4115    0.0553 C   0  0  2  0  0  0  0  0  0  0  0  0
   -0.7848    2.5624    0.1709 C   0  0  0  0  0  0  0  0  0  0  0  0
    0.0870    1.7337    0.2387 C   0  0  0  0  0  0  0  0  0  0  0  0
    1.0625    0.8005    0.2238 O   0  0  0  0  0  0  0  0  0  0  0  0
    0.8071   -0.1089   -0.8410 C   0  0  1  0  0  0  0  0  0  0  0  0
    1.9184   -0.0019   -1.9164 C   0  0  0  0  0  0  0  0  0  0  0  0
    3.3645   -0.3577   -1.5115 C   0  0  0  0  0  0  0  0  0  0  0  0
    3.9681    0.5834   -0.4547 C   0  0  0  0  0  0  0  0  0  0  0  0
    5.4790    0.3716   -0.2359 C   0  0  0  0  0  0  0  0  0  0  0  0
    5.8261   -1.0536    0.2235 C   0  0  0  0  0  0  0  0  0  0  0  0
    7.2969   -1.2346    0.6349 C   0  0  0  0  0  0  0  0  0  0  0  0
    8.3060   -0.9191   -0.4832 C   0  0  0  0  0  0  0  0  0  0  0  0
    9.7105   -1.2659   -0.0484 C   0  0  0  0  0  0  0  0  0  0  0  0
   10.6831   -0.2637    0.1185 C   0  0  0  0  0  0  0  0  0  0  0  0
   11.9789   -0.6000    0.5270 C   0  0  0  0  0  0  0  0  0  0  0  0
   12.3160   -1.9354    0.7640 C   0  0  0  0  0  0  0  0  0  0  0  0
   11.3588   -2.9379    0.5935 C   0  0  0  0  0  0  0  0  0  0  0  0
   10.0622   -2.6069    0.1907 C   0  0  0  0  0  0  0  0  0  0  0  0
    0.6445   -1.5366   -0.2889 C   0  0  0  0  0  0  0  0  0  0  0  0
   -0.6066   -1.7162    0.5520 C   0  0  0  0  0  0  0  0  0  0  0  0
   -0.4893   -2.0669    1.7174 O   0  0  0  0  0  0  0  0  0  0  0  0
   -1.9891   -1.5573   -0.0668 C   0  0  0  0  0  0  0  0  0  0  0  0
   -3.1398   -1.9980    0.8705 C   0  0  0  0  0  0  0  0  0  0  0  0
   -9.7425   -2.1237   -2.9654 H   0  0  0  0  0  0  0  0  0  0  0  0
   -8.5952   -3.4793   -2.6544 H   0  0  0  0  0  0  0  0  0  0  0  0
   -8.0598   -2.0201   -3.6039 H   0  0  0  0  0  0  0  0  0  0  0  0
   -6.1730   -3.1727   -2.4853 H   0  0  0  0  0  0  0  0  0  0  0  0
   -3.9921   -3.2634   -1.4193 H   0  0  0  0  0  0  0  0  0  0  0  0
   -5.3749   -0.6299    1.6896 H   0  0  0  0  0  0  0  0  0  0  0  0
   -8.9009    1.3671    0.9147 H   0  0  0  0  0  0  0  0  0  0  0  0
   -8.3311    0.9572   -0.7419 H   0  0  0  0  0  0  0  0  0  0  0  0
   -6.9155    1.4796    2.7231 H   0  0  0  0  0  0  0  0  0  0  0  0
   -5.1633    2.1884    4.2809 H   0  0  0  0  0  0  0  0  0  0  0  0
   -2.8924    3.0187    4.6712 H   0  0  0  0  0  0  0  0  0  0  0  0
   -0.7955    3.7426    3.7045 H   0  0  0  0  0  0  0  0  0  0  0  0
   -6.4577    2.1799   -1.4945 H   0  0  0  0  0  0  0  0  0  0  0  0
   -4.0362    4.5333   -1.2905 H   0  0  0  0  0  0  0  0  0  0  0  0
   -4.4804    3.1678   -2.3811 H   0  0  0  0  0  0  0  0  0  0  0  0
   -1.9953    3.3211   -2.1402 H   0  0  0  0  0  0  0  0  0  0  0  0
   -2.6512    1.8395   -1.3544 H   0  0  0  0  0  0  0  0  0  0  0  0
   -1.6956    4.4850    0.0337 H   0  0  0  0  0  0  0  0  0  0  0  0
   -0.1322    0.1104   -1.4139 H   0  0  0  0  0  0  0  0  0  0  0  0
    1.9125    1.0331   -2.3229 H   0  0  0  0  0  0  0  0  0  0  0  0
    1.6410   -0.6817   -2.7526 H   0  0  0  0  0  0  0  0  0  0  0  0
    3.9812   -0.2731   -2.4337 H   0  0  0  0  0  0  0  0  0  0  0  0
    3.4080   -1.4117   -1.1679 H   0  0  0  0  0  0  0  0  0  0  0  0
    3.4462    0.4457    0.5135 H   0  0  0  0  0  0  0  0  0  0  0  0
    3.8292    1.6352   -0.7884 H   0  0  0  0  0  0  0  0  0  0  0  0
    5.8087    1.0951    0.5413 H   0  0  0  0  0  0  0  0  0  0  0  0
    6.0191    0.6025   -1.1795 H   0  0  0  0  0  0  0  0  0  0  0  0
    5.5931   -1.7749   -0.5882 H   0  0  0  0  0  0  0  0  0  0  0  0
    5.2030   -1.3058    1.1089 H   0  0  0  0  0  0  0  0  0  0  0  0
    7.4100   -2.2937    0.9503 H   0  0  0  0  0  0  0  0  0  0  0  0
    7.5206   -0.5890    1.5127 H   0  0  0  0  0  0  0  0  0  0  0  0
    8.2399    0.1631   -0.7264 H   0  0  0  0  0  0  0  0  0  0  0  0
    8.0673   -1.4964   -1.4025 H   0  0  0  0  0  0  0  0  0  0  0  0
   10.4396    0.7763   -0.0589 H   0  0  0  0  0  0  0  0  0  0  0  0
   12.7229    0.1749    0.6606 H   0  0  0  0  0  0  0  0  0  0  0  0
   13.3189   -2.1942    1.0787 H   0  0  0  0  0  0  0  0  0  0  0  0
   11.6206   -3.9727    0.7732 H   0  0  0  0  0  0  0  0  0  0  0  0
    9.3336   -3.3971    0.0598 H   0  0  0  0  0  0  0  0  0  0  0  0
    1.5461   -1.7987    0.3073 H   0  0  0  0  0  0  0  0  0  0  0  0
    0.5738   -2.2545   -1.1347 H   0  0  0  0  0  0  0  0  0  0  0  0
   -2.0094   -2.1999   -0.9708 H   0  0  0  0  0  0  0  0  0  0  0  0
   -2.1427   -0.5033   -0.3793 H   0  0  0  0  0  0  0  0  0  0  0  0
   -3.1230   -1.3661    1.7860 H   0  0  0  0  0  0  0  0  0  0  0  0
   -2.9627   -3.0520    1.1755 H   0  0  0  0  0  0  0  0  0  0  0  0
  1  2  1  0  0  0  0
  1 47  1  0  0  0  0
  1 48  1  0  0  0  0
  1 49  1  0  0  0  0
  2  3  1  0  0  0  0
  3  4  2  0  0  0  0
  4  5  1  0  0  0  0
  4 50  1  0  0  0  0
  5  6  2  0  0  0  0
  5 51  1  0  0  0  0
  6  7  1  0  0  0  0
  7  8  2  0  0  0  0
  7 52  1  0  0  0  0
  8  9  1  0  0  0  0
  8  3  1  0  0  0  0
  9 10  1  0  0  0  0
 10 11  1  0  0  0  0
 10 53  1  0  0  0  0
 10 54  1  0  0  0  0
 11 12  1  0  0  0  0
 12 13  2  0  0  0  0
 12 55  1  0  0  0  0
 13 14  1  0  0  0  0
 14 15  2  0  0  0  0
 14 56  1  0  0  0  0
 15 16  1  0  0  0  0
 15 57  1  0  0  0  0
 16 17  1  0  0  0  0
 16 18  2  0  0  0  0
 17 58  1  0  0  0  0
 18 19  1  0  0  0  0
 19 20  2  0  0  0  0
 19 13  1  0  0  0  0
 20 21  1  0  0  0  0
 20 22  1  0  0  0  0
 21 11  2  0  0  0  0
 21 59  1  0  0  0  0
 22 23  1  0  0  0  0
 22 60  1  0  0  0  0
 22 61  1  0  0  0  0
 23 62  1  0  0  0  0
 23 63  1  0  0  0  0
 24 23  1  0  0  0  0
 24 25  1  0  0  0  0
 24 18  1  0  0  0  0
 24 64  1  6  0  0  0
 25 26  3  0  0  0  0
 26 27  1  0  0  0  0
 27 28  1  0  0  0  0
 28 29  1  0  0  0  0
 28 42  1  0  0  0  0
 28 65  1  6  0  0  0
 29 30  1  0  0  0  0
 29 66  1  0  0  0  0
 29 67  1  0  0  0  0
 30 31  1  0  0  0  0
 30 68  1  0  0  0  0
 30 69  1  0  0  0  0
 31 32  1  0  0  0  0
 31 70  1  0  0  0  0
 31 71  1  0  0  0  0
 32 33  1  0  0  0  0
 32 72  1  0  0  0  0
 32 73  1  0  0  0  0
 33 34  1  0  0  0  0
 33 74  1  0  0  0  0
 33 75  1  0  0  0  0
 34 35  1  0  0  0  0
 34 76  1  0  0  0  0
 34 77  1  0  0  0  0
 35 36  1  0  0  0  0
 35 78  1  0  0  0  0
 35 79  1  0  0  0  0
 36 37  2  0  0  0  0
 37 38  1  0  0  0  0
 37 80  1  0  0  0  0
 38 39  2  0  0  0  0
 38 81  1  0  0  0  0
 39 40  1  0  0  0  0
 39 82  1  0  0  0  0
 40 41  2  0  0  0  0
 40 83  1  0  0  0  0
 41 36  1  0  0  0  0
 41 84  1  0  0  0  0
 42 43  1  0  0  0  0
 42 85  1  0  0  0  0
 42 86  1  0  0  0  0
 43 44  2  0  0  0  0
 43 45  1  0  0  0  0
 45 46  1  0  0  0  0
 45 87  1  0  0  0  0
 45 88  1  0  0  0  0
 46  6  1  0  0  0  0
 46 89  1  0  0  0  0
 46 90  1  0  0  0  0
M  END
>  <IDENTIFIER>
CNP0245025.3

>  <Energy>
568.65

$$$$
