
 OpenBabel09092503003D

 59 62  0  0  0  0  0  0  0  0999 V2000
   -5.1093    3.8850   -0.2433 C   0  0  0  0  0  0  0  0  0  0  0  0
   -4.2791    2.8007    0.3641 C   0  0  0  0  0  0  0  0  0  0  0  0
   -4.0862    2.7916    1.5713 O   0  0  0  0  0  0  0  0  0  0  0  0
   -3.7562    1.8373   -0.4428 O   0  0  0  0  0  0  0  0  0  0  0  0
   -2.9864    0.7645   -0.0247 C   0  0  2  0  0  0  0  0  0  0  0  0
   -1.5653    0.8464   -0.6506 C   0  0  0  0  0  0  0  0  0  0  0  0
   -0.7927   -0.5229   -0.6562 C   0  0  1  0  0  0  0  0  0  0  0  0
   -0.9340   -1.1550   -2.0741 C   0  0  0  0  0  0  0  0  0  0  0  0
    0.7223   -0.3468   -0.4522 C   0  0  0  0  0  0  0  0  0  0  0  0
    1.4297    0.5200   -1.2166 C   0  0  0  0  0  0  0  0  0  0  0  0
    2.9269    0.5538   -1.0703 C   0  0  0  0  0  0  0  0  0  0  0  0
    3.3730    0.6787    0.4230 C   0  0  2  0  0  0  0  0  0  0  0  0
    3.2352    2.1610    0.8547 C   0  0  0  0  0  0  0  0  0  0  0  0
    4.8562    0.1576    0.5594 C   0  0  2  0  0  0  0  0  0  0  0  0
    5.5509    0.3275    2.3820 Br  0  0  0  0  0  0  0  0  0  0  0  0
    5.8941    0.7625   -0.4078 C   0  0  0  0  0  0  0  0  0  0  0  0
    6.0925    2.1287   -0.1623 O   0  0  0  0  0  0  0  0  0  0  0  0
    2.4316   -0.2034    1.3438 C   0  0  0  0  0  0  0  0  0  0  0  0
    1.5392   -1.1844    0.5428 C   0  0  1  0  0  0  0  0  0  0  0  0
    0.7086   -2.0608    1.4993 C   0  0  0  0  0  0  0  0  0  0  0  0
   -0.5387   -2.6419    0.8251 C   0  0  0  0  0  0  0  0  0  0  0  0
   -1.4288   -1.4503    0.4385 C   0  0  2  0  0  0  0  0  0  0  0  0
   -2.8914   -1.8284    0.0395 C   0  0  1  0  0  0  0  0  0  0  0  0
   -3.1771   -3.1411   -0.7235 C   0  0  0  0  0  0  0  0  0  0  0  0
   -4.0559   -1.4138    0.9160 C   0  0  0  0  0  0  0  0  0  0  0  0
   -3.7176   -0.5708   -0.3383 C   0  0  1  0  0  0  0  0  0  0  0  0
   -5.4665    4.5908    0.5372 H   0  0  0  0  0  0  0  0  0  0  0  0
   -5.9882    3.4369   -0.7516 H   0  0  0  0  0  0  0  0  0  0  0  0
   -4.5027    4.4451   -0.9852 H   0  0  0  0  0  0  0  0  0  0  0  0
   -2.8314    0.8204    1.0744 H   0  0  0  0  0  0  0  0  0  0  0  0
   -1.0211    1.6056   -0.0456 H   0  0  0  0  0  0  0  0  0  0  0  0
   -1.6021    1.2514   -1.6863 H   0  0  0  0  0  0  0  0  0  0  0  0
   -0.4591   -0.5175   -2.8497 H   0  0  0  0  0  0  0  0  0  0  0  0
   -1.9884   -1.2467   -2.3936 H   0  0  0  0  0  0  0  0  0  0  0  0
   -0.4436   -2.1499   -2.1199 H   0  0  0  0  0  0  0  0  0  0  0  0
    0.9479    1.1668   -1.9434 H   0  0  0  0  0  0  0  0  0  0  0  0
    3.3857    1.3265   -1.7238 H   0  0  0  0  0  0  0  0  0  0  0  0
    3.2725   -0.4317   -1.4535 H   0  0  0  0  0  0  0  0  0  0  0  0
    3.8350    2.8363    0.2154 H   0  0  0  0  0  0  0  0  0  0  0  0
    3.5402    2.3042    1.9117 H   0  0  0  0  0  0  0  0  0  0  0  0
    2.1792    2.4944    0.7581 H   0  0  0  0  0  0  0  0  0  0  0  0
    4.8389   -0.9326    0.3360 H   0  0  0  0  0  0  0  0  0  0  0  0
    5.5899    0.5720   -1.4624 H   0  0  0  0  0  0  0  0  0  0  0  0
    6.8654    0.2414   -0.2658 H   0  0  0  0  0  0  0  0  0  0  0  0
    6.0474    2.5936   -1.0380 H   0  0  0  0  0  0  0  0  0  0  0  0
    1.7134    0.4589    1.8805 H   0  0  0  0  0  0  0  0  0  0  0  0
    2.9998   -0.7269    2.1403 H   0  0  0  0  0  0  0  0  0  0  0  0
    2.1752   -1.8740   -0.0552 H   0  0  0  0  0  0  0  0  0  0  0  0
    0.3606   -1.4485    2.3620 H   0  0  0  0  0  0  0  0  0  0  0  0
    1.3550   -2.8577    1.9256 H   0  0  0  0  0  0  0  0  0  0  0  0
   -1.0709   -3.2627    1.5784 H   0  0  0  0  0  0  0  0  0  0  0  0
   -0.2827   -3.2809   -0.0463 H   0  0  0  0  0  0  0  0  0  0  0  0
   -1.4963   -0.8546    1.3754 H   0  0  0  0  0  0  0  0  0  0  0  0
   -2.9258   -4.0028   -0.0713 H   0  0  0  0  0  0  0  0  0  0  0  0
   -2.5748   -3.2345   -1.6446 H   0  0  0  0  0  0  0  0  0  0  0  0
   -4.2468   -3.2296   -1.0112 H   0  0  0  0  0  0  0  0  0  0  0  0
   -3.7807   -0.9618    1.8916 H   0  0  0  0  0  0  0  0  0  0  0  0
   -5.0502   -1.8812    0.7544 H   0  0  0  0  0  0  0  0  0  0  0  0
   -4.0747   -0.7585   -1.3736 H   0  0  0  0  0  0  0  0  0  0  0  0
  1  2  1  0  0  0  0
  1 27  1  0  0  0  0
  1 28  1  0  0  0  0
  1 29  1  0  0  0  0
  2  3  2  0  0  0  0
  2  4  1  0  0  0  0
  5  4  1  0  0  0  0
  5  6  1  0  0  0  0
  5 30  1  1  0  0  0
  6  7  1  0  0  0  0
  6 31  1  0  0  0  0
  6 32  1  0  0  0  0
  7  8  1  6  0  0  0
  7  9  1  0  0  0  0
  8 33  1  0  0  0  0
  8 34  1  0  0  0  0
  8 35  1  0  0  0  0
  9 10  2  0  0  0  0
 10 11  1  0  0  0  0
 10 36  1  0  0  0  0
 11 12  1  0  0  0  0
 11 37  1  0  0  0  0
 11 38  1  0  0  0  0
 12 13  1  1  0  0  0
 12 14  1  0  0  0  0
 12 18  1  0  0  0  0
 13 39  1  0  0  0  0
 13 40  1  0  0  0  0
 13 41  1  0  0  0  0
 14 15  1  0  0  0  0
 14 16  1  0  0  0  0
 14 42  1  6  0  0  0
 16 17  1  0  0  0  0
 16 43  1  0  0  0  0
 16 44  1  0  0  0  0
 17 45  1  0  0  0  0
 18 46  1  0  0  0  0
 18 47  1  0  0  0  0
 19 18  1  0  0  0  0
 19 20  1  0  0  0  0
 19  9  1  0  0  0  0
 19 48  1  6  0  0  0
 20 21  1  0  0  0  0
 20 49  1  0  0  0  0
 20 50  1  0  0  0  0
 21 51  1  0  0  0  0
 21 52  1  0  0  0  0
 22 21  1  0  0  0  0
 22 23  1  0  0  0  0
 22  7  1  0  0  0  0
 22 53  1  1  0  0  0
 23 24  1  6  0  0  0
 23 25  1  0  0  0  0
 24 54  1  0  0  0  0
 24 55  1  0  0  0  0
 24 56  1  0  0  0  0
 25 57  1  0  0  0  0
 25 58  1  0  0  0  0
 26 25  1  0  0  0  0
 26  5  1  0  0  0  0
 26 23  1  0  0  0  0
 26 59  1  6  0  0  0
M  END
>  <IDENTIFIER>
CNP0252757.1

>  <Energy>
1930.76

$$$$
