
 OpenBabel09052511543D

 41 43  0  0  0  0  0  0  0  0999 V2000
    6.8993   -1.0195    0.1289 C   0  0  0  0  0  0  0  0  0  0  0  0
    6.2349    0.0279   -0.4755 O   0  0  0  0  0  0  0  0  0  0  0  0
    4.8907    0.2264   -0.4645 C   0  0  0  0  0  0  0  0  0  0  0  0
    4.3801    1.3330   -1.1307 C   0  0  0  0  0  0  0  0  0  0  0  0
    3.0091    1.5845   -1.1540 C   0  0  0  0  0  0  0  0  0  0  0  0
    2.0783    0.7328   -0.5033 C   0  0  0  0  0  0  0  0  0  0  0  0
    0.5948    1.0476   -0.5652 C   0  0  0  0  0  0  0  0  0  0  0  0
    0.0793    2.1772   -1.2338 C   0  0  0  0  0  0  0  0  0  0  0  0
   -1.2966    2.4140   -1.2596 C   0  0  0  0  0  0  0  0  0  0  0  0
   -1.6944    3.4017   -1.8481 O   0  0  0  0  0  0  0  0  0  0  0  0
   -2.1815    1.5196   -0.6138 C   0  0  0  0  0  0  0  0  0  0  0  0
   -3.6042    1.6585   -0.5697 C   0  0  0  0  0  0  0  0  0  0  0  0
   -4.2911    2.6718   -1.1476 O   0  0  0  0  0  0  0  0  0  0  0  0
   -4.3703    0.7039    0.1082 C   0  0  0  0  0  0  0  0  0  0  0  0
   -3.7742   -0.3939    0.7491 C   0  0  0  0  0  0  0  0  0  0  0  0
   -4.5009   -1.3308    1.4151 O   0  0  0  0  0  0  0  0  0  0  0  0
   -5.8732   -1.3401    1.5561 C   0  0  0  0  0  0  0  0  0  0  0  0
   -2.3840   -0.5367    0.7051 C   0  0  0  0  0  0  0  0  0  0  0  0
   -1.8026   -1.5895    1.3226 O   0  0  0  0  0  0  0  0  0  0  0  0
   -1.5409   -2.7700    0.6626 C   0  0  0  0  0  0  0  0  0  0  0  0
   -1.5910    0.4069    0.0353 C   0  0  0  0  0  0  0  0  0  0  0  0
   -0.2721    0.2349    0.0251 O   0  0  0  0  0  0  0  0  0  0  0  0
    2.6198   -0.4063    0.1870 C   0  0  0  0  0  0  0  0  0  0  0  0
    1.8874   -1.3167    0.8681 O   0  0  0  0  0  0  0  0  0  0  0  0
    4.0023   -0.6364    0.1907 C   0  0  0  0  0  0  0  0  0  0  0  0
    7.9883   -0.9108   -0.0515 H   0  0  0  0  0  0  0  0  0  0  0  0
    6.5634   -1.9866   -0.3026 H   0  0  0  0  0  0  0  0  0  0  0  0
    6.7190   -1.0074    1.2251 H   0  0  0  0  0  0  0  0  0  0  0  0
    5.0542    2.0101   -1.6413 H   0  0  0  0  0  0  0  0  0  0  0  0
    2.7151    2.4631   -1.6984 H   0  0  0  0  0  0  0  0  0  0  0  0
    0.7043    2.8920   -1.7412 H   0  0  0  0  0  0  0  0  0  0  0  0
   -3.9271    3.4076   -1.6484 H   0  0  0  0  0  0  0  0  0  0  0  0
   -5.4449    0.8313    0.1295 H   0  0  0  0  0  0  0  0  0  0  0  0
   -6.1705   -2.2291    2.1490 H   0  0  0  0  0  0  0  0  0  0  0  0
   -6.3611   -1.3997    0.5599 H   0  0  0  0  0  0  0  0  0  0  0  0
   -6.2098   -0.4276    2.0930 H   0  0  0  0  0  0  0  0  0  0  0  0
   -1.0543   -3.4780    1.3645 H   0  0  0  0  0  0  0  0  0  0  0  0
   -0.8583   -2.5896   -0.1953 H   0  0  0  0  0  0  0  0  0  0  0  0
   -2.4870   -3.2213    0.2952 H   0  0  0  0  0  0  0  0  0  0  0  0
    0.9405   -1.3223    1.0130 H   0  0  0  0  0  0  0  0  0  0  0  0
    4.3764   -1.5042    0.7186 H   0  0  0  0  0  0  0  0  0  0  0  0
  1  2  1  0  0  0  0
  1 26  1  0  0  0  0
  1 27  1  0  0  0  0
  1 28  1  0  0  0  0
  2  3  1  0  0  0  0
  3  4  2  0  0  0  0
  4  5  1  0  0  0  0
  4 29  1  0  0  0  0
  5  6  2  0  0  0  0
  5 30  1  0  0  0  0
  6  7  1  0  0  0  0
  6 23  1  0  0  0  0
  7  8  2  0  0  0  0
  8  9  1  0  0  0  0
  8 31  1  0  0  0  0
  9 10  2  0  0  0  0
  9 11  1  0  0  0  0
 11 12  2  0  0  0  0
 12 13  1  0  0  0  0
 12 14  1  0  0  0  0
 13 32  1  0  0  0  0
 14 15  2  0  0  0  0
 14 33  1  0  0  0  0
 15 16  1  0  0  0  0
 15 18  1  0  0  0  0
 16 17  1  0  0  0  0
 17 34  1  0  0  0  0
 17 35  1  0  0  0  0
 17 36  1  0  0  0  0
 18 19  1  0  0  0  0
 18 21  2  0  0  0  0
 19 20  1  0  0  0  0
 20 37  1  0  0  0  0
 20 38  1  0  0  0  0
 20 39  1  0  0  0  0
 21 22  1  0  0  0  0
 21 11  1  0  0  0  0
 22  7  1  0  0  0  0
 23 24  1  0  0  0  0
 23 25  2  0  0  0  0
 24 40  1  0  0  0  0
 25  3  1  0  0  0  0
 25 41  1  0  0  0  0
M  END
>  <IDENTIFIER>
CNP0210258.0

>  <Energy>
364.464

$$$$
