
 OpenBabel09072503123D

209219  0  0  0  0  0  0  0  0999 V2000
  -10.9471    3.4288   -2.1135 C   0  0  0  0  0  0  0  0  0  0  0  0
  -12.3729    3.6752   -1.7819 C   0  0  0  0  0  0  0  0  0  0  0  0
  -13.1479    2.8588   -1.0320 C   0  0  0  0  0  0  0  0  0  0  0  0
  -14.6010    3.2410   -0.8531 C   0  0  0  0  0  0  0  0  0  0  0  0
  -12.6938    1.5979   -0.3507 C   0  0  0  0  0  0  0  0  0  0  0  0
  -13.5610    0.9546    0.2316 O   0  0  0  0  0  0  0  0  0  0  0  0
  -11.3834    1.1754   -0.2956 O   0  0  0  0  0  0  0  0  0  0  0  0
  -10.9728    0.0652    0.4614 C   0  0  1  0  0  0  0  0  0  0  0  0
  -10.3786   -1.0615   -0.4568 C   0  0  2  0  0  0  0  0  0  0  0  0
  -10.6148   -2.2505    0.2189 O   0  0  0  0  0  0  0  0  0  0  0  0
  -11.3542   -3.3028   -0.2343 C   0  0  0  0  0  0  0  0  0  0  0  0
  -11.8897   -3.2348   -1.3281 O   0  0  0  0  0  0  0  0  0  0  0  0
  -11.4707   -4.5376    0.6114 C   0  0  0  0  0  0  0  0  0  0  0  0
  -10.8436   -4.5320    1.9884 C   0  0  0  0  0  0  0  0  0  0  0  0
  -12.0968   -5.6890    0.2464 C   0  0  0  0  0  0  0  0  0  0  0  0
  -12.7986   -6.0136   -1.0482 C   0  0  0  0  0  0  0  0  0  0  0  0
   -8.8263   -0.9229   -0.7947 C   0  0  1  0  0  0  0  0  0  0  0  0
   -8.1051   -2.3726   -0.8903 C   0  0  2  0  0  0  0  0  0  0  0  0
   -8.2336   -3.2593    0.1963 O   0  0  0  0  0  0  0  0  0  0  0  0
   -6.6062   -2.2694   -1.2470 C   0  0  0  0  0  0  0  0  0  0  0  0
   -5.8657   -1.1690   -0.4265 C   0  0  2  0  0  0  0  0  0  0  0  0
   -5.7508   -1.6759    1.0642 C   0  0  0  0  0  0  0  0  0  0  0  0
   -6.7634    0.1447   -0.4900 C   0  0  1  0  0  0  0  0  0  0  0  0
   -6.0380    1.3612    0.1536 C   0  0  0  0  0  0  0  0  0  0  0  0
   -4.6136    1.5932   -0.3305 C   0  0  0  0  0  0  0  0  0  0  0  0
   -3.7579    0.3002   -0.1725 C   0  0  2  0  0  0  0  0  0  0  0  0
   -2.2018    0.5513   -0.2410 C   0  0  1  0  0  0  0  0  0  0  0  0
   -1.7992    1.3869   -1.4910 C   0  0  0  0  0  0  0  0  0  0  0  0
   -1.7877    1.4136    1.0262 C   0  0  0  0  0  0  0  0  0  0  0  0
   -1.0184    0.6248    2.0757 C   0  0  0  0  0  0  0  0  0  0  0  0
    0.2557    0.0513    1.4369 C   0  0  2  0  0  0  0  0  0  0  0  0
    1.1252    1.1391    1.1191 O   0  0  0  0  0  0  0  0  0  0  0  0
    2.3653    0.8912    1.7277 C   0  0  2  0  0  0  0  0  0  0  0  0
    2.2675    1.2266    3.1004 O   0  0  0  0  0  0  0  0  0  0  0  0
    3.3683    0.7256    3.8307 C   0  0  2  0  0  0  0  0  0  0  0  0
    3.2248    1.1648    5.2786 C   0  0  0  0  0  0  0  0  0  0  0  0
    4.0403    0.7780    6.1035 O   0  0  0  0  0  0  0  0  0  0  0  0
    2.2247    1.9749    5.6858 O   0  0  0  0  0  0  0  0  0  0  0  0
    4.7286    1.2258    3.2374 C   0  0  1  0  0  0  0  0  0  0  0  0
    5.8032    0.6309    3.9191 O   0  0  0  0  0  0  0  0  0  0  0  0
    4.7701    0.9762    1.6864 C   0  0  2  0  0  0  0  0  0  0  0  0
    5.9272    1.4459    1.0359 O   0  0  0  0  0  0  0  0  0  0  0  0
    7.0741    0.6847    1.3835 C   0  0  2  0  0  0  0  0  0  0  0  0
    7.8710    1.4715    2.2676 O   0  0  0  0  0  0  0  0  0  0  0  0
    8.8172    2.3311    1.6377 C   0  0  2  0  0  0  0  0  0  0  0  0
    8.9884    3.5597    2.5373 C   0  0  0  0  0  0  0  0  0  0  0  0
    9.9409    4.4451    2.0173 O   0  0  0  0  0  0  0  0  0  0  0  0
    8.4570    2.7011    0.1476 C   0  0  2  0  0  0  0  0  0  0  0  0
    7.2861    3.4843    0.0367 O   0  0  0  0  0  0  0  0  0  0  0  0
    8.3019    1.4018   -0.7023 C   0  0  2  0  0  0  0  0  0  0  0  0
    7.4278    1.6161   -1.7811 O   0  0  0  0  0  0  0  0  0  0  0  0
    7.8902    0.1869    0.1652 C   0  0  1  0  0  0  0  0  0  0  0  0
    9.0592   -0.3479    0.7385 O   0  0  0  0  0  0  0  0  0  0  0  0
    9.5351   -1.6188    0.3161 C   0  0  2  0  0  0  0  0  0  0  0  0
    9.9658   -2.3332    1.4707 O   0  0  0  0  0  0  0  0  0  0  0  0
   10.8544   -1.5426    2.2648 C   0  0  1  0  0  0  0  0  0  0  0  0
   11.2746   -2.3678    3.4795 C   0  0  0  0  0  0  0  0  0  0  0  0
   12.1119   -1.0985    1.4567 C   0  0  2  0  0  0  0  0  0  0  0  0
   12.8987   -0.1976    2.1935 O   0  0  0  0  0  0  0  0  0  0  0  0
   11.7264   -0.4944    0.0770 C   0  0  1  0  0  0  0  0  0  0  0  0
   12.8472   -0.2151   -0.7243 O   0  0  0  0  0  0  0  0  0  0  0  0
   10.7560   -1.4658   -0.6304 C   0  0  1  0  0  0  0  0  0  0  0  0
   11.4094   -2.7260   -0.7246 O   0  0  0  0  0  0  0  0  0  0  0  0
   11.4423   -3.3642   -1.9851 C   0  0  2  0  0  0  0  0  0  0  0  0
   10.8325   -4.6364   -1.8005 O   0  0  0  0  0  0  0  0  0  0  0  0
   10.9393   -5.4578   -2.9509 C   0  0  0  0  0  0  0  0  0  0  0  0
   12.4095   -5.7872   -3.2537 C   0  0  1  0  0  0  0  0  0  0  0  0
   12.5242   -6.6889   -4.3256 O   0  0  0  0  0  0  0  0  0  0  0  0
   13.1471   -4.4740   -3.5449 C   0  0  2  0  0  0  0  0  0  0  0  0
   14.5149   -4.6996   -3.7898 O   0  0  0  0  0  0  0  0  0  0  0  0
   12.9457   -3.5225   -2.3544 C   0  0  1  0  0  0  0  0  0  0  0  0
   13.5476   -2.2811   -2.6126 O   0  0  0  0  0  0  0  0  0  0  0  0
    3.5175    1.6998    1.1247 C   0  0  1  0  0  0  0  0  0  0  0  0
    3.4979    1.7475   -0.3061 O   0  0  0  0  0  0  0  0  0  0  0  0
    3.1880    3.0768   -0.7611 C   0  0  2  0  0  0  0  0  0  0  0  0
    1.7798    3.2903   -0.6800 O   0  0  0  0  0  0  0  0  0  0  0  0
    1.4461    4.6429   -0.9897 C   0  0  2  0  0  0  0  0  0  0  0  0
   -0.0460    4.8980   -0.7025 C   0  0  0  0  0  0  0  0  0  0  0  0
   -0.3401    4.8153    0.6686 O   0  0  0  0  0  0  0  0  0  0  0  0
    1.7799    4.9569   -2.4697 C   0  0  2  0  0  0  0  0  0  0  0  0
    1.0031    4.1951   -3.3660 O   0  0  0  0  0  0  0  0  0  0  0  0
    3.2843    4.7223   -2.6764 C   0  0  2  0  0  0  0  0  0  0  0  0
    3.6771    4.9826   -4.0003 O   0  0  0  0  0  0  0  0  0  0  0  0
    3.6797    3.2960   -2.2151 C   0  0  1  0  0  0  0  0  0  0  0  0
    5.0683    3.1305   -2.3118 O   0  0  0  0  0  0  0  0  0  0  0  0
    0.0235   -0.8890    0.1780 C   0  0  0  0  0  0  0  0  0  0  0  0
    0.9307   -0.5250   -1.0322 C   0  0  0  0  0  0  0  0  0  0  0  0
    0.4651   -2.3308    0.5799 C   0  0  0  0  0  0  0  0  0  0  0  0
   -1.5115   -0.8811   -0.1528 C   0  0  2  0  0  0  0  0  0  0  0  0
   -1.9906   -1.8278   -1.2761 C   0  0  0  0  0  0  0  0  0  0  0  0
   -3.4835   -2.1288   -1.0350 C   0  0  0  0  0  0  0  0  0  0  0  0
   -4.3900   -0.8565   -1.0592 C   0  0  1  0  0  0  0  0  0  0  0  0
   -4.4478   -0.4546   -2.5820 C   0  0  0  0  0  0  0  0  0  0  0  0
   -7.0904    0.3717   -1.8650 O   0  0  0  0  0  0  0  0  0  0  0  0
   -8.4221   -0.1509   -2.0889 C   0  0  2  0  0  0  0  0  0  0  0  0
   -9.2861    0.9165   -2.3271 O   0  0  0  0  0  0  0  0  0  0  0  0
   -8.1617    0.0712    0.1352 C   0  0  2  0  0  0  0  0  0  0  0  0
   -8.5808   -0.0241    1.6027 C   0  0  0  0  0  0  0  0  0  0  0  0
  -10.0668    0.4779    1.7266 C   0  0  0  0  0  0  0  0  0  0  0  0
  -10.6409   -0.0991    3.0388 C   0  0  0  0  0  0  0  0  0  0  0  0
  -10.0741    2.0287    1.8969 C   0  0  0  0  0  0  0  0  0  0  0  0
  -10.5563    4.2573   -2.7405 H   0  0  0  0  0  0  0  0  0  0  0  0
  -10.9217    2.5073   -2.7171 H   0  0  0  0  0  0  0  0  0  0  0  0
  -10.3285    3.3511   -1.1969 H   0  0  0  0  0  0  0  0  0  0  0  0
  -12.8088    4.5728   -2.2121 H   0  0  0  0  0  0  0  0  0  0  0  0
  -14.8733    4.1759   -1.3858 H   0  0  0  0  0  0  0  0  0  0  0  0
  -14.8169    3.3838    0.2270 H   0  0  0  0  0  0  0  0  0  0  0  0
  -15.2478    2.4263   -1.2453 H   0  0  0  0  0  0  0  0  0  0  0  0
  -11.8892   -0.3942    0.8891 H   0  0  0  0  0  0  0  0  0  0  0  0
  -10.9414   -1.0911   -1.4157 H   0  0  0  0  0  0  0  0  0  0  0  0
  -10.3660   -3.5666    2.2425 H   0  0  0  0  0  0  0  0  0  0  0  0
  -10.0677   -5.3251    2.0507 H   0  0  0  0  0  0  0  0  0  0  0  0
  -11.6215   -4.7279    2.7564 H   0  0  0  0  0  0  0  0  0  0  0  0
  -12.1042   -6.5077    0.9630 H   0  0  0  0  0  0  0  0  0  0  0  0
  -12.8087   -5.2228   -1.8108 H   0  0  0  0  0  0  0  0  0  0  0  0
  -13.8543   -6.2728   -0.8252 H   0  0  0  0  0  0  0  0  0  0  0  0
  -12.3074   -6.8980   -1.5041 H   0  0  0  0  0  0  0  0  0  0  0  0
   -8.5953   -2.9142   -1.7302 H   0  0  0  0  0  0  0  0  0  0  0  0
   -8.5503   -2.8023    0.9971 H   0  0  0  0  0  0  0  0  0  0  0  0
   -6.5883   -2.0044   -2.3149 H   0  0  0  0  0  0  0  0  0  0  0  0
   -6.1081   -3.2620   -1.1827 H   0  0  0  0  0  0  0  0  0  0  0  0
   -6.6985   -1.9519    1.5013 H   0  0  0  0  0  0  0  0  0  0  0  0
   -5.3730   -0.9406    1.7931 H   0  0  0  0  0  0  0  0  0  0  0  0
   -5.1654   -2.6057    1.1663 H   0  0  0  0  0  0  0  0  0  0  0  0
   -5.9699    1.1968    1.2504 H   0  0  0  0  0  0  0  0  0  0  0  0
   -6.6194    2.2962   -0.0012 H   0  0  0  0  0  0  0  0  0  0  0  0
   -4.2184    2.4389    0.2623 H   0  0  0  0  0  0  0  0  0  0  0  0
   -4.6207    1.9539   -1.3746 H   0  0  0  0  0  0  0  0  0  0  0  0
   -3.8338   -0.0254    0.8715 H   0  0  0  0  0  0  0  0  0  0  0  0
   -2.3844    2.3257   -1.5451 H   0  0  0  0  0  0  0  0  0  0  0  0
   -1.8745    0.8606   -2.4472 H   0  0  0  0  0  0  0  0  0  0  0  0
   -0.7642    1.7466   -1.4222 H   0  0  0  0  0  0  0  0  0  0  0  0
   -2.6444    1.8862    1.5431 H   0  0  0  0  0  0  0  0  0  0  0  0
   -1.1277    2.2476    0.7347 H   0  0  0  0  0  0  0  0  0  0  0  0
   -1.6563   -0.1785    2.5050 H   0  0  0  0  0  0  0  0  0  0  0  0
   -0.7391    1.2848    2.9267 H   0  0  0  0  0  0  0  0  0  0  0  0
    0.6272   -0.5738    2.2927 H   0  0  0  0  0  0  0  0  0  0  0  0
    2.6037   -0.1932    1.5641 H   0  0  0  0  0  0  0  0  0  0  0  0
    3.3217   -0.3874    3.8107 H   0  0  0  0  0  0  0  0  0  0  0  0
    1.5508    2.3300    5.0907 H   0  0  0  0  0  0  0  0  0  0  0  0
    4.7960    2.3252    3.4007 H   0  0  0  0  0  0  0  0  0  0  0  0
    5.6649   -0.3519    3.8956 H   0  0  0  0  0  0  0  0  0  0  0  0
    4.6924   -0.1128    1.4509 H   0  0  0  0  0  0  0  0  0  0  0  0
    6.8367   -0.2660    1.9131 H   0  0  0  0  0  0  0  0  0  0  0  0
    9.8008    1.8160    1.6245 H   0  0  0  0  0  0  0  0  0  0  0  0
    9.2876    3.2330    3.5633 H   0  0  0  0  0  0  0  0  0  0  0  0
    8.0330    4.1041    2.6755 H   0  0  0  0  0  0  0  0  0  0  0  0
   10.8300    4.0827    2.2687 H   0  0  0  0  0  0  0  0  0  0  0  0
    9.2699    3.3128   -0.2995 H   0  0  0  0  0  0  0  0  0  0  0  0
    6.8680    3.6393    0.9184 H   0  0  0  0  0  0  0  0  0  0  0  0
    9.2761    1.1196   -1.1521 H   0  0  0  0  0  0  0  0  0  0  0  0
    6.5133    1.3492   -1.4981 H   0  0  0  0  0  0  0  0  0  0  0  0
    7.3352   -0.5688   -0.4395 H   0  0  0  0  0  0  0  0  0  0  0  0
    8.7486   -2.2332   -0.1781 H   0  0  0  0  0  0  0  0  0  0  0  0
   10.3134   -0.6553    2.6636 H   0  0  0  0  0  0  0  0  0  0  0  0
   11.8212   -3.2795    3.1542 H   0  0  0  0  0  0  0  0  0  0  0  0
   10.3758   -2.6809    4.0516 H   0  0  0  0  0  0  0  0  0  0  0  0
   11.9302   -1.7697    4.1464 H   0  0  0  0  0  0  0  0  0  0  0  0
   12.7170   -2.0110    1.2625 H   0  0  0  0  0  0  0  0  0  0  0  0
   12.3406    0.6078    2.3607 H   0  0  0  0  0  0  0  0  0  0  0  0
   11.2168    0.4779    0.2406 H   0  0  0  0  0  0  0  0  0  0  0  0
   13.5368   -0.9053   -0.5549 H   0  0  0  0  0  0  0  0  0  0  0  0
   10.4461   -1.0288   -1.6066 H   0  0  0  0  0  0  0  0  0  0  0  0
   10.8932   -2.8084   -2.7812 H   0  0  0  0  0  0  0  0  0  0  0  0
   10.4349   -4.9849   -3.8231 H   0  0  0  0  0  0  0  0  0  0  0  0
   10.4061   -6.4092   -2.7413 H   0  0  0  0  0  0  0  0  0  0  0  0
   12.8507   -6.2701   -2.3526 H   0  0  0  0  0  0  0  0  0  0  0  0
   12.1287   -6.2587   -5.1272 H   0  0  0  0  0  0  0  0  0  0  0  0
   12.7041   -4.0114   -4.4539 H   0  0  0  0  0  0  0  0  0  0  0  0
   14.9053   -5.1125   -2.9750 H   0  0  0  0  0  0  0  0  0  0  0  0
   13.4532   -3.9789   -1.4745 H   0  0  0  0  0  0  0  0  0  0  0  0
   13.0724   -1.8743   -3.3838 H   0  0  0  0  0  0  0  0  0  0  0  0
    3.4697    2.7264    1.5645 H   0  0  0  0  0  0  0  0  0  0  0  0
    3.7377    3.8409   -0.1557 H   0  0  0  0  0  0  0  0  0  0  0  0
    2.0130    5.3435   -0.3321 H   0  0  0  0  0  0  0  0  0  0  0  0
   -0.6905    4.1986   -1.2757 H   0  0  0  0  0  0  0  0  0  0  0  0
   -0.2971    5.9307   -1.0270 H   0  0  0  0  0  0  0  0  0  0  0  0
    0.1277    4.0251    1.0396 H   0  0  0  0  0  0  0  0  0  0  0  0
    1.5602    6.0294   -2.6712 H   0  0  0  0  0  0  0  0  0  0  0  0
    1.0495    3.2421   -3.0992 H   0  0  0  0  0  0  0  0  0  0  0  0
    3.8183    5.4518   -2.0244 H   0  0  0  0  0  0  0  0  0  0  0  0
    3.2665    4.2903   -4.5785 H   0  0  0  0  0  0  0  0  0  0  0  0
    3.1982    2.5426   -2.8720 H   0  0  0  0  0  0  0  0  0  0  0  0
    5.4955    3.8445   -1.7691 H   0  0  0  0  0  0  0  0  0  0  0  0
    2.0024   -0.6441   -0.7657 H   0  0  0  0  0  0  0  0  0  0  0  0
    0.8387    0.5072   -1.3826 H   0  0  0  0  0  0  0  0  0  0  0  0
    0.7277   -1.1989   -1.8917 H   0  0  0  0  0  0  0  0  0  0  0  0
    1.5319   -2.3368    0.8937 H   0  0  0  0  0  0  0  0  0  0  0  0
    0.3954   -3.0515   -0.2590 H   0  0  0  0  0  0  0  0  0  0  0  0
   -0.1379   -2.7172    1.4288 H   0  0  0  0  0  0  0  0  0  0  0  0
   -1.9247   -1.3596    0.7613 H   0  0  0  0  0  0  0  0  0  0  0  0
   -1.4909   -2.8117   -1.2169 H   0  0  0  0  0  0  0  0  0  0  0  0
   -1.7598   -1.4238   -2.2796 H   0  0  0  0  0  0  0  0  0  0  0  0
   -3.5122   -2.6310   -0.0554 H   0  0  0  0  0  0  0  0  0  0  0  0
   -3.8402   -2.8810   -1.7718 H   0  0  0  0  0  0  0  0  0  0  0  0
   -4.8538   -1.2660   -3.2135 H   0  0  0  0  0  0  0  0  0  0  0  0
   -3.4649   -0.2848   -3.0246 H   0  0  0  0  0  0  0  0  0  0  0  0
   -5.0191    0.4541   -2.8156 H   0  0  0  0  0  0  0  0  0  0  0  0
   -8.4652   -0.8171   -2.9794 H   0  0  0  0  0  0  0  0  0  0  0  0
   -8.8079    1.5437   -2.9311 H   0  0  0  0  0  0  0  0  0  0  0  0
   -8.5430    1.0981   -0.0775 H   0  0  0  0  0  0  0  0  0  0  0  0
   -7.9357    0.5904    2.2657 H   0  0  0  0  0  0  0  0  0  0  0  0
   -8.5020   -1.0406    1.9876 H   0  0  0  0  0  0  0  0  0  0  0  0
  -10.0142    0.2062    3.9067 H   0  0  0  0  0  0  0  0  0  0  0  0
  -10.6680   -1.2077    3.0023 H   0  0  0  0  0  0  0  0  0  0  0  0
  -11.6736    0.2726    3.2121 H   0  0  0  0  0  0  0  0  0  0  0  0
   -9.4642    2.3355    2.7746 H   0  0  0  0  0  0  0  0  0  0  0  0
  -11.1071    2.4037    2.0542 H   0  0  0  0  0  0  0  0  0  0  0  0
   -9.6600    2.5616    1.0178 H   0  0  0  0  0  0  0  0  0  0  0  0
  1  2  1  0  0  0  0
  1102  1  0  0  0  0
  1103  1  0  0  0  0
  1104  1  0  0  0  0
  2  3  2  0  0  0  0
  2105  1  0  0  0  0
  3  4  1  0  0  0  0
  3  5  1  0  0  0  0
  4106  1  0  0  0  0
  4107  1  0  0  0  0
  4108  1  0  0  0  0
  5  6  2  0  0  0  0
  5  7  1  0  0  0  0
  8  7  1  0  0  0  0
  8  9  1  0  0  0  0
  8109  1  1  0  0  0
  9 10  1  0  0  0  0
  9 17  1  0  0  0  0
  9110  1  6  0  0  0
 10 11  1  0  0  0  0
 11 12  2  0  0  0  0
 11 13  1  0  0  0  0
 13 14  1  0  0  0  0
 13 15  2  0  0  0  0
 14111  1  0  0  0  0
 14112  1  0  0  0  0
 14113  1  0  0  0  0
 15 16  1  0  0  0  0
 15114  1  0  0  0  0
 16115  1  0  0  0  0
 16116  1  0  0  0  0
 16117  1  0  0  0  0
 17 18  1  0  0  0  0
 18 19  1  0  0  0  0
 18 20  1  0  0  0  0
 18118  1  0  0  0  0
 19119  1  0  0  0  0
 20 21  1  0  0  0  0
 20120  1  0  0  0  0
 20121  1  0  0  0  0
 21 22  1  0  0  0  0
 21 23  1  0  0  0  0
 22122  1  0  0  0  0
 22123  1  0  0  0  0
 22124  1  0  0  0  0
 23 24  1  0  0  0  0
 23 94  1  0  0  0  0
 23 97  1  0  0  0  0
 24 25  1  0  0  0  0
 24125  1  0  0  0  0
 24126  1  0  0  0  0
 25127  1  0  0  0  0
 25128  1  0  0  0  0
 26 25  1  0  0  0  0
 26 27  1  0  0  0  0
 26129  1  0  0  0  0
 27 28  1  0  0  0  0
 27 29  1  0  0  0  0
 28130  1  0  0  0  0
 28131  1  0  0  0  0
 28132  1  0  0  0  0
 29 30  1  0  0  0  0
 29133  1  0  0  0  0
 29134  1  0  0  0  0
 30 31  1  0  0  0  0
 30135  1  0  0  0  0
 30136  1  0  0  0  0
 31 32  1  0  0  0  0
 31 86  1  0  0  0  0
 31137  1  0  0  0  0
 33 32  1  0  0  0  0
 33 34  1  0  0  0  0
 33138  1  0  0  0  0
 34 35  1  0  0  0  0
 35 36  1  0  0  0  0
 35 39  1  0  0  0  0
 35139  1  0  0  0  0
 36 37  2  0  0  0  0
 36 38  1  0  0  0  0
 38140  1  0  0  0  0
 39 40  1  0  0  0  0
 39 41  1  0  0  0  0
 39141  1  0  0  0  0
 40142  1  0  0  0  0
 41 42  1  0  0  0  0
 41 73  1  0  0  0  0
 41143  1  0  0  0  0
 43 42  1  0  0  0  0
 43 44  1  0  0  0  0
 43144  1  0  0  0  0
 44 45  1  0  0  0  0
 45 46  1  0  0  0  0
 45 48  1  0  0  0  0
 45145  1  0  0  0  0
 46 47  1  0  0  0  0
 46146  1  0  0  0  0
 46147  1  0  0  0  0
 47148  1  0  0  0  0
 48 49  1  0  0  0  0
 48 50  1  0  0  0  0
 48149  1  0  0  0  0
 49150  1  0  0  0  0
 50 51  1  0  0  0  0
 50 52  1  0  0  0  0
 50151  1  0  0  0  0
 51152  1  0  0  0  0
 52 53  1  0  0  0  0
 52 43  1  0  0  0  0
 52153  1  0  0  0  0
 54 53  1  0  0  0  0
 54 55  1  0  0  0  0
 54154  1  0  0  0  0
 55 56  1  0  0  0  0
 56 57  1  0  0  0  0
 56 58  1  0  0  0  0
 56155  1  0  0  0  0
 57156  1  0  0  0  0
 57157  1  0  0  0  0
 57158  1  0  0  0  0
 58 59  1  0  0  0  0
 58 60  1  0  0  0  0
 58159  1  0  0  0  0
 59160  1  0  0  0  0
 60 61  1  0  0  0  0
 60 62  1  0  0  0  0
 60161  1  0  0  0  0
 61162  1  0  0  0  0
 62 63  1  0  0  0  0
 62 54  1  0  0  0  0
 62163  1  0  0  0  0
 64 63  1  0  0  0  0
 64 65  1  0  0  0  0
 64164  1  0  0  0  0
 65 66  1  0  0  0  0
 66 67  1  0  0  0  0
 66165  1  0  0  0  0
 66166  1  0  0  0  0
 67 68  1  0  0  0  0
 67 69  1  0  0  0  0
 67167  1  0  0  0  0
 68168  1  0  0  0  0
 69 70  1  0  0  0  0
 69 71  1  0  0  0  0
 69169  1  0  0  0  0
 70170  1  0  0  0  0
 71 72  1  0  0  0  0
 71 64  1  0  0  0  0
 71171  1  0  0  0  0
 72172  1  0  0  0  0
 73 74  1  0  0  0  0
 73 33  1  0  0  0  0
 73173  1  0  0  0  0
 75 74  1  0  0  0  0
 75 76  1  0  0  0  0
 75174  1  0  0  0  0
 76 77  1  0  0  0  0
 77 78  1  0  0  0  0
 77 80  1  0  0  0  0
 77175  1  0  0  0  0
 78 79  1  0  0  0  0
 78176  1  0  0  0  0
 78177  1  0  0  0  0
 79178  1  0  0  0  0
 80 81  1  0  0  0  0
 80 82  1  0  0  0  0
 80179  1  0  0  0  0
 81180  1  0  0  0  0
 82 83  1  0  0  0  0
 82 84  1  0  0  0  0
 82181  1  0  0  0  0
 83182  1  0  0  0  0
 84 85  1  0  0  0  0
 84 75  1  0  0  0  0
 84183  1  0  0  0  0
 85184  1  0  0  0  0
 86 87  1  0  0  0  0
 86 88  1  0  0  0  0
 86 89  1  0  0  0  0
 87185  1  0  0  0  0
 87186  1  0  0  0  0
 87187  1  0  0  0  0
 88188  1  0  0  0  0
 88189  1  0  0  0  0
 88190  1  0  0  0  0
 89 90  1  0  0  0  0
 89 27  1  0  0  0  0
 89191  1  0  0  0  0
 90 91  1  0  0  0  0
 90192  1  0  0  0  0
 90193  1  0  0  0  0
 91 92  1  0  0  0  0
 91194  1  0  0  0  0
 91195  1  0  0  0  0
 92 93  1  0  0  0  0
 92 21  1  0  0  0  0
 92 26  1  0  0  0  0
 93196  1  0  0  0  0
 93197  1  0  0  0  0
 93198  1  0  0  0  0
 94 95  1  0  0  0  0
 95 96  1  0  0  0  0
 95 17  1  0  0  0  0
 95199  1  0  0  0  0
 96200  1  0  0  0  0
 97 98  1  0  0  0  0
 97 17  1  0  0  0  0
 97201  1  0  0  0  0
 98 99  1  0  0  0  0
 98202  1  0  0  0  0
 98203  1  0  0  0  0
 99100  1  0  0  0  0
 99101  1  0  0  0  0
 99  8  1  0  0  0  0
100204  1  0  0  0  0
100205  1  0  0  0  0
100206  1  0  0  0  0
101207  1  0  0  0  0
101208  1  0  0  0  0
101209  1  0  0  0  0
M  END
>  <IDENTIFIER>
CNP0264925.3

>  <Energy>
2922.87

$$$$
