
 OpenBabel09042518283D

 40 43  0  0  0  0  0  0  0  0999 V2000
   -6.3964   -0.3358    1.5650 C   0  0  0  0  0  0  0  0  0  0  0  0
   -5.2953   -0.1671    0.5608 C   0  0  0  0  0  0  0  0  0  0  0  0
   -5.5886    0.0127   -0.8179 C   0  0  0  0  0  0  0  0  0  0  0  0
   -4.5499    0.1706   -1.7583 C   0  0  0  0  0  0  0  0  0  0  0  0
   -3.2425    0.1434   -1.2818 C   0  0  0  0  0  0  0  0  0  0  0  0
   -2.0955    0.2696   -1.9655 N   0  0  0  0  0  0  0  0  0  0  0  0
   -1.1290    0.1713   -1.0199 C   0  0  0  0  0  0  0  0  0  0  0  0
    0.3436    0.2624   -1.3044 C   0  0  1  0  0  0  0  0  0  0  0  0
    1.0313    1.3669   -0.5391 C   0  0  0  0  0  0  0  0  0  0  0  0
    2.4799    0.9823   -0.7740 C   0  0  0  0  0  0  0  0  0  0  0  0
    2.5396   -0.4917   -0.6556 N   0  0  0  0  0  0  0  0  0  0  0  0
    3.0658   -0.9301    0.6555 C   0  0  0  0  0  0  0  0  0  0  0  0
    4.5040   -0.5478    0.8338 C   0  0  0  0  0  0  0  0  0  0  0  0
    5.0008    0.2608    1.8481 C   0  0  0  0  0  0  0  0  0  0  0  0
    6.3853    0.4435    1.7746 C   0  0  0  0  0  0  0  0  0  0  0  0
    6.9752   -0.2201    0.7066 C   0  0  0  0  0  0  0  0  0  0  0  0
    5.7768   -1.0353   -0.1501 S   0  0  0  0  0  0  0  0  0  0  0  0
    1.1371   -0.9506   -0.8260 C   0  0  0  0  0  0  0  0  0  0  0  0
   -1.6292   -0.0119    0.2298 N   0  0  0  0  0  0  0  0  0  0  0  0
   -2.9576   -0.0274    0.0404 C   0  0  0  0  0  0  0  0  0  0  0  0
   -3.9535   -0.1872    0.9977 C   0  0  0  0  0  0  0  0  0  0  0  0
   -7.3960   -0.2979    1.0835 H   0  0  0  0  0  0  0  0  0  0  0  0
   -6.3380    0.4751    2.3218 H   0  0  0  0  0  0  0  0  0  0  0  0
   -6.2872   -1.3160    2.0753 H   0  0  0  0  0  0  0  0  0  0  0  0
   -6.6151    0.0307   -1.1613 H   0  0  0  0  0  0  0  0  0  0  0  0
   -4.7627    0.3081   -2.8100 H   0  0  0  0  0  0  0  0  0  0  0  0
   -1.9760    0.4137   -2.9931 H   0  0  0  0  0  0  0  0  0  0  0  0
    0.5298    0.4173   -2.3928 H   0  0  0  0  0  0  0  0  0  0  0  0
    0.8109    1.2685    0.5489 H   0  0  0  0  0  0  0  0  0  0  0  0
    0.7741    2.3942   -0.8746 H   0  0  0  0  0  0  0  0  0  0  0  0
    3.1799    1.5367   -0.1122 H   0  0  0  0  0  0  0  0  0  0  0  0
    2.7461    1.2396   -1.8242 H   0  0  0  0  0  0  0  0  0  0  0  0
    3.0039   -2.0381    0.7267 H   0  0  0  0  0  0  0  0  0  0  0  0
    2.4604   -0.4933    1.4828 H   0  0  0  0  0  0  0  0  0  0  0  0
    4.3835    0.7049    2.6182 H   0  0  0  0  0  0  0  0  0  0  0  0
    6.9417    1.0430    2.4827 H   0  0  0  0  0  0  0  0  0  0  0  0
    8.0302   -0.2127    0.4691 H   0  0  0  0  0  0  0  0  0  0  0  0
    0.7130   -1.2723    0.1555 H   0  0  0  0  0  0  0  0  0  0  0  0
    1.0552   -1.8108   -1.5238 H   0  0  0  0  0  0  0  0  0  0  0  0
   -3.7001   -0.3214    2.0421 H   0  0  0  0  0  0  0  0  0  0  0  0
  1  2  1  0  0  0  0
  1 22  1  0  0  0  0
  1 23  1  0  0  0  0
  1 24  1  0  0  0  0
  2  3  2  0  0  0  0
  3  4  1  0  0  0  0
  3 25  1  0  0  0  0
  4  5  2  0  0  0  0
  4 26  1  0  0  0  0
  5  6  1  0  0  0  0
  6  7  1  0  0  0  0
  6 27  1  0  0  0  0
  7 19  2  0  0  0  0
  8  7  1  0  0  0  0
  8  9  1  0  0  0  0
  8 28  1  6  0  0  0
  9 10  1  0  0  0  0
  9 29  1  0  0  0  0
  9 30  1  0  0  0  0
 10 11  1  0  0  0  0
 10 31  1  0  0  0  0
 10 32  1  0  0  0  0
 11 12  1  0  0  0  0
 11 18  1  0  0  0  0
 12 13  1  0  0  0  0
 12 33  1  0  0  0  0
 12 34  1  0  0  0  0
 13 14  2  0  0  0  0
 14 15  1  0  0  0  0
 14 35  1  0  0  0  0
 15 16  2  0  0  0  0
 15 36  1  0  0  0  0
 16 17  1  0  0  0  0
 16 37  1  0  0  0  0
 17 13  1  0  0  0  0
 18  8  1  0  0  0  0
 18 38  1  0  0  0  0
 18 39  1  0  0  0  0
 19 20  1  0  0  0  0
 20 21  2  0  0  0  0
 20  5  1  0  0  0  0
 21  2  1  0  0  0  0
 21 40  1  0  0  0  0
M  END
>  <IDENTIFIER>
CNP0015903.1

>  <Energy>
540.961

$$$$
