
 OpenBabel09092509363D

 23 22  0  0  0  0  0  0  0  0999 V2000
   -4.0994   -1.6720    0.1748 C   0  0  0  0  0  0  0  0  0  0  0  0
   -4.2158   -0.1912    0.5383 C   0  0  0  0  0  0  0  0  0  0  0  0
   -3.6296    0.7249   -0.5428 C   0  0  0  0  0  0  0  0  0  0  0  0
   -2.1785    0.5413   -0.6685 C   0  0  0  0  0  0  0  0  0  0  0  0
   -0.9826    0.4046   -0.7195 C   0  0  0  0  0  0  0  0  0  0  0  0
    0.4160    0.2299   -0.7644 C   0  0  0  0  0  0  0  0  0  0  0  0
    1.6131    0.0968   -0.7416 C   0  0  0  0  0  0  0  0  0  0  0  0
    3.0488   -0.0088   -0.6986 C   0  0  0  0  0  0  0  0  0  0  0  0
    3.7367    0.7133    0.1997 C   0  0  0  0  0  0  0  0  0  0  0  0
    5.2352    0.6623    0.3558 C   0  0  0  0  0  0  0  0  0  0  0  0
    5.8412   -0.2171   -0.5540 O   0  0  0  0  0  0  0  0  0  0  0  0
   -4.5491   -2.2877    0.9819 H   0  0  0  0  0  0  0  0  0  0  0  0
   -3.0362   -1.9691    0.0566 H   0  0  0  0  0  0  0  0  0  0  0  0
   -4.6431   -1.8756   -0.7723 H   0  0  0  0  0  0  0  0  0  0  0  0
   -3.7026   -0.0030    1.5075 H   0  0  0  0  0  0  0  0  0  0  0  0
   -5.2927    0.0519    0.6639 H   0  0  0  0  0  0  0  0  0  0  0  0
   -3.8132    1.7816   -0.2543 H   0  0  0  0  0  0  0  0  0  0  0  0
   -4.1220    0.5362   -1.5202 H   0  0  0  0  0  0  0  0  0  0  0  0
    3.5432   -0.7014   -1.3718 H   0  0  0  0  0  0  0  0  0  0  0  0
    3.1970    1.3827    0.8657 H   0  0  0  0  0  0  0  0  0  0  0  0
    5.4904    0.3751    1.4013 H   0  0  0  0  0  0  0  0  0  0  0  0
    5.6455    1.6798    0.1886 H   0  0  0  0  0  0  0  0  0  0  0  0
    5.7845   -1.1238   -0.1531 H   0  0  0  0  0  0  0  0  0  0  0  0
  1  2  1  0  0  0  0
  1 12  1  0  0  0  0
  1 13  1  0  0  0  0
  1 14  1  0  0  0  0
  2  3  1  0  0  0  0
  2 15  1  0  0  0  0
  2 16  1  0  0  0  0
  3  4  1  0  0  0  0
  3 17  1  0  0  0  0
  3 18  1  0  0  0  0
  4  5  3  0  0  0  0
  5  6  1  0  0  0  0
  6  7  3  0  0  0  0
  7  8  1  0  0  0  0
  8  9  2  3  0  0  0
  8 19  1  0  0  0  0
  9 10  1  0  0  0  0
  9 20  1  0  0  0  0
 10 11  1  0  0  0  0
 10 21  1  0  0  0  0
 10 22  1  0  0  0  0
 11 23  1  0  0  0  0
M  END
>  <IDENTIFIER>
CNP0140972.0

>  <Energy>
49.0283

$$$$
