
 OpenBabel09082521433D

106111  0  0  0  0  0  0  0  0999 V2000
   13.8464   -2.1741    1.6303 N   0  0  0  0  0  0  0  0  0  0  0  0
   12.9766   -2.1211    2.8012 C   0  0  0  0  0  0  0  0  0  0  0  0
   12.9091   -0.6926    3.3629 C   0  0  0  0  0  0  0  0  0  0  0  0
   12.4450    0.2098    2.4197 O   0  0  0  0  0  0  0  0  0  0  0  0
   11.1886    0.2859    1.9018 C   0  0  0  0  0  0  0  0  0  0  0  0
   10.1154   -0.4728    2.4050 C   0  0  0  0  0  0  0  0  0  0  0  0
    8.8458   -0.3759    1.8346 C   0  0  0  0  0  0  0  0  0  0  0  0
    8.6112    0.4879    0.7497 C   0  0  0  0  0  0  0  0  0  0  0  0
    7.2844    0.6148    0.0817 C   0  0  0  0  0  0  0  0  0  0  0  0
    6.1985   -0.1231    0.3908 C   0  0  0  0  0  0  0  0  0  0  0  0
    4.9203    0.0092   -0.3456 C   0  0  0  0  0  0  0  0  0  0  0  0
    4.8117    0.8405   -1.2320 O   0  0  0  0  0  0  0  0  0  0  0  0
    3.7835   -0.9361   -0.0177 C   0  0  0  0  0  0  0  0  0  0  0  0
    2.6778   -0.8659   -0.9019 O   0  0  0  0  0  0  0  0  0  0  0  0
    1.8096    0.2833   -0.9466 C   0  0  1  0  0  0  0  0  0  0  0  0
    1.9251    1.3438    0.1934 C   0  0  0  0  0  0  0  0  0  0  0  0
    2.6961    1.2167    1.1265 O   0  0  0  0  0  0  0  0  0  0  0  0
    1.1659    2.4608    0.1924 O   0  0  0  0  0  0  0  0  0  0  0  0
    2.0741    0.9870   -2.3486 C   0  0  0  0  0  0  0  0  0  0  0  0
    0.9511    0.8609   -3.4314 C   0  0  1  0  0  0  0  0  0  0  0  0
    0.8037   -0.4652   -3.8736 O   0  0  0  0  0  0  0  0  0  0  0  0
   -0.3648    1.3791   -2.8215 C   0  0  1  0  0  0  0  0  0  0  0  0
   -1.4364    1.3173   -3.7514 O   0  0  0  0  0  0  0  0  0  0  0  0
   -2.6863    1.7602   -3.2074 C   0  0  0  0  0  0  0  0  0  0  0  0
   -3.6141    0.5943   -2.6434 C   0  0  2  0  0  0  0  0  0  0  0  0
   -5.0634    0.8750   -3.1512 C   0  0  0  0  0  0  0  0  0  0  0  0
   -6.0452   -0.3040   -3.0070 C   0  0  0  0  0  0  0  0  0  0  0  0
   -7.4331    0.1374   -3.3969 C   0  0  0  0  0  0  0  0  0  0  0  0
   -8.0409   -0.3293   -4.5741 C   0  0  0  0  0  0  0  0  0  0  0  0
   -9.3268    0.1027   -4.9194 C   0  0  0  0  0  0  0  0  0  0  0  0
  -10.0169    0.9904   -4.0882 C   0  0  0  0  0  0  0  0  0  0  0  0
   -9.4222    1.4517   -2.9118 C   0  0  0  0  0  0  0  0  0  0  0  0
   -8.1350    1.0319   -2.5685 C   0  0  0  0  0  0  0  0  0  0  0  0
   -3.6878    0.5041   -1.0519 C   0  0  0  0  0  0  0  0  0  0  0  0
   -2.4222    0.3855   -0.1127 C   0  0  1  0  0  0  0  0  0  0  0  0
   -2.8178    0.9915    1.2465 C   0  0  0  0  0  0  0  0  0  0  0  0
   -2.2364    2.0013    1.6194 O   0  0  0  0  0  0  0  0  0  0  0  0
   -3.9464    0.5049    2.1118 C   0  0  0  0  0  0  0  0  0  0  0  0
   -4.6368   -0.6400    1.9181 C   0  0  0  0  0  0  0  0  0  0  0  0
   -5.8105   -1.2021    2.6799 C   0  0  0  0  0  0  0  0  0  0  0  0
   -6.1763   -2.5117    2.2922 C   0  0  0  0  0  0  0  0  0  0  0  0
   -7.2616   -3.1811    2.8646 C   0  0  0  0  0  0  0  0  0  0  0  0
   -7.5719   -4.4353    2.4724 O   0  0  0  0  0  0  0  0  0  0  0  0
   -8.0281   -2.5442    3.8434 C   0  0  0  0  0  0  0  0  0  0  0  0
   -9.0875   -3.1573    4.4137 O   0  0  0  0  0  0  0  0  0  0  0  0
   -7.6986   -1.2504    4.2427 C   0  0  0  0  0  0  0  0  0  0  0  0
   -6.5988   -0.5600    3.6913 C   0  0  0  0  0  0  0  0  0  0  0  0
   -6.3611    0.8356    4.2175 C   0  0  0  0  0  0  0  0  0  0  0  0
   -5.1796    0.8852    4.9709 O   0  0  0  0  0  0  0  0  0  0  0  0
   -1.7815   -1.0566    0.1870 C   0  0  0  0  0  0  0  0  0  0  0  0
   -0.2363   -0.8770    0.3797 C   0  0  0  0  0  0  0  0  0  0  0  0
    0.3725   -0.3344   -0.9515 C   0  0  1  0  0  0  0  0  0  0  0  0
   -0.7053    0.5112   -1.6346 C   0  0  1  0  0  0  0  0  0  0  0  0
   -1.4497    1.2382   -0.6875 O   0  0  0  0  0  0  0  0  0  0  0  0
    9.6805    1.2587    0.2596 C   0  0  0  0  0  0  0  0  0  0  0  0
   10.9599    1.1598    0.8287 C   0  0  0  0  0  0  0  0  0  0  0  0
   11.9805    1.8976    0.3432 O   0  0  0  0  0  0  0  0  0  0  0  0
   13.8543   -3.1556    1.2693 H   0  0  0  0  0  0  0  0  0  0  0  0
   14.8227   -1.9336    1.9182 H   0  0  0  0  0  0  0  0  0  0  0  0
   13.3667   -2.8042    3.5877 H   0  0  0  0  0  0  0  0  0  0  0  0
   11.9665   -2.4779    2.5146 H   0  0  0  0  0  0  0  0  0  0  0  0
   13.9353   -0.3882    3.6590 H   0  0  0  0  0  0  0  0  0  0  0  0
   12.2763   -0.6550    4.2754 H   0  0  0  0  0  0  0  0  0  0  0  0
   10.2460   -1.1465    3.2394 H   0  0  0  0  0  0  0  0  0  0  0  0
    8.0647   -0.9871    2.2581 H   0  0  0  0  0  0  0  0  0  0  0  0
    7.2067    1.3353   -0.7290 H   0  0  0  0  0  0  0  0  0  0  0  0
    6.2313   -0.8680    1.1737 H   0  0  0  0  0  0  0  0  0  0  0  0
    3.4704   -0.9174    1.0451 H   0  0  0  0  0  0  0  0  0  0  0  0
    4.1989   -1.9578   -0.1435 H   0  0  0  0  0  0  0  0  0  0  0  0
    0.5511    2.6918   -0.5078 H   0  0  0  0  0  0  0  0  0  0  0  0
    3.0234    0.6336   -2.7989 H   0  0  0  0  0  0  0  0  0  0  0  0
    2.2195    2.0775   -2.1871 H   0  0  0  0  0  0  0  0  0  0  0  0
    1.2102    1.4977   -4.3078 H   0  0  0  0  0  0  0  0  0  0  0  0
    1.6632   -0.7256   -4.2959 H   0  0  0  0  0  0  0  0  0  0  0  0
   -0.1722    2.4346   -2.5339 H   0  0  0  0  0  0  0  0  0  0  0  0
   -3.1736    2.2134   -4.0952 H   0  0  0  0  0  0  0  0  0  0  0  0
   -2.6121    2.6312   -2.5182 H   0  0  0  0  0  0  0  0  0  0  0  0
   -3.3003   -0.3613   -3.1166 H   0  0  0  0  0  0  0  0  0  0  0  0
   -5.0454    1.0962   -4.2420 H   0  0  0  0  0  0  0  0  0  0  0  0
   -5.4502    1.7828   -2.6376 H   0  0  0  0  0  0  0  0  0  0  0  0
   -6.1094   -0.7060   -1.9780 H   0  0  0  0  0  0  0  0  0  0  0  0
   -5.6854   -1.1234   -3.6677 H   0  0  0  0  0  0  0  0  0  0  0  0
   -7.5180   -1.0144   -5.2293 H   0  0  0  0  0  0  0  0  0  0  0  0
   -9.7890   -0.2500   -5.8320 H   0  0  0  0  0  0  0  0  0  0  0  0
  -11.0124    1.3210   -4.3548 H   0  0  0  0  0  0  0  0  0  0  0  0
   -9.9573    2.1354   -2.2652 H   0  0  0  0  0  0  0  0  0  0  0  0
   -7.6866    1.3961   -1.6520 H   0  0  0  0  0  0  0  0  0  0  0  0
   -4.4105   -0.2684   -0.7618 H   0  0  0  0  0  0  0  0  0  0  0  0
   -4.1422    1.4861   -0.7858 H   0  0  0  0  0  0  0  0  0  0  0  0
   -4.1807    1.1617    2.9215 H   0  0  0  0  0  0  0  0  0  0  0  0
   -4.3220   -1.2650    1.1011 H   0  0  0  0  0  0  0  0  0  0  0  0
   -5.6099   -3.0329    1.5285 H   0  0  0  0  0  0  0  0  0  0  0  0
   -7.0602   -4.9089    1.8008 H   0  0  0  0  0  0  0  0  0  0  0  0
   -9.3635   -4.0539    4.1768 H   0  0  0  0  0  0  0  0  0  0  0  0
   -8.3129   -0.7824    5.0030 H   0  0  0  0  0  0  0  0  0  0  0  0
   -7.1998    1.1846    4.8642 H   0  0  0  0  0  0  0  0  0  0  0  0
   -6.3337    1.5635    3.3801 H   0  0  0  0  0  0  0  0  0  0  0  0
   -5.3821    0.4611    5.8456 H   0  0  0  0  0  0  0  0  0  0  0  0
   -1.9357   -1.7546   -0.6641 H   0  0  0  0  0  0  0  0  0  0  0  0
   -2.2132   -1.5520    1.0765 H   0  0  0  0  0  0  0  0  0  0  0  0
    0.2742   -1.8180    0.6761 H   0  0  0  0  0  0  0  0  0  0  0  0
   -0.1008   -0.1395    1.2000 H   0  0  0  0  0  0  0  0  0  0  0  0
    0.4667   -1.2242   -1.6201 H   0  0  0  0  0  0  0  0  0  0  0  0
   -1.3125   -0.2874   -2.1220 H   0  0  0  0  0  0  0  0  0  0  0  0
    9.5251    1.9325   -0.5751 H   0  0  0  0  0  0  0  0  0  0  0  0
   11.8681    2.5099   -0.3980 H   0  0  0  0  0  0  0  0  0  0  0  0
  1  2  1  0  0  0  0
  1 58  1  0  0  0  0
  1 59  1  0  0  0  0
  2  3  1  0  0  0  0
  2 60  1  0  0  0  0
  2 61  1  0  0  0  0
  3  4  1  0  0  0  0
  3 62  1  0  0  0  0
  3 63  1  0  0  0  0
  4  5  1  0  0  0  0
  5  6  2  0  0  0  0
  6  7  1  0  0  0  0
  6 64  1  0  0  0  0
  7  8  2  0  0  0  0
  7 65  1  0  0  0  0
  8  9  1  0  0  0  0
  8 55  1  0  0  0  0
  9 10  2  0  0  0  0
  9 66  1  0  0  0  0
 10 11  1  0  0  0  0
 10 67  1  0  0  0  0
 11 12  2  0  0  0  0
 11 13  1  0  0  0  0
 13 14  1  0  0  0  0
 13 68  1  0  0  0  0
 13 69  1  0  0  0  0
 15 14  1  1  0  0  0
 15 16  1  0  0  0  0
 15 19  1  0  0  0  0
 16 17  2  0  0  0  0
 16 18  1  0  0  0  0
 18 70  1  0  0  0  0
 19 20  1  0  0  0  0
 19 71  1  0  0  0  0
 19 72  1  0  0  0  0
 20 21  1  0  0  0  0
 20 22  1  0  0  0  0
 20 73  1  6  0  0  0
 21 74  1  0  0  0  0
 22 23  1  0  0  0  0
 22 75  1  1  0  0  0
 23 24  1  0  0  0  0
 24 25  1  0  0  0  0
 24 76  1  0  0  0  0
 24 77  1  0  0  0  0
 25 26  1  0  0  0  0
 25 34  1  0  0  0  0
 25 78  1  6  0  0  0
 26 27  1  0  0  0  0
 26 79  1  0  0  0  0
 26 80  1  0  0  0  0
 27 28  1  0  0  0  0
 27 81  1  0  0  0  0
 27 82  1  0  0  0  0
 28 29  2  0  0  0  0
 29 30  1  0  0  0  0
 29 83  1  0  0  0  0
 30 31  2  0  0  0  0
 30 84  1  0  0  0  0
 31 32  1  0  0  0  0
 31 85  1  0  0  0  0
 32 33  2  0  0  0  0
 32 86  1  0  0  0  0
 33 28  1  0  0  0  0
 33 87  1  0  0  0  0
 34 35  1  0  0  0  0
 34 88  1  0  0  0  0
 34 89  1  0  0  0  0
 35 36  1  1  0  0  0
 35 50  1  0  0  0  0
 36 37  2  0  0  0  0
 36 38  1  0  0  0  0
 38 39  2  0  0  0  0
 38 90  1  0  0  0  0
 39 40  1  0  0  0  0
 39 91  1  0  0  0  0
 40 41  2  0  0  0  0
 41 42  1  0  0  0  0
 41 92  1  0  0  0  0
 42 43  1  0  0  0  0
 42 44  2  0  0  0  0
 43 93  1  0  0  0  0
 44 45  1  0  0  0  0
 44 46  1  0  0  0  0
 45 94  1  0  0  0  0
 46 47  2  0  0  0  0
 46 95  1  0  0  0  0
 47 48  1  0  0  0  0
 47 40  1  0  0  0  0
 48 49  1  0  0  0  0
 48 96  1  0  0  0  0
 48 97  1  0  0  0  0
 49 98  1  0  0  0  0
 50 51  1  0  0  0  0
 50 99  1  0  0  0  0
 50100  1  0  0  0  0
 51101  1  0  0  0  0
 51102  1  0  0  0  0
 52 51  1  0  0  0  0
 52 53  1  0  0  0  0
 52 15  1  0  0  0  0
 52103  1  6  0  0  0
 53 54  1  0  0  0  0
 53 22  1  0  0  0  0
 53104  1  6  0  0  0
 54 35  1  0  0  0  0
 55 56  2  0  0  0  0
 55105  1  0  0  0  0
 56 57  1  0  0  0  0
 56  5  1  0  0  0  0
 57106  1  0  0  0  0
M  END
>  <IDENTIFIER>
CNP0327018.1

>  <Energy>
1369.67

$$$$
