
 OpenBabel09082509173D

 98106  0  0  0  0  0  0  0  0999 V2000
   -2.6208    4.4806   -3.1526 C   0  0  0  0  0  0  0  0  0  0  0  0
   -3.2385    4.1965   -1.7792 C   0  0  0  0  0  0  0  0  0  0  0  0
   -2.8672    5.2810   -0.7579 C   0  0  0  0  0  0  0  0  0  0  0  0
   -2.8624    2.8094   -1.2742 C   0  0  0  0  0  0  0  0  0  0  0  0
   -3.8889    1.8627   -1.0816 C   0  0  0  0  0  0  0  0  0  0  0  0
   -3.5921    0.5884   -0.5867 C   0  0  0  0  0  0  0  0  0  0  0  0
   -2.2758    0.2283   -0.2806 C   0  0  0  0  0  0  0  0  0  0  0  0
   -1.9877   -1.1930    0.1732 C   0  0  0  0  0  0  0  0  0  0  0  0
   -3.2735   -2.1149    0.2125 C   0  0  1  0  0  0  0  0  0  0  0  0
   -2.7679   -3.5776    0.0785 C   0  0  0  0  0  0  0  0  0  0  0  0
   -3.8596   -4.6372    0.1939 C   0  0  0  0  0  0  0  0  0  0  0  0
   -4.6083   -4.4646    1.5191 C   0  0  0  0  0  0  0  0  0  0  0  0
   -5.2814   -3.0724    1.6099 C   0  0  0  0  0  0  0  0  0  0  0  0
   -5.9425   -2.9532    3.0042 C   0  0  0  0  0  0  0  0  0  0  0  0
   -6.4286   -2.9880    0.5550 C   0  0  0  0  0  0  0  0  0  0  0  0
   -4.1557   -1.9558    1.4730 C   0  0  2  0  0  0  0  0  0  0  0  0
   -4.7496   -0.5883    1.2265 C   0  0  0  0  0  0  0  0  0  0  0  0
   -4.6386   -0.4559   -0.3161 C   0  0  2  0  0  0  0  0  0  0  0  0
   -4.1330   -1.6944   -0.8270 O   0  0  0  0  0  0  0  0  0  0  0  0
   -1.2461    1.1517   -0.4879 C   0  0  0  0  0  0  0  0  0  0  0  0
   -1.5262    2.4358   -0.9791 C   0  0  0  0  0  0  0  0  0  0  0  0
   -0.4929    3.3074   -1.1365 O   0  0  0  0  0  0  0  0  0  0  0  0
    0.8632    2.9988   -0.9903 C   0  0  1  0  0  0  0  0  0  0  0  0
    1.5938    3.5947   -2.2604 C   0  0  0  0  0  0  0  0  0  0  0  0
    1.4345    5.1275   -2.3435 C   0  0  0  0  0  0  0  0  0  0  0  0
    3.0907    3.2566   -2.4007 C   0  0  0  0  0  0  0  0  0  0  0  0
    1.3875    3.6539    0.2720 C   0  0  0  0  0  0  0  0  0  0  0  0
    0.8177    4.6211    0.7582 O   0  0  0  0  0  0  0  0  0  0  0  0
    2.6526    3.1691    0.8509 C   0  0  0  0  0  0  0  0  0  0  0  0
    3.2501    3.8391    1.6801 O   0  0  0  0  0  0  0  0  0  0  0  0
    3.1383    1.8169    0.4873 C   0  0  0  0  0  0  0  0  0  0  0  0
    2.3818    1.0036   -0.2915 C   0  0  0  0  0  0  0  0  0  0  0  0
    2.8796   -0.4135   -0.4410 C   0  0  2  0  0  0  0  0  0  0  0  0
    2.7679   -1.0947    0.9561 C   0  0  0  0  0  0  0  0  0  0  0  0
    4.2208   -1.2481    1.3510 C   0  0  1  0  0  0  0  0  0  0  0  0
    4.7769   -2.7036    1.0371 C   0  0  0  0  0  0  0  0  0  0  0  0
    4.2777   -3.6754    2.1335 C   0  0  0  0  0  0  0  0  0  0  0  0
    4.3314   -3.2953   -0.3350 C   0  0  0  0  0  0  0  0  0  0  0  0
    6.3258   -2.6716    1.0997 C   0  0  0  0  0  0  0  0  0  0  0  0
    6.9064   -1.6486    0.1177 C   0  0  0  0  0  0  0  0  0  0  0  0
    6.4012   -0.2532    0.4760 C   0  0  0  0  0  0  0  0  0  0  0  0
    4.8560   -0.1342    0.4897 C   0  0  2  0  0  0  0  0  0  0  0  0
    4.4993    1.3274    0.9793 C   0  0  0  0  0  0  0  0  0  0  0  0
    4.2637   -0.3267   -0.7759 O   0  0  0  0  0  0  0  0  0  0  0  0
    1.0637    1.4383   -0.9095 C   0  0  1  0  0  0  0  0  0  0  0  0
    0.0351    0.8233   -0.2282 O   0  0  0  0  0  0  0  0  0  0  0  0
   -2.9436    5.4805   -3.5145 H   0  0  0  0  0  0  0  0  0  0  0  0
   -2.9622    3.7187   -3.8844 H   0  0  0  0  0  0  0  0  0  0  0  0
   -1.5165    4.4613   -3.1195 H   0  0  0  0  0  0  0  0  0  0  0  0
   -4.3423    4.2518   -1.9123 H   0  0  0  0  0  0  0  0  0  0  0  0
   -1.7732    5.3375   -0.5899 H   0  0  0  0  0  0  0  0  0  0  0  0
   -3.3657    5.0708    0.2131 H   0  0  0  0  0  0  0  0  0  0  0  0
   -3.2118    6.2745   -1.1150 H   0  0  0  0  0  0  0  0  0  0  0  0
   -4.9193    2.1179   -1.2961 H   0  0  0  0  0  0  0  0  0  0  0  0
   -1.4467   -1.2284    1.1434 H   0  0  0  0  0  0  0  0  0  0  0  0
   -1.3037   -1.5823   -0.6138 H   0  0  0  0  0  0  0  0  0  0  0  0
   -2.0382   -3.7667    0.8987 H   0  0  0  0  0  0  0  0  0  0  0  0
   -2.2350   -3.7152   -0.8875 H   0  0  0  0  0  0  0  0  0  0  0  0
   -3.3891   -5.6438    0.1669 H   0  0  0  0  0  0  0  0  0  0  0  0
   -4.5462   -4.5784   -0.6728 H   0  0  0  0  0  0  0  0  0  0  0  0
   -3.8796   -4.5852    2.3528 H   0  0  0  0  0  0  0  0  0  0  0  0
   -5.3679   -5.2710    1.6197 H   0  0  0  0  0  0  0  0  0  0  0  0
   -6.6938   -3.7587    3.1545 H   0  0  0  0  0  0  0  0  0  0  0  0
   -6.4624   -1.9813    3.1292 H   0  0  0  0  0  0  0  0  0  0  0  0
   -5.1825   -3.0416    3.8101 H   0  0  0  0  0  0  0  0  0  0  0  0
   -7.1553   -3.8138    0.7159 H   0  0  0  0  0  0  0  0  0  0  0  0
   -6.0827   -3.0653   -0.4905 H   0  0  0  0  0  0  0  0  0  0  0  0
   -6.9984   -2.0413    0.6419 H   0  0  0  0  0  0  0  0  0  0  0  0
   -3.5334   -2.0025    2.3956 H   0  0  0  0  0  0  0  0  0  0  0  0
   -4.1136    0.1712    1.7383 H   0  0  0  0  0  0  0  0  0  0  0  0
   -5.7669   -0.4354    1.6373 H   0  0  0  0  0  0  0  0  0  0  0  0
   -5.6290   -0.1938   -0.7476 H   0  0  0  0  0  0  0  0  0  0  0  0
    1.0895    3.1628   -3.1541 H   0  0  0  0  0  0  0  0  0  0  0  0
    1.9676    5.6281   -1.5077 H   0  0  0  0  0  0  0  0  0  0  0  0
    0.3694    5.4266   -2.3041 H   0  0  0  0  0  0  0  0  0  0  0  0
    1.8576    5.5068   -3.2982 H   0  0  0  0  0  0  0  0  0  0  0  0
    3.6852    3.6808   -1.5668 H   0  0  0  0  0  0  0  0  0  0  0  0
    3.4851    3.6843   -3.3474 H   0  0  0  0  0  0  0  0  0  0  0  0
    3.2534    2.1628   -2.4621 H   0  0  0  0  0  0  0  0  0  0  0  0
    2.2994   -0.9914   -1.1917 H   0  0  0  0  0  0  0  0  0  0  0  0
    2.1691   -2.0264    0.9902 H   0  0  0  0  0  0  0  0  0  0  0  0
    2.2749   -0.4130    1.6875 H   0  0  0  0  0  0  0  0  0  0  0  0
    4.4065   -1.0541    2.4321 H   0  0  0  0  0  0  0  0  0  0  0  0
    3.1708   -3.7504    2.1381 H   0  0  0  0  0  0  0  0  0  0  0  0
    4.6014   -3.3324    3.1404 H   0  0  0  0  0  0  0  0  0  0  0  0
    4.6897   -4.6957    1.9755 H   0  0  0  0  0  0  0  0  0  0  0  0
    3.2318   -3.4257   -0.3884 H   0  0  0  0  0  0  0  0  0  0  0  0
    4.7762   -4.3040   -0.4771 H   0  0  0  0  0  0  0  0  0  0  0  0
    4.6323   -2.6827   -1.2026 H   0  0  0  0  0  0  0  0  0  0  0  0
    6.7432   -3.6779    0.8747 H   0  0  0  0  0  0  0  0  0  0  0  0
    6.6572   -2.3943    2.1259 H   0  0  0  0  0  0  0  0  0  0  0  0
    6.6454   -1.8967   -0.9301 H   0  0  0  0  0  0  0  0  0  0  0  0
    8.0155   -1.6601    0.1887 H   0  0  0  0  0  0  0  0  0  0  0  0
    6.8339    0.4813   -0.2377 H   0  0  0  0  0  0  0  0  0  0  0  0
    6.7828   -0.0069    1.4926 H   0  0  0  0  0  0  0  0  0  0  0  0
    5.2136    2.0447    0.5185 H   0  0  0  0  0  0  0  0  0  0  0  0
    4.6055    1.4011    2.0830 H   0  0  0  0  0  0  0  0  0  0  0  0
    1.0141    1.0675   -1.9584 H   0  0  0  0  0  0  0  0  0  0  0  0
  1  2  1  0  0  0  0
  1 47  1  0  0  0  0
  1 48  1  0  0  0  0
  1 49  1  0  0  0  0
  2  3  1  0  0  0  0
  2  4  1  0  0  0  0
  2 50  1  0  0  0  0
  3 51  1  0  0  0  0
  3 52  1  0  0  0  0
  3 53  1  0  0  0  0
  4  5  2  0  0  0  0
  5  6  1  0  0  0  0
  5 54  1  0  0  0  0
  6  7  2  0  0  0  0
  7  8  1  0  0  0  0
  7 20  1  0  0  0  0
  8 55  1  0  0  0  0
  8 56  1  0  0  0  0
  9  8  1  0  0  0  0
  9 10  1  0  0  0  0
  9 19  1  6  0  0  0
 10 11  1  0  0  0  0
 10 57  1  0  0  0  0
 10 58  1  0  0  0  0
 11 12  1  0  0  0  0
 11 59  1  0  0  0  0
 11 60  1  0  0  0  0
 12 13  1  0  0  0  0
 12 61  1  0  0  0  0
 12 62  1  0  0  0  0
 13 14  1  0  0  0  0
 13 15  1  0  0  0  0
 13 16  1  0  0  0  0
 14 63  1  0  0  0  0
 14 64  1  0  0  0  0
 14 65  1  0  0  0  0
 15 66  1  0  0  0  0
 15 67  1  0  0  0  0
 15 68  1  0  0  0  0
 16 17  1  0  0  0  0
 16  9  1  0  0  0  0
 16 69  1  1  0  0  0
 17 70  1  0  0  0  0
 17 71  1  0  0  0  0
 18 17  1  0  0  0  0
 18 19  1  0  0  0  0
 18  6  1  0  0  0  0
 18 72  1  6  0  0  0
 20 21  2  0  0  0  0
 21 22  1  0  0  0  0
 21  4  1  0  0  0  0
 22 23  1  0  0  0  0
 23 24  1  6  0  0  0
 23 27  1  0  0  0  0
 24 25  1  0  0  0  0
 24 26  1  0  0  0  0
 24 73  1  0  0  0  0
 25 74  1  0  0  0  0
 25 75  1  0  0  0  0
 25 76  1  0  0  0  0
 26 77  1  0  0  0  0
 26 78  1  0  0  0  0
 26 79  1  0  0  0  0
 27 28  2  0  0  0  0
 27 29  1  0  0  0  0
 29 30  2  0  0  0  0
 29 31  1  0  0  0  0
 31 32  2  0  0  0  0
 32 33  1  0  0  0  0
 32 45  1  0  0  0  0
 33 34  1  0  0  0  0
 33 80  1  6  0  0  0
 34 81  1  0  0  0  0
 34 82  1  0  0  0  0
 35 34  1  0  0  0  0
 35 36  1  0  0  0  0
 35 83  1  1  0  0  0
 36 37  1  0  0  0  0
 36 38  1  0  0  0  0
 36 39  1  0  0  0  0
 37 84  1  0  0  0  0
 37 85  1  0  0  0  0
 37 86  1  0  0  0  0
 38 87  1  0  0  0  0
 38 88  1  0  0  0  0
 38 89  1  0  0  0  0
 39 40  1  0  0  0  0
 39 90  1  0  0  0  0
 39 91  1  0  0  0  0
 40 41  1  0  0  0  0
 40 92  1  0  0  0  0
 40 93  1  0  0  0  0
 41 94  1  0  0  0  0
 41 95  1  0  0  0  0
 42 41  1  0  0  0  0
 42 43  1  0  0  0  0
 42 44  1  6  0  0  0
 42 35  1  0  0  0  0
 43 31  1  0  0  0  0
 43 96  1  0  0  0  0
 43 97  1  0  0  0  0
 44 33  1  0  0  0  0
 45 46  1  0  0  0  0
 45 23  1  0  0  0  0
 45 98  1  6  0  0  0
 46 20  1  0  0  0  0
M  END
>  <IDENTIFIER>
CNP0155373.1

>  <Energy>
1108.38

$$$$
