
 OpenBabel09112515023D

 66 66  0  0  0  0  0  0  0  0999 V2000
   -5.6134   -2.3055    1.1000 C   0  0  0  0  0  0  0  0  0  0  0  0
   -4.5735   -1.8677    0.3630 C   0  0  0  0  0  0  0  0  0  0  0  0
   -4.3161   -0.3760    0.2831 C   0  0  0  0  0  0  0  0  0  0  0  0
   -4.4385    0.2289   -1.1245 C   0  0  0  0  0  0  0  0  0  0  0  0
   -3.8245    1.6003   -1.0498 C   0  0  0  0  0  0  0  0  0  0  0  0
   -2.7294    1.9005   -1.7653 C   0  0  0  0  0  0  0  0  0  0  0  0
   -1.9289    3.1575   -1.5242 C   0  0  2  0  0  0  0  0  0  0  0  0
   -0.8483    3.2231   -2.4266 O   0  0  0  0  0  0  0  0  0  0  0  0
   -1.4774    3.2444   -0.0209 C   0  0  2  0  0  0  0  0  0  0  0  0
   -0.5664    4.4540    0.2207 C   0  0  0  0  0  0  0  0  0  0  0  0
   -0.8638    1.9845    0.6060 C   0  0  0  0  0  0  0  0  0  0  0  0
   -0.4816    0.8624   -0.0429 C   0  0  0  0  0  0  0  0  0  0  0  0
    0.0091   -0.3780    0.6684 C   0  0  2  0  0  0  0  0  0  0  0  0
    1.4519   -0.7858    0.2411 C   0  0  2  0  0  0  0  0  0  0  0  0
    1.6568   -2.1320    0.6045 O   0  0  0  0  0  0  0  0  0  0  0  0
    2.6204    0.0749    0.8349 C   0  0  2  0  0  0  0  0  0  0  0  0
    2.5264    1.5756    0.5103 C   0  0  0  0  0  0  0  0  0  0  0  0
    3.9546   -0.5346    0.4043 C   0  0  0  0  0  0  0  0  0  0  0  0
    4.9436    0.1100   -0.2457 C   0  0  0  0  0  0  0  0  0  0  0  0
    6.2331   -0.5837   -0.6032 C   0  0  0  0  0  0  0  0  0  0  0  0
    7.4338    0.0781    0.0862 C   0  0  0  0  0  0  0  0  0  0  0  0
    7.3647   -0.0426    1.6101 C   0  0  0  0  0  0  0  0  0  0  0  0
   -0.8644   -1.4080    0.3199 O   0  0  0  0  0  0  0  0  0  0  0  0
   -1.6168   -2.1503    1.1876 C   0  0  0  0  0  0  0  0  0  0  0  0
   -1.5835   -1.9284    2.3879 O   0  0  0  0  0  0  0  0  0  0  0  0
   -2.4743   -3.2856    0.6718 C   0  0  0  0  0  0  0  0  0  0  0  0
   -3.5837   -2.8334   -0.3077 C   0  0  1  0  0  0  0  0  0  0  0  0
   -4.2832   -4.0646   -0.9161 C   0  0  0  0  0  0  0  0  0  0  0  0
   -6.2846   -1.6065    1.5902 H   0  0  0  0  0  0  0  0  0  0  0  0
   -5.8307   -3.3580    1.2285 H   0  0  0  0  0  0  0  0  0  0  0  0
   -3.2898   -0.2155    0.6713 H   0  0  0  0  0  0  0  0  0  0  0  0
   -4.9969    0.1937    0.9558 H   0  0  0  0  0  0  0  0  0  0  0  0
   -5.5016    0.2718   -1.4381 H   0  0  0  0  0  0  0  0  0  0  0  0
   -3.8828   -0.3853   -1.8624 H   0  0  0  0  0  0  0  0  0  0  0  0
   -4.2187    2.3058   -0.3241 H   0  0  0  0  0  0  0  0  0  0  0  0
   -2.3405    1.1783   -2.4787 H   0  0  0  0  0  0  0  0  0  0  0  0
   -2.5706    4.0424   -1.7347 H   0  0  0  0  0  0  0  0  0  0  0  0
   -0.0859    2.7082   -2.0628 H   0  0  0  0  0  0  0  0  0  0  0  0
   -2.4088    3.4153    0.5606 H   0  0  0  0  0  0  0  0  0  0  0  0
    0.3985    4.3327   -0.3163 H   0  0  0  0  0  0  0  0  0  0  0  0
   -0.3515    4.5661    1.3049 H   0  0  0  0  0  0  0  0  0  0  0  0
   -1.0593    5.3843   -0.1339 H   0  0  0  0  0  0  0  0  0  0  0  0
   -0.7580    2.0041    1.6874 H   0  0  0  0  0  0  0  0  0  0  0  0
   -0.5443    0.7807   -1.1163 H   0  0  0  0  0  0  0  0  0  0  0  0
    0.0104   -0.2291    1.7712 H   0  0  0  0  0  0  0  0  0  0  0  0
    1.5028   -0.7495   -0.8703 H   0  0  0  0  0  0  0  0  0  0  0  0
    1.5862   -2.1920    1.5937 H   0  0  0  0  0  0  0  0  0  0  0  0
    2.5821   -0.0119    1.9430 H   0  0  0  0  0  0  0  0  0  0  0  0
    2.5069    1.7489   -0.5866 H   0  0  0  0  0  0  0  0  0  0  0  0
    3.3875    2.1160    0.9589 H   0  0  0  0  0  0  0  0  0  0  0  0
    1.6388    2.0265    0.9780 H   0  0  0  0  0  0  0  0  0  0  0  0
    4.1171   -1.5766    0.6661 H   0  0  0  0  0  0  0  0  0  0  0  0
    4.8543    1.1531   -0.5259 H   0  0  0  0  0  0  0  0  0  0  0  0
    6.3649   -0.5208   -1.7043 H   0  0  0  0  0  0  0  0  0  0  0  0
    6.2085   -1.6603   -0.3243 H   0  0  0  0  0  0  0  0  0  0  0  0
    7.4907    1.1512   -0.1994 H   0  0  0  0  0  0  0  0  0  0  0  0
    8.3623   -0.4242   -0.2615 H   0  0  0  0  0  0  0  0  0  0  0  0
    6.4652    0.4738    2.0070 H   0  0  0  0  0  0  0  0  0  0  0  0
    8.2647    0.4246    2.0619 H   0  0  0  0  0  0  0  0  0  0  0  0
    7.3315   -1.1120    1.9095 H   0  0  0  0  0  0  0  0  0  0  0  0
   -2.9447   -3.8187    1.5276 H   0  0  0  0  0  0  0  0  0  0  0  0
   -1.7950   -3.9988    0.1559 H   0  0  0  0  0  0  0  0  0  0  0  0
   -3.0796   -2.3118   -1.1461 H   0  0  0  0  0  0  0  0  0  0  0  0
   -4.7323   -4.7084   -0.1304 H   0  0  0  0  0  0  0  0  0  0  0  0
   -3.5467   -4.6898   -1.4644 H   0  0  0  0  0  0  0  0  0  0  0  0
   -5.0769   -3.7525   -1.6266 H   0  0  0  0  0  0  0  0  0  0  0  0
  1  2  2  0  0  0  0
  1 29  1  0  0  0  0
  1 30  1  0  0  0  0
  2  3  1  0  0  0  0
  3  4  1  0  0  0  0
  3 31  1  0  0  0  0
  3 32  1  0  0  0  0
  4  5  1  0  0  0  0
  4 33  1  0  0  0  0
  4 34  1  0  0  0  0
  5  6  2  0  0  0  0
  5 35  1  0  0  0  0
  6  7  1  0  0  0  0
  6 36  1  0  0  0  0
  7  8  1  0  0  0  0
  7  9  1  0  0  0  0
  7 37  1  6  0  0  0
  8 38  1  0  0  0  0
  9 10  1  0  0  0  0
  9 11  1  0  0  0  0
  9 39  1  1  0  0  0
 10 40  1  0  0  0  0
 10 41  1  0  0  0  0
 10 42  1  0  0  0  0
 11 12  2  0  0  0  0
 11 43  1  0  0  0  0
 12 13  1  0  0  0  0
 12 44  1  0  0  0  0
 13 14  1  0  0  0  0
 13 23  1  0  0  0  0
 13 45  1  1  0  0  0
 14 15  1  0  0  0  0
 14 16  1  0  0  0  0
 14 46  1  6  0  0  0
 15 47  1  0  0  0  0
 16 17  1  0  0  0  0
 16 18  1  0  0  0  0
 16 48  1  1  0  0  0
 17 49  1  0  0  0  0
 17 50  1  0  0  0  0
 17 51  1  0  0  0  0
 18 19  2  0  0  0  0
 18 52  1  0  0  0  0
 19 20  1  0  0  0  0
 19 53  1  0  0  0  0
 20 21  1  0  0  0  0
 20 54  1  0  0  0  0
 20 55  1  0  0  0  0
 21 22  1  0  0  0  0
 21 56  1  0  0  0  0
 21 57  1  0  0  0  0
 22 58  1  0  0  0  0
 22 59  1  0  0  0  0
 22 60  1  0  0  0  0
 23 24  1  0  0  0  0
 24 25  2  0  0  0  0
 24 26  1  0  0  0  0
 26 27  1  0  0  0  0
 26 61  1  0  0  0  0
 26 62  1  0  0  0  0
 27 28  1  0  0  0  0
 27  2  1  0  0  0  0
 27 63  1  6  0  0  0
 28 64  1  0  0  0  0
 28 65  1  0  0  0  0
 28 66  1  0  0  0  0
M  END
>  <IDENTIFIER>
CNP0102613.1

>  <Energy>
328.711

$$$$
