
 OpenBabel09072522573D

128132  0  0  0  0  0  0  0  0999 V2000
   -1.3832   -3.8274    0.7154 C   0  0  0  0  0  0  0  0  0  0  0  0
   -1.6012   -2.3187    0.8289 C   0  0  0  0  0  0  0  0  0  0  0  0
   -2.1410   -1.6492   -0.4716 C   0  0  2  0  0  0  0  0  0  0  0  0
   -1.2361   -1.8485   -1.7443 C   0  0  0  0  0  0  0  0  0  0  0  0
    0.0859   -1.0252   -1.8842 C   0  0  0  0  0  0  0  0  0  0  0  0
    1.3038   -1.4461   -1.0080 C   0  0  1  0  0  0  0  0  0  0  0  0
    1.7344   -2.8719   -1.4023 C   0  0  0  0  0  0  0  0  0  0  0  0
    2.5071   -0.4373   -1.1721 C   0  0  1  0  0  0  0  0  0  0  0  0
    2.1327    1.0653   -0.9387 C   0  0  1  0  0  0  0  0  0  0  0  0
    1.3121    1.1863    0.1963 O   0  0  0  0  0  0  0  0  0  0  0  0
    3.4888    1.8083   -0.7285 C   0  0  1  0  0  0  0  0  0  0  0  0
    3.4863    2.6343    0.4139 O   0  0  0  0  0  0  0  0  0  0  0  0
    4.5541    0.6899   -0.7222 C   0  0  2  0  0  0  0  0  0  0  0  0
    3.8112   -0.6090   -0.2992 C   0  0  1  0  0  0  0  0  0  0  0  0
    3.4524   -0.7303    1.2174 C   0  0  0  0  0  0  0  0  0  0  0  0
    4.7457   -1.7976   -0.6784 C   0  0  0  0  0  0  0  0  0  0  0  0
    6.1416   -1.6705   -0.0327 C   0  0  0  0  0  0  0  0  0  0  0  0
    6.8424   -0.3550   -0.4672 C   0  0  2  0  0  0  0  0  0  0  0  0
    8.3498   -0.2556    0.0002 C   0  0  1  0  0  0  0  0  0  0  0  0
    8.4639   -0.2805    1.5609 C   0  0  0  0  0  0  0  0  0  0  0  0
    9.1697   -1.4690   -0.6063 C   0  0  0  0  0  0  0  0  0  0  0  0
   10.5568   -1.1016   -1.2035 C   0  0  0  0  0  0  0  0  0  0  0  0
   11.2961   -0.0969   -0.3202 C   0  0  2  0  0  0  0  0  0  0  0  0
   11.5289   -0.6651    0.9423 O   0  0  0  0  0  0  0  0  0  0  0  0
   10.4646    1.2184   -0.1951 C   0  0  0  0  0  0  0  0  0  0  0  0
    8.9559    1.0592   -0.5777 C   0  0  2  0  0  0  0  0  0  0  0  0
    8.1203    2.3212   -0.2338 C   0  0  1  0  0  0  0  0  0  0  0  0
    8.6898    3.4715   -0.8114 O   0  0  0  0  0  0  0  0  0  0  0  0
    6.6622    2.1577   -0.7232 C   0  0  0  0  0  0  0  0  0  0  0  0
    5.9697    0.9065   -0.1018 C   0  0  1  0  0  0  0  0  0  0  0  0
    5.8564    1.0328    1.2959 O   0  0  0  0  0  0  0  0  0  0  0  0
   -2.5233   -0.1381   -0.2418 C   0  0  1  0  0  0  0  0  0  0  0  0
   -3.2146    0.4786   -1.4759 C   0  0  0  0  0  0  0  0  0  0  0  0
   -3.4364    0.0856    0.9837 C   0  0  0  0  0  0  0  0  0  0  0  0
   -4.6287   -0.6743    0.8856 O   0  0  0  0  0  0  0  0  0  0  0  0
   -5.4109   -0.5032    2.0572 C   0  0  2  0  0  0  0  0  0  0  0  0
   -5.4223   -1.7240    2.7878 O   0  0  0  0  0  0  0  0  0  0  0  0
   -6.1194   -1.5732    4.0183 C   0  0  0  0  0  0  0  0  0  0  0  0
   -7.5891   -1.1459    3.7981 C   0  0  1  0  0  0  0  0  0  0  0  0
   -8.2569   -0.9772    5.0233 O   0  0  0  0  0  0  0  0  0  0  0  0
   -7.6236    0.1410    2.9551 C   0  0  2  0  0  0  0  0  0  0  0  0
   -8.9580    0.5218    2.6825 O   0  0  0  0  0  0  0  0  0  0  0  0
   -9.2032    2.1495    3.2439 S   0  0  0  0  0  0  0  0  0  0  0  0
  -10.6517    2.5696    2.9630 O   0  0  0  0  0  0  0  0  0  0  0  0
   -9.0971    2.1914    4.7764 O   0  0  0  0  0  0  0  0  0  0  0  0
   -8.1511    3.3319    2.5738 O   0  5  0  0  0  0  0  0  0  0  0  0
   -6.8546   -0.1391    1.6541 C   0  0  1  0  0  0  0  0  0  0  0  0
   -6.8879    1.0003    0.7926 O   0  0  0  0  0  0  0  0  0  0  0  0
   -7.6173    0.7262   -0.4030 C   0  0  2  0  0  0  0  0  0  0  0  0
   -6.6788    0.3652   -1.4236 O   0  0  0  0  0  0  0  0  0  0  0  0
   -7.2763    0.4285   -2.7002 C   0  0  0  0  0  0  0  0  0  0  0  0
   -7.5347    1.8993   -3.1143 C   0  0  1  0  0  0  0  0  0  0  0  0
   -8.5602    1.9549   -4.0764 O   0  0  0  0  0  0  0  0  0  0  0  0
   -7.8383    2.7895   -1.8668 C   0  0  2  0  0  0  0  0  0  0  0  0
   -6.6649    3.3675   -1.3372 O   0  0  0  0  0  0  0  0  0  0  0  0
   -8.5221    1.9514   -0.7760 C   0  0  1  0  0  0  0  0  0  0  0  0
   -9.7647    1.4817   -1.2865 O   0  0  0  0  0  0  0  0  0  0  0  0
  -10.8378    1.9121   -0.4795 C   0  0  0  0  0  0  0  0  0  0  0  0
   -0.2420    0.4612    2.4550 Na  0  3  0  0  0  0  0  0  0  0  0  0
   -1.0687   -4.2279    1.7026 H   0  0  0  0  0  0  0  0  0  0  0  0
   -0.5961   -4.0808   -0.0064 H   0  0  0  0  0  0  0  0  0  0  0  0
   -2.3252   -4.3311    0.4128 H   0  0  0  0  0  0  0  0  0  0  0  0
   -0.6906   -1.8229    1.2004 H   0  0  0  0  0  0  0  0  0  0  0  0
   -2.3601   -2.2242    1.6295 H   0  0  0  0  0  0  0  0  0  0  0  0
   -3.0884   -2.1908   -0.6940 H   0  0  0  0  0  0  0  0  0  0  0  0
   -1.8586   -1.5435   -2.6095 H   0  0  0  0  0  0  0  0  0  0  0  0
   -1.0683   -2.9235   -1.9336 H   0  0  0  0  0  0  0  0  0  0  0  0
   -0.1751    0.0338   -1.7136 H   0  0  0  0  0  0  0  0  0  0  0  0
    0.4162   -1.0969   -2.9444 H   0  0  0  0  0  0  0  0  0  0  0  0
    0.9917   -1.4286    0.0436 H   0  0  0  0  0  0  0  0  0  0  0  0
    2.1918   -2.8773   -2.4150 H   0  0  0  0  0  0  0  0  0  0  0  0
    0.9041   -3.5869   -1.4272 H   0  0  0  0  0  0  0  0  0  0  0  0
    2.4161   -3.2997   -0.6598 H   0  0  0  0  0  0  0  0  0  0  0  0
    2.8300   -0.4960   -2.2393 H   0  0  0  0  0  0  0  0  0  0  0  0
    1.5774    1.4667   -1.8174 H   0  0  0  0  0  0  0  0  0  0  0  0
    0.9118    2.0944    0.1664 H   0  0  0  0  0  0  0  0  0  0  0  0
    3.7140    2.4721   -1.5925 H   0  0  0  0  0  0  0  0  0  0  0  0
    3.4384    2.0685    1.2201 H   0  0  0  0  0  0  0  0  0  0  0  0
    4.7560    0.5483   -1.8143 H   0  0  0  0  0  0  0  0  0  0  0  0
    4.3347   -0.7369    1.8788 H   0  0  0  0  0  0  0  0  0  0  0  0
    2.9211   -1.6885    1.3952 H   0  0  0  0  0  0  0  0  0  0  0  0
    2.7949    0.0608    1.6016 H   0  0  0  0  0  0  0  0  0  0  0  0
    4.8800   -1.8288   -1.7825 H   0  0  0  0  0  0  0  0  0  0  0  0
    4.3508   -2.7710   -0.3556 H   0  0  0  0  0  0  0  0  0  0  0  0
    6.7330   -2.5491   -0.3590 H   0  0  0  0  0  0  0  0  0  0  0  0
    6.0660   -1.7307    1.0682 H   0  0  0  0  0  0  0  0  0  0  0  0
    6.8817   -0.3922   -1.5820 H   0  0  0  0  0  0  0  0  0  0  0  0
    8.0419   -1.2167    1.9769 H   0  0  0  0  0  0  0  0  0  0  0  0
    7.9691    0.5686    2.0565 H   0  0  0  0  0  0  0  0  0  0  0  0
    9.4993   -0.2324    1.9210 H   0  0  0  0  0  0  0  0  0  0  0  0
    8.6369   -1.9366   -1.4625 H   0  0  0  0  0  0  0  0  0  0  0  0
    9.2677   -2.2644    0.1646 H   0  0  0  0  0  0  0  0  0  0  0  0
   10.4212   -0.6243   -2.1985 H   0  0  0  0  0  0  0  0  0  0  0  0
   11.1489   -2.0270   -1.3722 H   0  0  0  0  0  0  0  0  0  0  0  0
   12.2877    0.1727   -0.7526 H   0  0  0  0  0  0  0  0  0  0  0  0
   12.2113   -1.3763    0.8206 H   0  0  0  0  0  0  0  0  0  0  0  0
   10.8755    1.9737   -0.9004 H   0  0  0  0  0  0  0  0  0  0  0  0
   10.6045    1.6319    0.8275 H   0  0  0  0  0  0  0  0  0  0  0  0
    8.9106    0.9572   -1.6868 H   0  0  0  0  0  0  0  0  0  0  0  0
    8.1191    2.4753    0.8635 H   0  0  0  0  0  0  0  0  0  0  0  0
    8.7070    3.3407   -1.7957 H   0  0  0  0  0  0  0  0  0  0  0  0
    6.6702    2.0566   -1.8308 H   0  0  0  0  0  0  0  0  0  0  0  0
    6.0873    3.0775   -0.4807 H   0  0  0  0  0  0  0  0  0  0  0  0
    5.7129    1.9853    1.5320 H   0  0  0  0  0  0  0  0  0  0  0  0
   -1.6012    0.4477   -0.0409 H   0  0  0  0  0  0  0  0  0  0  0  0
   -4.1297   -0.0927   -1.7354 H   0  0  0  0  0  0  0  0  0  0  0  0
   -2.5433    0.5046   -2.3555 H   0  0  0  0  0  0  0  0  0  0  0  0
   -3.4971    1.5341   -1.2751 H   0  0  0  0  0  0  0  0  0  0  0  0
   -3.6775    1.1725    1.0447 H   0  0  0  0  0  0  0  0  0  0  0  0
   -2.8780   -0.1723    1.9097 H   0  0  0  0  0  0  0  0  0  0  0  0
   -5.0195    0.3252    2.7051 H   0  0  0  0  0  0  0  0  0  0  0  0
   -5.5816   -0.8516    4.6712 H   0  0  0  0  0  0  0  0  0  0  0  0
   -6.1178   -2.5512    4.5472 H   0  0  0  0  0  0  0  0  0  0  0  0
   -8.1105   -1.9507    3.2337 H   0  0  0  0  0  0  0  0  0  0  0  0
   -7.7811   -0.2682    5.5292 H   0  0  0  0  0  0  0  0  0  0  0  0
   -7.0659    0.9281    3.5196 H   0  0  0  0  0  0  0  0  0  0  0  0
   -7.2593   -1.0633    1.1744 H   0  0  0  0  0  0  0  0  0  0  0  0
   -8.3462   -0.1085   -0.2560 H   0  0  0  0  0  0  0  0  0  0  0  0
   -8.2218   -0.1597   -2.6701 H   0  0  0  0  0  0  0  0  0  0  0  0
   -6.6439   -0.0758   -3.4609 H   0  0  0  0  0  0  0  0  0  0  0  0
   -6.6305    2.3313   -3.5949 H   0  0  0  0  0  0  0  0  0  0  0  0
   -9.3773    1.5439   -3.6911 H   0  0  0  0  0  0  0  0  0  0  0  0
   -8.4795    3.6408   -2.1847 H   0  0  0  0  0  0  0  0  0  0  0  0
   -5.9087    2.7334   -1.4307 H   0  0  0  0  0  0  0  0  0  0  0  0
   -8.6563    2.5867    0.1321 H   0  0  0  0  0  0  0  0  0  0  0  0
  -11.7803    1.5038   -0.8961 H   0  0  0  0  0  0  0  0  0  0  0  0
  -10.9195    3.0217   -0.4892 H   0  0  0  0  0  0  0  0  0  0  0  0
  -10.7408    1.5163    0.5542 H   0  0  0  0  0  0  0  0  0  0  0  0
  1  2  1  0  0  0  0
  1 60  1  0  0  0  0
  1 61  1  0  0  0  0
  1 62  1  0  0  0  0
  2 63  1  0  0  0  0
  2 64  1  0  0  0  0
  3  2  1  0  0  0  0
  3  4  1  0  0  0  0
  3 32  1  0  0  0  0
  3 65  1  6  0  0  0
  4  5  1  0  0  0  0
  4 66  1  0  0  0  0
  4 67  1  0  0  0  0
  5  6  1  0  0  0  0
  5 68  1  0  0  0  0
  5 69  1  0  0  0  0
  6  7  1  0  0  0  0
  6 70  1  1  0  0  0
  7 71  1  0  0  0  0
  7 72  1  0  0  0  0
  7 73  1  0  0  0  0
  8  6  1  0  0  0  0
  8  9  1  0  0  0  0
  8 74  1  6  0  0  0
  9 10  1  0  0  0  0
  9 11  1  0  0  0  0
  9 75  1  6  0  0  0
 10 76  1  0  0  0  0
 11 12  1  0  0  0  0
 11 77  1  6  0  0  0
 12 78  1  0  0  0  0
 13 11  1  0  0  0  0
 13 14  1  0  0  0  0
 13 79  1  6  0  0  0
 14 15  1  1  0  0  0
 14 16  1  0  0  0  0
 14  8  1  0  0  0  0
 15 80  1  0  0  0  0
 15 81  1  0  0  0  0
 15 82  1  0  0  0  0
 16 17  1  0  0  0  0
 16 83  1  0  0  0  0
 16 84  1  0  0  0  0
 17 85  1  0  0  0  0
 17 86  1  0  0  0  0
 18 17  1  0  0  0  0
 18 19  1  0  0  0  0
 18 87  1  6  0  0  0
 19 20  1  1  0  0  0
 19 21  1  0  0  0  0
 20 88  1  0  0  0  0
 20 89  1  0  0  0  0
 20 90  1  0  0  0  0
 21 22  1  0  0  0  0
 21 91  1  0  0  0  0
 21 92  1  0  0  0  0
 22 23  1  0  0  0  0
 22 93  1  0  0  0  0
 22 94  1  0  0  0  0
 23 24  1  0  0  0  0
 23 25  1  0  0  0  0
 23 95  1  6  0  0  0
 24 96  1  0  0  0  0
 25 97  1  0  0  0  0
 25 98  1  0  0  0  0
 26 25  1  0  0  0  0
 26 27  1  0  0  0  0
 26 19  1  0  0  0  0
 26 99  1  6  0  0  0
 27 28  1  0  0  0  0
 27 29  1  0  0  0  0
 27100  1  1  0  0  0
 28101  1  0  0  0  0
 29 30  1  0  0  0  0
 29102  1  0  0  0  0
 29103  1  0  0  0  0
 30 31  1  1  0  0  0
 30 18  1  0  0  0  0
 30 13  1  0  0  0  0
 31104  1  0  0  0  0
 32 33  1  0  0  0  0
 32 34  1  0  0  0  0
 32105  1  1  0  0  0
 33106  1  0  0  0  0
 33107  1  0  0  0  0
 33108  1  0  0  0  0
 34 35  1  0  0  0  0
 34109  1  0  0  0  0
 34110  1  0  0  0  0
 36 35  1  0  0  0  0
 36 37  1  0  0  0  0
 36111  1  1  0  0  0
 37 38  1  0  0  0  0
 38 39  1  0  0  0  0
 38112  1  0  0  0  0
 38113  1  0  0  0  0
 39 40  1  0  0  0  0
 39 41  1  0  0  0  0
 39114  1  6  0  0  0
 40115  1  0  0  0  0
 41 42  1  0  0  0  0
 41 47  1  0  0  0  0
 41116  1  1  0  0  0
 42 43  1  0  0  0  0
 43 44  2  0  0  0  0
 43 45  2  0  0  0  0
 43 46  1  0  0  0  0
 47 48  1  0  0  0  0
 47 36  1  0  0  0  0
 47117  1  6  0  0  0
 49 48  1  0  0  0  0
 49 50  1  0  0  0  0
 49118  1  1  0  0  0
 50 51  1  0  0  0  0
 51 52  1  0  0  0  0
 51119  1  0  0  0  0
 51120  1  0  0  0  0
 52 53  1  0  0  0  0
 52 54  1  0  0  0  0
 52121  1  6  0  0  0
 53122  1  0  0  0  0
 54 55  1  0  0  0  0
 54 56  1  0  0  0  0
 54123  1  6  0  0  0
 55124  1  0  0  0  0
 56 57  1  0  0  0  0
 56 49  1  0  0  0  0
 56125  1  1  0  0  0
 57 58  1  0  0  0  0
 58126  1  0  0  0  0
 58127  1  0  0  0  0
 58128  1  0  0  0  0
M  CHG  2  46  -1  59   1
M  END
>  <IDENTIFIER>
CNP0470713.1

>  <Energy>
2015.21

$$$$
