
 OpenBabel09072503123D

 30 31  0  0  0  0  0  0  0  0999 V2000
   -2.0812    1.5335   -0.4861 C   0  0  0  0  0  0  0  0  0  0  0  0
   -1.0654    0.4982    0.0541 C   0  0  0  0  0  0  0  0  0  0  0  0
   -1.3539    0.3474    1.5641 C   0  0  0  0  0  0  0  0  0  0  0  0
   -1.2679   -0.8430   -0.7193 C   0  0  0  0  0  0  0  0  0  0  0  0
   -0.1417   -1.8991   -0.4984 C   0  0  2  0  0  0  0  0  0  0  0  0
   -0.1436   -2.3939    0.8118 O   0  0  0  0  0  0  0  0  0  0  0  0
    1.2474   -1.2990   -0.8623 C   0  0  0  0  0  0  0  0  0  0  0  0
    1.5696   -0.0125   -0.0635 C   0  0  1  0  0  0  0  0  0  0  0  0
    1.9784   -0.2987    1.3948 C   0  0  0  0  0  0  0  0  0  0  0  0
    2.6196    0.6831   -0.6406 O   0  0  0  0  0  0  0  0  0  0  0  0
    2.1970    1.8990   -1.0253 C   0  0  0  0  0  0  0  0  0  0  0  0
    2.9190    2.7287   -1.5525 O   0  0  0  0  0  0  0  0  0  0  0  0
    0.7824    2.0552   -0.7978 C   0  0  0  0  0  0  0  0  0  0  0  0
    0.3777    0.9215   -0.2294 C   0  0  0  0  0  0  0  0  0  0  0  0
   -3.1239    1.1831   -0.3238 H   0  0  0  0  0  0  0  0  0  0  0  0
   -1.9451    1.6911   -1.5781 H   0  0  0  0  0  0  0  0  0  0  0  0
   -1.9616    2.5121    0.0276 H   0  0  0  0  0  0  0  0  0  0  0  0
   -2.4159    0.0594    1.7217 H   0  0  0  0  0  0  0  0  0  0  0  0
   -1.1754    1.3124    2.0858 H   0  0  0  0  0  0  0  0  0  0  0  0
   -0.7620   -0.4220    2.0685 H   0  0  0  0  0  0  0  0  0  0  0  0
   -1.2525   -0.6143   -1.8093 H   0  0  0  0  0  0  0  0  0  0  0  0
   -2.2656   -1.2799   -0.4952 H   0  0  0  0  0  0  0  0  0  0  0  0
   -0.3166   -2.7573   -1.1880 H   0  0  0  0  0  0  0  0  0  0  0  0
   -0.9896   -2.9003    0.9266 H   0  0  0  0  0  0  0  0  0  0  0  0
    1.2037   -1.0296   -1.9420 H   0  0  0  0  0  0  0  0  0  0  0  0
    2.0577   -2.0511   -0.7447 H   0  0  0  0  0  0  0  0  0  0  0  0
    2.9181   -0.8917    1.3974 H   0  0  0  0  0  0  0  0  0  0  0  0
    1.2571   -0.8757    1.9833 H   0  0  0  0  0  0  0  0  0  0  0  0
    2.1753    0.6567    1.9263 H   0  0  0  0  0  0  0  0  0  0  0  0
    0.1752    2.9010   -1.0901 H   0  0  0  0  0  0  0  0  0  0  0  0
  1  2  1  0  0  0  0
  1 15  1  0  0  0  0
  1 16  1  0  0  0  0
  1 17  1  0  0  0  0
  2  3  1  0  0  0  0
  2  4  1  0  0  0  0
  3 18  1  0  0  0  0
  3 19  1  0  0  0  0
  3 20  1  0  0  0  0
  4  5  1  0  0  0  0
  4 21  1  0  0  0  0
  4 22  1  0  0  0  0
  5  6  1  0  0  0  0
  5  7  1  0  0  0  0
  5 23  1  6  0  0  0
  6 24  1  0  0  0  0
  7  8  1  0  0  0  0
  7 25  1  0  0  0  0
  7 26  1  0  0  0  0
  8  9  1  1  0  0  0
  8 10  1  0  0  0  0
  9 27  1  0  0  0  0
  9 28  1  0  0  0  0
  9 29  1  0  0  0  0
 10 11  1  0  0  0  0
 11 12  2  0  0  0  0
 11 13  1  0  0  0  0
 13 14  2  0  0  0  0
 13 30  1  0  0  0  0
 14  2  1  0  0  0  0
 14  8  1  0  0  0  0
M  END
>  <IDENTIFIER>
CNP0245641.4

>  <Energy>
248.663

$$$$
