
 OpenBabel09102502223D

 58 60  0  0  0  0  0  0  0  0999 V2000
   -2.4845    2.1180    1.6433 C   0  0  0  0  0  0  0  0  0  0  0  0
   -2.2231    0.6230    1.5731 C   0  0  0  0  0  0  0  0  0  0  0  0
   -1.0394    0.0721    1.1978 C   0  0  0  0  0  0  0  0  0  0  0  0
    0.2215    0.7869    0.7702 C   0  0  0  0  0  0  0  0  0  0  0  0
    0.7220    0.2540   -0.5603 C   0  0  0  0  0  0  0  0  0  0  0  0
    0.0344    0.5229   -1.7732 C   0  0  0  0  0  0  0  0  0  0  0  0
   -1.1012    1.2532   -1.8120 O   0  0  0  0  0  0  0  0  0  0  0  0
    0.5425    0.0431   -2.9862 C   0  0  0  0  0  0  0  0  0  0  0  0
    1.7159   -0.7079   -3.0227 C   0  0  0  0  0  0  0  0  0  0  0  0
    2.3921   -1.0031   -1.8358 C   0  0  0  0  0  0  0  0  0  0  0  0
    1.9104   -0.5146   -0.6031 C   0  0  0  0  0  0  0  0  0  0  0  0
    2.6091   -0.7559    0.5469 O   0  0  0  0  0  0  0  0  0  0  0  0
    3.8330   -1.4136    0.6369 C   0  0  2  0  0  0  0  0  0  0  0  0
    4.9612   -0.4033    0.7418 C   0  0  0  0  0  0  0  0  0  0  0  0
    5.7770   -0.3952    1.8894 C   0  0  0  0  0  0  0  0  0  0  0  0
    6.8156    0.5297    2.0192 C   0  0  0  0  0  0  0  0  0  0  0  0
    7.0573    1.4639    1.0033 C   0  0  0  0  0  0  0  0  0  0  0  0
    8.0562    2.3622    1.1162 O   0  0  0  0  0  0  0  0  0  0  0  0
    6.2519    1.4659   -0.1392 C   0  0  0  0  0  0  0  0  0  0  0  0
    5.2105    0.5419   -0.2718 C   0  0  0  0  0  0  0  0  0  0  0  0
    4.0027   -2.4271   -0.5075 C   0  0  0  0  0  0  0  0  0  0  0  0
    3.6208   -1.8171   -1.8183 C   0  0  0  0  0  0  0  0  0  0  0  0
    4.2678   -2.0377   -2.8307 O   0  0  0  0  0  0  0  0  0  0  0  0
   -3.3304   -0.3121    2.0420 C   0  0  0  0  0  0  0  0  0  0  0  0
   -4.5887   -0.3749    1.2046 C   0  0  0  0  0  0  0  0  0  0  0  0
   -4.7974    0.2632    0.0368 C   0  0  0  0  0  0  0  0  0  0  0  0
   -6.0999    0.1337   -0.7424 C   0  0  0  0  0  0  0  0  0  0  0  0
   -7.3109    0.5618    0.1146 C   0  0  0  0  0  0  0  0  0  0  0  0
   -6.2860   -1.3203   -1.2030 C   0  0  0  0  0  0  0  0  0  0  0  0
   -6.0353    0.9398   -1.8947 O   0  0  0  0  0  0  0  0  0  0  0  0
   -1.6397    2.7506    1.3274 H   0  0  0  0  0  0  0  0  0  0  0  0
   -2.7165    2.3888    2.6942 H   0  0  0  0  0  0  0  0  0  0  0  0
   -3.3515    2.4124    1.0239 H   0  0  0  0  0  0  0  0  0  0  0  0
   -0.9428   -1.0102    1.2315 H   0  0  0  0  0  0  0  0  0  0  0  0
    0.9563    0.5775    1.5733 H   0  0  0  0  0  0  0  0  0  0  0  0
    0.1513    1.8864    0.7110 H   0  0  0  0  0  0  0  0  0  0  0  0
   -1.5146    1.6463   -1.0335 H   0  0  0  0  0  0  0  0  0  0  0  0
    0.0219    0.2564   -3.9117 H   0  0  0  0  0  0  0  0  0  0  0  0
    2.0848   -1.0724   -3.9736 H   0  0  0  0  0  0  0  0  0  0  0  0
    3.8248   -2.0209    1.5688 H   0  0  0  0  0  0  0  0  0  0  0  0
    5.6109   -1.1054    2.6903 H   0  0  0  0  0  0  0  0  0  0  0  0
    7.4310    0.5189    2.9099 H   0  0  0  0  0  0  0  0  0  0  0  0
    8.6315    2.3957    1.8940 H   0  0  0  0  0  0  0  0  0  0  0  0
    6.4319    2.1871   -0.9263 H   0  0  0  0  0  0  0  0  0  0  0  0
    4.6041    0.5769   -1.1641 H   0  0  0  0  0  0  0  0  0  0  0  0
    3.2430   -3.2192   -0.3247 H   0  0  0  0  0  0  0  0  0  0  0  0
    4.9995   -2.9187   -0.5204 H   0  0  0  0  0  0  0  0  0  0  0  0
   -3.6084   -0.0064    3.0728 H   0  0  0  0  0  0  0  0  0  0  0  0
   -2.9626   -1.3591    2.1051 H   0  0  0  0  0  0  0  0  0  0  0  0
   -5.3734   -1.0117    1.5997 H   0  0  0  0  0  0  0  0  0  0  0  0
   -4.0242    0.8899   -0.3888 H   0  0  0  0  0  0  0  0  0  0  0  0
   -7.4232   -0.0859    1.0099 H   0  0  0  0  0  0  0  0  0  0  0  0
   -8.2471    0.4879   -0.4793 H   0  0  0  0  0  0  0  0  0  0  0  0
   -7.1950    1.6123    0.4567 H   0  0  0  0  0  0  0  0  0  0  0  0
   -6.3552   -2.0151   -0.3394 H   0  0  0  0  0  0  0  0  0  0  0  0
   -5.4288   -1.6309   -1.8389 H   0  0  0  0  0  0  0  0  0  0  0  0
   -7.2159   -1.4180   -1.8035 H   0  0  0  0  0  0  0  0  0  0  0  0
   -5.9572    1.8865   -1.6016 H   0  0  0  0  0  0  0  0  0  0  0  0
  1  2  1  0  0  0  0
  1 31  1  0  0  0  0
  1 32  1  0  0  0  0
  1 33  1  0  0  0  0
  2  3  2  0  0  0  0
  2 24  1  0  0  0  0
  3  4  1  0  0  0  0
  3 34  1  0  0  0  0
  4  5  1  0  0  0  0
  4 35  1  0  0  0  0
  4 36  1  0  0  0  0
  5  6  2  0  0  0  0
  6  7  1  0  0  0  0
  6  8  1  0  0  0  0
  7 37  1  0  0  0  0
  8  9  2  0  0  0  0
  8 38  1  0  0  0  0
  9 10  1  0  0  0  0
  9 39  1  0  0  0  0
 10 11  2  0  0  0  0
 11 12  1  0  0  0  0
 11  5  1  0  0  0  0
 12 13  1  0  0  0  0
 13 14  1  0  0  0  0
 13 21  1  0  0  0  0
 13 40  1  1  0  0  0
 14 15  2  0  0  0  0
 15 16  1  0  0  0  0
 15 41  1  0  0  0  0
 16 17  2  0  0  0  0
 16 42  1  0  0  0  0
 17 18  1  0  0  0  0
 17 19  1  0  0  0  0
 18 43  1  0  0  0  0
 19 20  2  0  0  0  0
 19 44  1  0  0  0  0
 20 14  1  0  0  0  0
 20 45  1  0  0  0  0
 21 22  1  0  0  0  0
 21 46  1  0  0  0  0
 21 47  1  0  0  0  0
 22 23  2  0  0  0  0
 22 10  1  0  0  0  0
 24 25  1  0  0  0  0
 24 48  1  0  0  0  0
 24 49  1  0  0  0  0
 25 26  2  0  0  0  0
 25 50  1  0  0  0  0
 26 27  1  0  0  0  0
 26 51  1  0  0  0  0
 27 28  1  0  0  0  0
 27 29  1  0  0  0  0
 27 30  1  0  0  0  0
 28 52  1  0  0  0  0
 28 53  1  0  0  0  0
 28 54  1  0  0  0  0
 29 55  1  0  0  0  0
 29 56  1  0  0  0  0
 29 57  1  0  0  0  0
 30 58  1  0  0  0  0
M  END
>  <IDENTIFIER>
CNP0499411.1

>  <Energy>
337.244

$$$$
