
 OpenBabel09092501113D

 78 82  0  0  0  0  0  0  0  0999 V2000
   -6.4628    0.7048   -0.2475 C   0  0  0  0  0  0  0  0  0  0  0  0
   -5.6617   -0.6037    0.0289 C   0  0  2  0  0  0  0  0  0  0  0  0
   -5.9932   -1.6702   -1.0514 C   0  0  0  0  0  0  0  0  0  0  0  0
   -7.5016   -1.9654   -1.1396 C   0  0  0  0  0  0  0  0  0  0  0  0
   -8.1103   -2.1338    0.2296 C   0  0  0  0  0  0  0  0  0  0  0  0
   -9.2667   -2.5067    0.3320 O   0  0  0  0  0  0  0  0  0  0  0  0
   -7.3384   -1.8031    1.4500 C   0  0  0  0  0  0  0  0  0  0  0  0
   -6.1467   -1.1642    1.3827 C   0  0  0  0  0  0  0  0  0  0  0  0
   -5.4921   -0.7559    2.6845 C   0  0  0  0  0  0  0  0  0  0  0  0
   -3.9875   -0.5375    2.5529 C   0  0  0  0  0  0  0  0  0  0  0  0
   -3.6903    0.4064    1.3787 C   0  0  2  0  0  0  0  0  0  0  0  0
   -4.1045   -0.3173    0.0492 C   0  0  2  0  0  0  0  0  0  0  0  0
   -3.6108    0.4420   -1.2362 C   0  0  0  0  0  0  0  0  0  0  0  0
   -2.1415    0.8937   -1.1534 C   0  0  0  0  0  0  0  0  0  0  0  0
   -1.9055    1.7231    0.1377 C   0  0  2  0  0  0  0  0  0  0  0  0
   -2.7579    3.0409    0.1057 C   0  0  0  0  0  0  0  0  0  0  0  0
   -0.4434    2.1416    0.4084 C   0  0  2  0  0  0  0  0  0  0  0  0
    0.4235    1.2092   -0.1344 O   0  0  0  0  0  0  0  0  0  0  0  0
    1.4121    1.5013   -1.0148 C   0  0  0  0  0  0  0  0  0  0  0  0
    1.6388    2.6483   -1.3727 O   0  0  0  0  0  0  0  0  0  0  0  0
    2.2792    0.3891   -1.5106 C   0  0  0  0  0  0  0  0  0  0  0  0
    3.7068    0.5835   -0.9925 C   0  0  0  0  0  0  0  0  0  0  0  0
    4.6391   -0.5186   -1.4187 C   0  0  0  0  0  0  0  0  0  0  0  0
    4.2363   -1.4334   -2.1273 O   0  0  0  0  0  0  0  0  0  0  0  0
    5.9365   -0.4734   -1.0051 N   0  0  0  0  0  0  0  0  0  0  0  0
    6.9391   -1.4585   -1.3985 C   0  0  1  0  0  0  0  0  0  0  0  0
    8.0612   -0.7735   -2.2214 C   0  0  0  0  0  0  0  0  0  0  0  0
    9.4328   -0.6871   -1.5390 C   0  0  0  0  0  0  0  0  0  0  0  0
    9.5215    0.0897   -0.2165 C   0  0  0  0  0  0  0  0  0  0  0  0
    8.5719   -0.3634    0.9092 C   0  0  0  0  0  0  0  0  0  0  0  0
    8.1910   -1.7610    0.8132 N   0  0  0  0  0  0  0  0  0  0  0  0
    7.4507   -2.2831   -0.2132 C   0  0  0  0  0  0  0  0  0  0  0  0
    7.1918   -3.4782   -0.1955 O   0  0  0  0  0  0  0  0  0  0  0  0
   -0.3043    2.1094    1.9566 C   0  0  0  0  0  0  0  0  0  0  0  0
   -1.6351    1.5785    2.5045 C   0  0  0  0  0  0  0  0  0  0  0  0
   -2.1960    0.7916    1.3275 C   0  0  1  0  0  0  0  0  0  0  0  0
   -7.5563    0.5521   -0.1554 H   0  0  0  0  0  0  0  0  0  0  0  0
   -6.2987    1.0769   -1.2784 H   0  0  0  0  0  0  0  0  0  0  0  0
   -6.2017    1.5054    0.4719 H   0  0  0  0  0  0  0  0  0  0  0  0
   -5.4709   -2.6108   -0.7604 H   0  0  0  0  0  0  0  0  0  0  0  0
   -5.6369   -1.3884   -2.0625 H   0  0  0  0  0  0  0  0  0  0  0  0
   -7.6367   -2.8907   -1.7388 H   0  0  0  0  0  0  0  0  0  0  0  0
   -8.0366   -1.1420   -1.6595 H   0  0  0  0  0  0  0  0  0  0  0  0
   -7.7643   -2.0624    2.4158 H   0  0  0  0  0  0  0  0  0  0  0  0
   -5.6703   -1.5141    3.4785 H   0  0  0  0  0  0  0  0  0  0  0  0
   -5.9676    0.1947    3.0117 H   0  0  0  0  0  0  0  0  0  0  0  0
   -3.4715   -1.5120    2.3916 H   0  0  0  0  0  0  0  0  0  0  0  0
   -3.6235   -0.1156    3.5134 H   0  0  0  0  0  0  0  0  0  0  0  0
   -4.2676    1.3365    1.5322 H   0  0  0  0  0  0  0  0  0  0  0  0
   -3.5569   -1.2877    0.0592 H   0  0  0  0  0  0  0  0  0  0  0  0
   -4.1987    1.3546   -1.4123 H   0  0  0  0  0  0  0  0  0  0  0  0
   -3.7378   -0.1948   -2.1354 H   0  0  0  0  0  0  0  0  0  0  0  0
   -1.8706    1.4827   -2.0563 H   0  0  0  0  0  0  0  0  0  0  0  0
   -1.5037   -0.0174   -1.1414 H   0  0  0  0  0  0  0  0  0  0  0  0
   -2.4755    3.6395   -0.7870 H   0  0  0  0  0  0  0  0  0  0  0  0
   -2.5835    3.6901    0.9859 H   0  0  0  0  0  0  0  0  0  0  0  0
   -3.8480    2.8756    0.0479 H   0  0  0  0  0  0  0  0  0  0  0  0
   -0.2264    3.1546   -0.0010 H   0  0  0  0  0  0  0  0  0  0  0  0
    2.2549    0.3714   -2.6195 H   0  0  0  0  0  0  0  0  0  0  0  0
    1.8874   -0.5769   -1.1252 H   0  0  0  0  0  0  0  0  0  0  0  0
    3.6839    0.6101    0.1189 H   0  0  0  0  0  0  0  0  0  0  0  0
    4.1094    1.5518   -1.3645 H   0  0  0  0  0  0  0  0  0  0  0  0
    6.2038    0.3303   -0.4311 H   0  0  0  0  0  0  0  0  0  0  0  0
    6.4495   -2.1771   -2.0944 H   0  0  0  0  0  0  0  0  0  0  0  0
    7.7216    0.2151   -2.6023 H   0  0  0  0  0  0  0  0  0  0  0  0
    8.2416   -1.4025   -3.1215 H   0  0  0  0  0  0  0  0  0  0  0  0
   10.1550   -0.2396   -2.2548 H   0  0  0  0  0  0  0  0  0  0  0  0
    9.7779   -1.7269   -1.3488 H   0  0  0  0  0  0  0  0  0  0  0  0
    9.4023    1.1845   -0.3669 H   0  0  0  0  0  0  0  0  0  0  0  0
   10.5640   -0.0814    0.1317 H   0  0  0  0  0  0  0  0  0  0  0  0
    7.6701    0.2570    0.9469 H   0  0  0  0  0  0  0  0  0  0  0  0
    9.0720   -0.1592    1.8815 H   0  0  0  0  0  0  0  0  0  0  0  0
    8.4862   -2.3881    1.5785 H   0  0  0  0  0  0  0  0  0  0  0  0
   -0.0461    3.0910    2.4110 H   0  0  0  0  0  0  0  0  0  0  0  0
    0.5009    1.3890    2.2137 H   0  0  0  0  0  0  0  0  0  0  0  0
   -2.3121    2.4336    2.7093 H   0  0  0  0  0  0  0  0  0  0  0  0
   -1.5253    1.0164    3.4572 H   0  0  0  0  0  0  0  0  0  0  0  0
   -1.5803   -0.1356    1.2275 H   0  0  0  0  0  0  0  0  0  0  0  0
  1 37  1  0  0  0  0
  1 38  1  0  0  0  0
  1 39  1  0  0  0  0
  2  1  1  6  0  0  0
  2  3  1  0  0  0  0
  3  4  1  0  0  0  0
  3 40  1  0  0  0  0
  3 41  1  0  0  0  0
  4  5  1  0  0  0  0
  4 42  1  0  0  0  0
  4 43  1  0  0  0  0
  5  6  2  0  0  0  0
  5  7  1  0  0  0  0
  7  8  2  0  0  0  0
  7 44  1  0  0  0  0
  8  9  1  0  0  0  0
  8  2  1  0  0  0  0
  9 10  1  0  0  0  0
  9 45  1  0  0  0  0
  9 46  1  0  0  0  0
 10 47  1  0  0  0  0
 10 48  1  0  0  0  0
 11 10  1  0  0  0  0
 11 12  1  0  0  0  0
 11 49  1  1  0  0  0
 12 13  1  0  0  0  0
 12  2  1  0  0  0  0
 12 50  1  1  0  0  0
 13 14  1  0  0  0  0
 13 51  1  0  0  0  0
 13 52  1  0  0  0  0
 14 15  1  0  0  0  0
 14 53  1  0  0  0  0
 14 54  1  0  0  0  0
 15 16  1  1  0  0  0
 15 17  1  0  0  0  0
 16 55  1  0  0  0  0
 16 56  1  0  0  0  0
 16 57  1  0  0  0  0
 17 18  1  0  0  0  0
 17 34  1  0  0  0  0
 17 58  1  6  0  0  0
 18 19  1  0  0  0  0
 19 20  2  0  0  0  0
 19 21  1  0  0  0  0
 21 22  1  0  0  0  0
 21 59  1  0  0  0  0
 21 60  1  0  0  0  0
 22 23  1  0  0  0  0
 22 61  1  0  0  0  0
 22 62  1  0  0  0  0
 23 24  2  0  0  0  0
 23 25  1  0  0  0  0
 25 63  1  0  0  0  0
 26 25  1  0  0  0  0
 26 27  1  0  0  0  0
 26 64  1  6  0  0  0
 27 28  1  0  0  0  0
 27 65  1  0  0  0  0
 27 66  1  0  0  0  0
 28 29  1  0  0  0  0
 28 67  1  0  0  0  0
 28 68  1  0  0  0  0
 29 30  1  0  0  0  0
 29 69  1  0  0  0  0
 29 70  1  0  0  0  0
 30 31  1  0  0  0  0
 30 71  1  0  0  0  0
 30 72  1  0  0  0  0
 31 32  1  0  0  0  0
 31 73  1  0  0  0  0
 32 33  2  0  0  0  0
 32 26  1  0  0  0  0
 34 35  1  0  0  0  0
 34 74  1  0  0  0  0
 34 75  1  0  0  0  0
 35 76  1  0  0  0  0
 35 77  1  0  0  0  0
 36 35  1  0  0  0  0
 36 11  1  0  0  0  0
 36 15  1  0  0  0  0
 36 78  1  6  0  0  0
M  END
>  <IDENTIFIER>
CNP0195516.1

>  <Energy>
792.19

$$$$
