
 OpenBabel09082507163D

 36 39  0  0  0  0  0  0  0  0999 V2000
   -1.7614    1.8439   -1.3343 C   0  0  0  0  0  0  0  0  0  0  0  0
   -2.1396    0.5677   -0.5639 C   0  0  2  0  0  0  0  0  0  0  0  0
   -2.8162    0.8365    0.8235 C   0  0  0  0  0  0  0  0  0  0  0  0
   -2.1384    0.2474    2.0726 C   0  0  0  0  0  0  0  0  0  0  0  0
   -2.7495    0.3027    3.1286 O   0  0  0  0  0  0  0  0  0  0  0  0
   -0.8002   -0.4905    2.0644 C   0  0  0  0  0  0  0  0  0  0  0  0
    0.0038   -0.2054    0.7739 C   0  0  1  0  0  0  0  0  0  0  0  0
    0.4888    1.2721    0.8971 C   0  0  0  0  0  0  0  0  0  0  0  0
    1.2882   -1.1182    0.6467 C   0  0  2  0  0  0  0  0  0  0  0  0
    2.3500   -0.5582   -0.2888 C   0  0  0  0  0  0  0  0  0  0  0  0
    2.2564   -0.2901   -1.6441 C   0  0  0  0  0  0  0  0  0  0  0  0
    3.4014    0.1914   -2.0728 O   0  0  0  0  0  0  0  0  0  0  0  0
    4.2439    0.2532   -1.0656 C   0  0  0  0  0  0  0  0  0  0  0  0
    3.6318   -0.2063    0.0798 C   0  0  0  0  0  0  0  0  0  0  0  0
    0.9893   -2.4034    0.2278 O   0  0  0  0  0  0  0  0  0  0  0  0
    0.2496   -2.6422   -0.8837 C   0  0  0  0  0  0  0  0  0  0  0  0
    0.3860   -3.6876   -1.4972 O   0  0  0  0  0  0  0  0  0  0  0  0
   -0.8071   -1.6645   -1.2869 C   0  0  1  0  0  0  0  0  0  0  0  0
   -1.6736   -1.6638   -0.2067 O   0  0  0  0  0  0  0  0  0  0  0  0
   -0.9867   -0.4397   -0.4161 C   0  0  2  0  0  0  0  0  0  0  0  0
   -2.6727    2.4583   -1.4977 H   0  0  0  0  0  0  0  0  0  0  0  0
   -1.3518    1.5684   -2.3298 H   0  0  0  0  0  0  0  0  0  0  0  0
   -1.0274    2.4885   -0.8283 H   0  0  0  0  0  0  0  0  0  0  0  0
   -2.9139    0.1160   -1.2297 H   0  0  0  0  0  0  0  0  0  0  0  0
   -3.8138    0.3466    0.7811 H   0  0  0  0  0  0  0  0  0  0  0  0
   -3.0120    1.9212    0.9661 H   0  0  0  0  0  0  0  0  0  0  0  0
   -1.0098   -1.5745    2.1946 H   0  0  0  0  0  0  0  0  0  0  0  0
   -0.1907   -0.1798    2.9423 H   0  0  0  0  0  0  0  0  0  0  0  0
    1.2224    1.3659    1.7273 H   0  0  0  0  0  0  0  0  0  0  0  0
   -0.3308    1.9744    1.1437 H   0  0  0  0  0  0  0  0  0  0  0  0
    0.9805    1.6240   -0.0327 H   0  0  0  0  0  0  0  0  0  0  0  0
    1.7729   -1.1760    1.6464 H   0  0  0  0  0  0  0  0  0  0  0  0
    1.3935   -0.4356   -2.2769 H   0  0  0  0  0  0  0  0  0  0  0  0
    5.2611    0.6140   -1.1400 H   0  0  0  0  0  0  0  0  0  0  0  0
    4.0707   -0.2744    1.0663 H   0  0  0  0  0  0  0  0  0  0  0  0
   -1.4086   -1.8174   -2.2073 H   0  0  0  0  0  0  0  0  0  0  0  0
  1 21  1  0  0  0  0
  1 22  1  0  0  0  0
  1 23  1  0  0  0  0
  2  1  1  0  0  0  0
  2  3  1  0  0  0  0
  2 24  1  6  0  0  0
  3  4  1  0  0  0  0
  3 25  1  0  0  0  0
  3 26  1  0  0  0  0
  4  5  2  0  0  0  0
  4  6  1  0  0  0  0
  6  7  1  0  0  0  0
  6 27  1  0  0  0  0
  6 28  1  0  0  0  0
  7  8  1  1  0  0  0
  7  9  1  0  0  0  0
  8 29  1  0  0  0  0
  8 30  1  0  0  0  0
  8 31  1  0  0  0  0
  9 10  1  0  0  0  0
  9 15  1  0  0  0  0
  9 32  1  1  0  0  0
 10 11  2  0  0  0  0
 11 12  1  0  0  0  0
 11 33  1  0  0  0  0
 12 13  1  0  0  0  0
 13 14  2  0  0  0  0
 13 34  1  0  0  0  0
 14 10  1  0  0  0  0
 14 35  1  0  0  0  0
 15 16  1  0  0  0  0
 16 17  2  0  0  0  0
 16 18  1  0  0  0  0
 18 19  1  0  0  0  0
 18 36  1  6  0  0  0
 20 19  1  1  0  0  0
 20  2  1  0  0  0  0
 20  7  1  0  0  0  0
 20 18  1  0  0  0  0
M  END
>  <IDENTIFIER>
CNP0382751.1

>  <Energy>
1997.2

$$$$
