
 OpenBabel09102506283D

 41 42  0  0  0  0  0  0  0  0999 V2000
   -0.2739    4.4389    1.1442 C   0  0  0  0  0  0  0  0  0  0  0  0
   -0.6212    3.4622    0.0325 C   0  0  0  0  0  0  0  0  0  0  0  0
    0.3683    2.4453   -0.0114 O   0  0  0  0  0  0  0  0  0  0  0  0
    0.2330    1.5965   -1.1501 C   0  0  0  0  0  0  0  0  0  0  0  0
    0.2163    2.3629   -2.3402 O   0  0  0  0  0  0  0  0  0  0  0  0
    1.4622    0.6749   -1.2097 C   0  0  0  0  0  0  0  0  0  0  0  0
    2.2703    0.8597   -2.1095 O   0  0  0  0  0  0  0  0  0  0  0  0
    1.6528   -0.3597   -0.3316 N   0  0  0  0  0  0  0  0  0  0  0  0
    2.7964   -1.2226   -0.3120 C   0  0  0  0  0  0  0  0  0  0  0  0
    4.0804   -0.7972   -0.7209 C   0  0  0  0  0  0  0  0  0  0  0  0
    5.1692   -1.6723   -0.6617 C   0  0  0  0  0  0  0  0  0  0  0  0
    4.9950   -2.9811   -0.2098 C   0  0  0  0  0  0  0  0  0  0  0  0
    3.7331   -3.4148    0.1991 C   0  0  0  0  0  0  0  0  0  0  0  0
    2.6439   -2.5386    0.1611 C   0  0  0  0  0  0  0  0  0  0  0  0
   -1.0665    0.7889   -1.0625 C   0  0  0  0  0  0  0  0  0  0  0  0
   -1.7716    0.7068   -2.0565 O   0  0  0  0  0  0  0  0  0  0  0  0
   -1.4546    0.2424    0.1324 N   0  0  0  0  0  0  0  0  0  0  0  0
   -2.6425   -0.5129    0.4253 C   0  0  0  0  0  0  0  0  0  0  0  0
   -2.8296   -0.9465    1.7539 C   0  0  0  0  0  0  0  0  0  0  0  0
   -3.9572   -1.6822    2.1239 C   0  0  0  0  0  0  0  0  0  0  0  0
   -4.9242   -2.0007    1.1727 C   0  0  0  0  0  0  0  0  0  0  0  0
   -4.7629   -1.5854   -0.1491 C   0  0  0  0  0  0  0  0  0  0  0  0
   -3.6340   -0.8481   -0.5288 C   0  0  0  0  0  0  0  0  0  0  0  0
   -1.0404    5.2414    1.1917 H   0  0  0  0  0  0  0  0  0  0  0  0
    0.7172    4.9005    0.9467 H   0  0  0  0  0  0  0  0  0  0  0  0
   -0.2426    3.9100    2.1199 H   0  0  0  0  0  0  0  0  0  0  0  0
   -0.6602    4.0536   -0.9084 H   0  0  0  0  0  0  0  0  0  0  0  0
   -1.6214    3.0310    0.2542 H   0  0  0  0  0  0  0  0  0  0  0  0
    0.9660    3.0139   -2.2929 H   0  0  0  0  0  0  0  0  0  0  0  0
    0.9064   -0.5949    0.3281 H   0  0  0  0  0  0  0  0  0  0  0  0
    4.2655    0.2121   -1.0563 H   0  0  0  0  0  0  0  0  0  0  0  0
    6.1514   -1.3322   -0.9634 H   0  0  0  0  0  0  0  0  0  0  0  0
    5.8395   -3.6570   -0.1714 H   0  0  0  0  0  0  0  0  0  0  0  0
    3.5989   -4.4307    0.5481 H   0  0  0  0  0  0  0  0  0  0  0  0
    1.6720   -2.8934    0.4816 H   0  0  0  0  0  0  0  0  0  0  0  0
   -0.8404    0.4234    0.9410 H   0  0  0  0  0  0  0  0  0  0  0  0
   -2.0942   -0.7119    2.5146 H   0  0  0  0  0  0  0  0  0  0  0  0
   -4.0811   -2.0043    3.1500 H   0  0  0  0  0  0  0  0  0  0  0  0
   -5.7991   -2.5697    1.4598 H   0  0  0  0  0  0  0  0  0  0  0  0
   -5.5161   -1.8346   -0.8849 H   0  0  0  0  0  0  0  0  0  0  0  0
   -3.5774   -0.5646   -1.5630 H   0  0  0  0  0  0  0  0  0  0  0  0
  1  2  1  0  0  0  0
  1 24  1  0  0  0  0
  1 25  1  0  0  0  0
  1 26  1  0  0  0  0
  2  3  1  0  0  0  0
  2 27  1  0  0  0  0
  2 28  1  0  0  0  0
  3  4  1  0  0  0  0
  4  5  1  0  0  0  0
  4  6  1  0  0  0  0
  4 15  1  0  0  0  0
  5 29  1  0  0  0  0
  6  7  2  0  0  0  0
  6  8  1  0  0  0  0
  8  9  1  0  0  0  0
  8 30  1  0  0  0  0
  9 10  2  0  0  0  0
 10 11  1  0  0  0  0
 10 31  1  0  0  0  0
 11 12  2  0  0  0  0
 11 32  1  0  0  0  0
 12 13  1  0  0  0  0
 12 33  1  0  0  0  0
 13 14  2  0  0  0  0
 13 34  1  0  0  0  0
 14  9  1  0  0  0  0
 14 35  1  0  0  0  0
 15 16  2  0  0  0  0
 15 17  1  0  0  0  0
 17 18  1  0  0  0  0
 17 36  1  0  0  0  0
 18 19  2  0  0  0  0
 19 20  1  0  0  0  0
 19 37  1  0  0  0  0
 20 21  2  0  0  0  0
 20 38  1  0  0  0  0
 21 22  1  0  0  0  0
 21 39  1  0  0  0  0
 22 23  2  0  0  0  0
 22 40  1  0  0  0  0
 23 18  1  0  0  0  0
 23 41  1  0  0  0  0
M  END
>  <IDENTIFIER>
CNP0118249.0

>  <Energy>
352.935

$$$$
