
 OpenBabel09052509453D

 50 49  0  0  0  0  0  0  0  0999 V2000
    6.8305   -1.9045    0.9395 C   0  0  0  0  0  0  0  0  0  0  0  0
    6.5399   -0.4554    0.5457 C   0  0  0  0  0  0  0  0  0  0  0  0
    5.0396   -0.1198    0.5070 C   0  0  0  0  0  0  0  0  0  0  0  0
    4.2690   -0.8998   -0.5751 C   0  0  0  0  0  0  0  0  0  0  0  0
    2.7617   -0.5963   -0.5791 C   0  0  0  0  0  0  0  0  0  0  0  0
    2.4174    0.8528   -0.9758 C   0  0  0  0  0  0  0  0  0  0  0  0
    0.9097    1.1450   -0.8887 C   0  0  0  0  0  0  0  0  0  0  0  0
    0.0633    0.3274   -1.8846 C   0  0  0  0  0  0  0  0  0  0  0  0
   -1.4422    0.6475   -1.8159 C   0  0  0  0  0  0  0  0  0  0  0  0
   -2.0726    0.2470   -0.4643 C   0  0  0  0  0  0  0  0  0  0  0  0
   -3.5995    0.5354   -0.3487 C   0  0  1  0  0  0  0  0  0  0  0  0
   -4.3875   -0.2517   -1.4246 C   0  0  0  0  0  0  0  0  0  0  0  0
   -4.1758    0.2702    1.1070 C   0  0  0  0  0  0  0  0  0  0  0  0
   -3.9826   -1.2085    1.5414 C   0  0  0  0  0  0  0  0  0  0  0  0
   -3.4733    1.1597    2.1632 C   0  0  0  0  0  0  0  0  0  0  0  0
   -5.6656    0.6342    1.1386 C   0  0  0  0  0  0  0  0  0  0  0  0
   -6.5053   -0.2052    1.4284 O   0  0  0  0  0  0  0  0  0  0  0  0
   -6.0855    1.8861    0.8462 O   0  0  0  0  0  0  0  0  0  0  0  0
    7.9290   -2.0545    1.0016 H   0  0  0  0  0  0  0  0  0  0  0  0
    6.4354   -2.6161    0.1871 H   0  0  0  0  0  0  0  0  0  0  0  0
    6.3854   -2.1302    1.9318 H   0  0  0  0  0  0  0  0  0  0  0  0
    7.0008   -0.2374   -0.4421 H   0  0  0  0  0  0  0  0  0  0  0  0
    7.0173    0.2030    1.3034 H   0  0  0  0  0  0  0  0  0  0  0  0
    4.9582    0.9673    0.3042 H   0  0  0  0  0  0  0  0  0  0  0  0
    4.5954   -0.3240    1.5059 H   0  0  0  0  0  0  0  0  0  0  0  0
    4.3687   -1.9861   -0.3738 H   0  0  0  0  0  0  0  0  0  0  0  0
    4.6976   -0.6885   -1.5791 H   0  0  0  0  0  0  0  0  0  0  0  0
    2.3480   -0.8207    0.4287 H   0  0  0  0  0  0  0  0  0  0  0  0
    2.2959   -1.2895   -1.3090 H   0  0  0  0  0  0  0  0  0  0  0  0
    2.7894    1.0663   -2.0015 H   0  0  0  0  0  0  0  0  0  0  0  0
    2.9106    1.5539   -0.2725 H   0  0  0  0  0  0  0  0  0  0  0  0
    0.7527    2.2247   -1.1039 H   0  0  0  0  0  0  0  0  0  0  0  0
    0.5948    0.9493    0.1559 H   0  0  0  0  0  0  0  0  0  0  0  0
    0.1883   -0.7607   -1.7094 H   0  0  0  0  0  0  0  0  0  0  0  0
    0.4200    0.5583   -2.9121 H   0  0  0  0  0  0  0  0  0  0  0  0
   -1.9177    0.0694   -2.6330 H   0  0  0  0  0  0  0  0  0  0  0  0
   -1.6056    1.7302   -2.0078 H   0  0  0  0  0  0  0  0  0  0  0  0
   -1.5583    0.8342    0.3124 H   0  0  0  0  0  0  0  0  0  0  0  0
   -1.8762   -0.8319   -0.2930 H   0  0  0  0  0  0  0  0  0  0  0  0
   -3.7428    1.6159   -0.5686 H   0  0  0  0  0  0  0  0  0  0  0  0
   -4.2340   -1.3448   -1.3193 H   0  0  0  0  0  0  0  0  0  0  0  0
   -4.0819    0.0450   -2.4463 H   0  0  0  0  0  0  0  0  0  0  0  0
   -5.4734   -0.0346   -1.3646 H   0  0  0  0  0  0  0  0  0  0  0  0
   -2.9092   -1.4839    1.5850 H   0  0  0  0  0  0  0  0  0  0  0  0
   -4.5006   -1.9088    0.8555 H   0  0  0  0  0  0  0  0  0  0  0  0
   -4.3983   -1.3710    2.5597 H   0  0  0  0  0  0  0  0  0  0  0  0
   -2.4035    0.8990    2.2880 H   0  0  0  0  0  0  0  0  0  0  0  0
   -3.9465    1.0217    3.1600 H   0  0  0  0  0  0  0  0  0  0  0  0
   -3.5417    2.2350    1.8950 H   0  0  0  0  0  0  0  0  0  0  0  0
   -5.4778    2.5995    0.6104 H   0  0  0  0  0  0  0  0  0  0  0  0
  1  2  1  0  0  0  0
  1 19  1  0  0  0  0
  1 20  1  0  0  0  0
  1 21  1  0  0  0  0
  2  3  1  0  0  0  0
  2 22  1  0  0  0  0
  2 23  1  0  0  0  0
  3  4  1  0  0  0  0
  3 24  1  0  0  0  0
  3 25  1  0  0  0  0
  4  5  1  0  0  0  0
  4 26  1  0  0  0  0
  4 27  1  0  0  0  0
  5  6  1  0  0  0  0
  5 28  1  0  0  0  0
  5 29  1  0  0  0  0
  6  7  1  0  0  0  0
  6 30  1  0  0  0  0
  6 31  1  0  0  0  0
  7  8  1  0  0  0  0
  7 32  1  0  0  0  0
  7 33  1  0  0  0  0
  8  9  1  0  0  0  0
  8 34  1  0  0  0  0
  8 35  1  0  0  0  0
  9 10  1  0  0  0  0
  9 36  1  0  0  0  0
  9 37  1  0  0  0  0
 10 11  1  0  0  0  0
 10 38  1  0  0  0  0
 10 39  1  0  0  0  0
 11 12  1  0  0  0  0
 11 13  1  0  0  0  0
 11 40  1  6  0  0  0
 12 41  1  0  0  0  0
 12 42  1  0  0  0  0
 12 43  1  0  0  0  0
 13 14  1  0  0  0  0
 13 15  1  0  0  0  0
 13 16  1  0  0  0  0
 14 44  1  0  0  0  0
 14 45  1  0  0  0  0
 14 46  1  0  0  0  0
 15 47  1  0  0  0  0
 15 48  1  0  0  0  0
 15 49  1  0  0  0  0
 16 17  2  0  0  0  0
 16 18  1  0  0  0  0
 18 50  1  0  0  0  0
M  END
>  <IDENTIFIER>
CNP0083989.0

>  <Energy>
147.51

$$$$
