
 OpenBabel09062506493D

 50 54  0  0  0  0  0  0  0  0999 V2000
   -3.7161    1.7918    0.7799 C   0  0  0  0  0  0  0  0  0  0  0  0
   -3.3077    0.6351   -0.1535 C   0  0  2  0  0  0  0  0  0  0  0  0
   -4.3813    0.2942   -1.1711 C   0  0  0  0  0  0  0  0  0  0  0  0
   -4.0687   -0.6969   -0.0194 C   0  0  1  0  0  0  0  0  0  0  0  0
   -3.1297   -1.9032   -0.3097 C   0  0  0  0  0  0  0  0  0  0  0  0
   -1.8528   -1.7842    0.5456 C   0  0  0  0  0  0  0  0  0  0  0  0
   -0.9889   -0.4886    0.2518 C   0  0  2  0  0  0  0  0  0  0  0  0
   -0.6358    0.1454    1.6212 C   0  0  0  0  0  0  0  0  0  0  0  0
   -1.8462    0.4845   -0.6574 C   0  0  2  0  0  0  0  0  0  0  0  0
   -1.1340    1.8094   -1.0044 C   0  0  0  0  0  0  0  0  0  0  0  0
    0.1586    1.5104   -1.7873 C   0  0  2  0  0  0  0  0  0  0  0  0
   -0.1735    0.9416   -3.0291 O   0  0  0  0  0  0  0  0  0  0  0  0
    0.9984    0.5353   -0.9912 C   0  0  0  0  0  0  0  0  0  0  0  0
    2.2816    0.8491   -0.6910 C   0  0  0  0  0  0  0  0  0  0  0  0
    3.0708   -0.1049    0.0918 C   0  0  0  0  0  0  0  0  0  0  0  0
    4.3885   -0.2602    0.1456 C   0  0  0  0  0  0  0  0  0  0  0  0
    5.4501    0.5398   -0.5604 C   0  0  0  0  0  0  0  0  0  0  0  0
    6.3500    1.0755    0.3693 O   0  0  0  0  0  0  0  0  0  0  0  0
    4.5943   -1.4352    0.9718 C   0  0  0  0  0  0  0  0  0  0  0  0
    5.6748   -1.9340    1.2369 O   0  0  0  0  0  0  0  0  0  0  0  0
    3.4145   -1.9522    1.3739 O   0  0  0  0  0  0  0  0  0  0  0  0
    2.3895   -1.1353    0.9288 C   0  0  2  0  0  0  0  0  0  0  0  0
    1.3648   -1.8278    0.0324 C   0  0  0  0  0  0  0  0  0  0  0  0
    0.3275   -0.8051   -0.5756 C   0  0  1  0  0  0  0  0  0  0  0  0
   -4.8001    1.7574    1.0245 H   0  0  0  0  0  0  0  0  0  0  0  0
   -3.5116    2.7620    0.2825 H   0  0  0  0  0  0  0  0  0  0  0  0
   -3.1639    1.7642    1.7343 H   0  0  0  0  0  0  0  0  0  0  0  0
   -4.1225   -0.2071   -2.1277 H   0  0  0  0  0  0  0  0  0  0  0  0
   -5.4290    0.6192   -0.9997 H   0  0  0  0  0  0  0  0  0  0  0  0
   -4.5276   -0.6474    0.9917 H   0  0  0  0  0  0  0  0  0  0  0  0
   -2.8613   -1.9974   -1.3837 H   0  0  0  0  0  0  0  0  0  0  0  0
   -3.6732   -2.8330   -0.0386 H   0  0  0  0  0  0  0  0  0  0  0  0
   -1.2566   -2.7113    0.4703 H   0  0  0  0  0  0  0  0  0  0  0  0
   -2.2339   -1.7611    1.5920 H   0  0  0  0  0  0  0  0  0  0  0  0
   -1.5451    0.4298    2.1771 H   0  0  0  0  0  0  0  0  0  0  0  0
    0.0107    1.0405    1.5223 H   0  0  0  0  0  0  0  0  0  0  0  0
   -0.1371   -0.5975    2.2718 H   0  0  0  0  0  0  0  0  0  0  0  0
   -1.9388   -0.0267   -1.6395 H   0  0  0  0  0  0  0  0  0  0  0  0
   -0.9130    2.3801   -0.0779 H   0  0  0  0  0  0  0  0  0  0  0  0
   -1.7895    2.4421   -1.6418 H   0  0  0  0  0  0  0  0  0  0  0  0
    0.6876    2.4730   -1.9749 H   0  0  0  0  0  0  0  0  0  0  0  0
    0.6797    0.7703   -3.5074 H   0  0  0  0  0  0  0  0  0  0  0  0
    2.7325    1.7632   -1.0648 H   0  0  0  0  0  0  0  0  0  0  0  0
    5.0187    1.3506   -1.1869 H   0  0  0  0  0  0  0  0  0  0  0  0
    6.0067   -0.1331   -1.2460 H   0  0  0  0  0  0  0  0  0  0  0  0
    5.9031    1.8650    0.7722 H   0  0  0  0  0  0  0  0  0  0  0  0
    1.9121   -0.6578    1.7986 H   0  0  0  0  0  0  0  0  0  0  0  0
    0.8856   -2.6812    0.5445 H   0  0  0  0  0  0  0  0  0  0  0  0
    1.9461   -2.2561   -0.8165 H   0  0  0  0  0  0  0  0  0  0  0  0
   -0.0309   -1.3088   -1.5016 H   0  0  0  0  0  0  0  0  0  0  0  0
  1 25  1  0  0  0  0
  1 26  1  0  0  0  0
  1 27  1  0  0  0  0
  2  1  1  1  0  0  0
  2  3  1  0  0  0  0
  3 28  1  0  0  0  0
  3 29  1  0  0  0  0
  4  3  1  0  0  0  0
  4  5  1  0  0  0  0
  4  2  1  0  0  0  0
  4 30  1  1  0  0  0
  5  6  1  0  0  0  0
  5 31  1  0  0  0  0
  5 32  1  0  0  0  0
  6  7  1  0  0  0  0
  6 33  1  0  0  0  0
  6 34  1  0  0  0  0
  7  8  1  1  0  0  0
  7  9  1  0  0  0  0
  8 35  1  0  0  0  0
  8 36  1  0  0  0  0
  8 37  1  0  0  0  0
  9 10  1  0  0  0  0
  9  2  1  0  0  0  0
  9 38  1  6  0  0  0
 10 11  1  0  0  0  0
 10 39  1  0  0  0  0
 10 40  1  0  0  0  0
 11 12  1  0  0  0  0
 11 13  1  0  0  0  0
 11 41  1  6  0  0  0
 12 42  1  0  0  0  0
 13 14  2  0  0  0  0
 14 15  1  0  0  0  0
 14 43  1  0  0  0  0
 15 16  2  0  0  0  0
 16 17  1  0  0  0  0
 16 19  1  0  0  0  0
 17 18  1  0  0  0  0
 17 44  1  0  0  0  0
 17 45  1  0  0  0  0
 18 46  1  0  0  0  0
 19 20  2  0  0  0  0
 19 21  1  0  0  0  0
 21 22  1  0  0  0  0
 22 23  1  0  0  0  0
 22 15  1  0  0  0  0
 22 47  1  1  0  0  0
 23 48  1  0  0  0  0
 23 49  1  0  0  0  0
 24 23  1  0  0  0  0
 24  7  1  0  0  0  0
 24 13  1  0  0  0  0
 24 50  1  6  0  0  0
M  END
>  <IDENTIFIER>
CNP0190319.1

>  <Energy>
1899.72

$$$$
