
 OpenBabel09072504323D

 65 71  0  0  0  0  0  0  0  0999 V2000
    5.0659   -1.4383   -0.6294 O   0  0  0  0  0  0  0  0  0  0  0  0
    4.3200   -0.3485   -0.1291 C   0  0  2  0  0  0  0  0  0  0  0  0
    2.8346   -0.7664   -0.1900 C   0  0  0  0  0  0  0  0  0  0  0  0
    2.4641   -1.9686    0.4845 C   0  0  0  0  0  0  0  0  0  0  0  0
    1.1511   -2.4658    0.4441 C   0  0  0  0  0  0  0  0  0  0  0  0
    0.2101   -1.7563   -0.2907 C   0  0  0  0  0  0  0  0  0  0  0  0
    0.5366   -0.5831   -0.9350 C   0  0  0  0  0  0  0  0  0  0  0  0
    1.8276   -0.0576   -0.9074 C   0  0  0  0  0  0  0  0  0  0  0  0
   -0.6291   -0.1201   -1.5209 C   0  0  0  0  0  0  0  0  0  0  0  0
   -1.5899   -1.0569   -1.2372 C   0  0  0  0  0  0  0  0  0  0  0  0
   -3.0432   -0.9272   -1.5605 C   0  0  2  0  0  0  0  0  0  0  0  0
   -3.4223    0.5217   -2.0157 C   0  0  0  0  0  0  0  0  0  0  0  0
   -2.3526    1.6009   -1.6737 C   0  0  0  0  0  0  0  0  0  0  0  0
   -0.9701    1.1565   -2.2163 C   0  0  0  0  0  0  0  0  0  0  0  0
   -3.8568   -1.5667   -0.4854 N   0  0  0  0  0  0  0  0  0  0  0  0
   -3.8759   -0.8695    0.8217 C   0  0  0  0  0  0  0  0  0  0  0  0
   -4.9074    0.2258    0.8420 C   0  0  0  0  0  0  0  0  0  0  0  0
   -6.2494   -0.0668    0.5402 C   0  0  0  0  0  0  0  0  0  0  0  0
   -7.2147    0.9440    0.5675 C   0  0  0  0  0  0  0  0  0  0  0  0
   -6.8501    2.2510    0.9007 C   0  0  0  0  0  0  0  0  0  0  0  0
   -5.5200    2.5490    1.2083 C   0  0  0  0  0  0  0  0  0  0  0  0
   -4.5508    1.5417    1.1807 C   0  0  0  0  0  0  0  0  0  0  0  0
   -3.3926   -2.9802   -0.3442 C   0  0  0  0  0  0  0  0  0  0  0  0
   -1.9224   -3.0835    0.1504 C   0  0  0  0  0  0  0  0  0  0  0  0
   -1.0995   -2.0377   -0.4608 N   0  0  0  0  0  0  0  0  0  0  0  0
    4.7020    0.9593   -0.9416 C   0  0  0  0  0  0  0  0  0  0  0  0
    5.7860    1.7185   -0.2572 N   0  0  2  0  0  0  0  0  0  0  0  0
    6.8521    0.7778    0.1764 C   0  0  0  0  0  0  0  0  0  0  0  0
    6.3546   -0.0953    1.3640 C   0  0  0  0  0  0  0  0  0  0  0  0
    4.8015   -0.0836    1.3445 C   0  0  1  0  0  0  0  0  0  0  0  0
    4.3581    1.3445    1.7617 C   0  0  0  0  0  0  0  0  0  0  0  0
    5.2080    2.3688    0.9506 C   0  0  0  0  0  0  0  0  0  0  0  0
    4.8024   -1.5777   -1.5771 H   0  0  0  0  0  0  0  0  0  0  0  0
    3.2033   -2.5355    1.0352 H   0  0  0  0  0  0  0  0  0  0  0  0
    0.8874   -3.3801    0.9600 H   0  0  0  0  0  0  0  0  0  0  0  0
    2.0083    0.8527   -1.4515 H   0  0  0  0  0  0  0  0  0  0  0  0
   -3.2223   -1.5510   -2.4663 H   0  0  0  0  0  0  0  0  0  0  0  0
   -4.4495    0.8006   -1.7090 H   0  0  0  0  0  0  0  0  0  0  0  0
   -3.4487    0.5140   -3.1294 H   0  0  0  0  0  0  0  0  0  0  0  0
   -2.2894    1.7522   -0.5763 H   0  0  0  0  0  0  0  0  0  0  0  0
   -2.6461    2.5647   -2.1420 H   0  0  0  0  0  0  0  0  0  0  0  0
   -0.1845    1.9224   -2.0446 H   0  0  0  0  0  0  0  0  0  0  0  0
   -1.0617    0.9731   -3.3086 H   0  0  0  0  0  0  0  0  0  0  0  0
   -2.8654   -0.4939    1.0945 H   0  0  0  0  0  0  0  0  0  0  0  0
   -4.1882   -1.5815    1.6181 H   0  0  0  0  0  0  0  0  0  0  0  0
   -6.5452   -1.0765    0.2829 H   0  0  0  0  0  0  0  0  0  0  0  0
   -8.2456    0.7137    0.3321 H   0  0  0  0  0  0  0  0  0  0  0  0
   -7.5989    3.0323    0.9239 H   0  0  0  0  0  0  0  0  0  0  0  0
   -5.2396    3.5605    1.4713 H   0  0  0  0  0  0  0  0  0  0  0  0
   -3.5270    1.7874    1.4296 H   0  0  0  0  0  0  0  0  0  0  0  0
   -3.4501   -3.4667   -1.3437 H   0  0  0  0  0  0  0  0  0  0  0  0
   -4.0664   -3.5707    0.3136 H   0  0  0  0  0  0  0  0  0  0  0  0
   -1.5213   -4.0972   -0.0618 H   0  0  0  0  0  0  0  0  0  0  0  0
   -1.8987   -2.9179    1.2491 H   0  0  0  0  0  0  0  0  0  0  0  0
    3.8560    1.6683   -1.0069 H   0  0  0  0  0  0  0  0  0  0  0  0
    4.9636    0.7182   -1.9943 H   0  0  0  0  0  0  0  0  0  0  0  0
    7.7930    1.3025    0.4483 H   0  0  0  0  0  0  0  0  0  0  0  0
    7.1055    0.1243   -0.6890 H   0  0  0  0  0  0  0  0  0  0  0  0
    6.6834    0.3285    2.3391 H   0  0  0  0  0  0  0  0  0  0  0  0
    6.7957   -1.1120    1.2812 H   0  0  0  0  0  0  0  0  0  0  0  0
    4.4132   -0.8375    2.0607 H   0  0  0  0  0  0  0  0  0  0  0  0
    4.4929    1.5475    2.8460 H   0  0  0  0  0  0  0  0  0  0  0  0
    3.2754    1.4455    1.5300 H   0  0  0  0  0  0  0  0  0  0  0  0
    6.0518    2.7312    1.5819 H   0  0  0  0  0  0  0  0  0  0  0  0
    4.6043    3.2670    0.6988 H   0  0  0  0  0  0  0  0  0  0  0  0
  1 33  1  0  0  0  0
  2  1  1  6  0  0  0
  2  3  1  0  0  0  0
  2 26  1  0  0  0  0
  3  4  2  0  0  0  0
  4  5  1  0  0  0  0
  4 34  1  0  0  0  0
  5  6  2  0  0  0  0
  5 35  1  0  0  0  0
  6  7  1  0  0  0  0
  7  8  2  0  0  0  0
  7  9  1  0  0  0  0
  8  3  1  0  0  0  0
  8 36  1  0  0  0  0
  9 10  2  0  0  0  0
 10 11  1  0  0  0  0
 11 12  1  0  0  0  0
 11 15  1  0  0  0  0
 11 37  1  6  0  0  0
 12 13  1  0  0  0  0
 12 38  1  0  0  0  0
 12 39  1  0  0  0  0
 13 14  1  0  0  0  0
 13 40  1  0  0  0  0
 13 41  1  0  0  0  0
 14  9  1  0  0  0  0
 14 42  1  0  0  0  0
 14 43  1  0  0  0  0
 15 16  1  0  0  0  0
 15 23  1  0  0  0  0
 16 17  1  0  0  0  0
 16 44  1  0  0  0  0
 16 45  1  0  0  0  0
 17 18  2  0  0  0  0
 18 19  1  0  0  0  0
 18 46  1  0  0  0  0
 19 20  2  0  0  0  0
 19 47  1  0  0  0  0
 20 21  1  0  0  0  0
 20 48  1  0  0  0  0
 21 22  2  0  0  0  0
 21 49  1  0  0  0  0
 22 17  1  0  0  0  0
 22 50  1  0  0  0  0
 23 24  1  0  0  0  0
 23 51  1  0  0  0  0
 23 52  1  0  0  0  0
 24 25  1  0  0  0  0
 24 53  1  0  0  0  0
 24 54  1  0  0  0  0
 25  6  1  0  0  0  0
 25 10  1  0  0  0  0
 26 55  1  0  0  0  0
 26 56  1  0  0  0  0
 27 26  1  1  0  0  0
 27 28  1  0  0  0  0
 28 29  1  0  0  0  0
 28 57  1  0  0  0  0
 28 58  1  0  0  0  0
 29 30  1  0  0  0  0
 29 59  1  0  0  0  0
 29 60  1  0  0  0  0
 30 31  1  0  0  0  0
 30  2  1  0  0  0  0
 30 61  1  1  0  0  0
 31 32  1  0  0  0  0
 31 62  1  0  0  0  0
 31 63  1  0  0  0  0
 32 27  1  0  0  0  0
 32 64  1  0  0  0  0
 32 65  1  0  0  0  0
M  END
>  <IDENTIFIER>
CNP0378854.4

>  <Energy>
983.111

$$$$
