
 OpenBabel09122514443D

 38 41  0  0  0  0  0  0  0  0999 V2000
   -3.0973   -1.7036    0.3911 C   0  0  0  0  0  0  0  0  0  0  0  0
   -2.1323   -0.9017   -0.4860 C   0  0  2  0  0  0  0  0  0  0  0  0
   -0.7001   -0.7789    0.0576 C   0  0  1  0  0  0  0  0  0  0  0  0
    0.1896   -2.0023    0.1934 C   0  0  0  0  0  0  0  0  0  0  0  0
    1.5499   -1.5009    0.7357 C   0  0  0  0  0  0  0  0  0  0  0  0
    2.2395   -0.5308   -0.2698 C   0  0  1  0  0  0  0  0  0  0  0  0
    3.6029   -0.0739    0.2902 C   0  0  0  0  0  0  0  0  0  0  0  0
    2.4638   -1.2394   -1.4711 O   0  0  0  0  0  0  0  0  0  0  0  0
    1.3373    0.7107   -0.6421 C   0  0  2  0  0  0  0  0  0  0  0  0
    1.3592    2.0405    0.2130 C   0  0  0  0  0  0  0  0  0  0  0  0
    0.1355    2.2643    1.0520 C   0  0  0  0  0  0  0  0  0  0  0  0
   -1.0425    1.9653    0.4876 C   0  0  0  0  0  0  0  0  0  0  0  0
   -2.3355    1.9252    1.1109 C   0  0  0  0  0  0  0  0  0  0  0  0
   -2.6089    2.3638    2.2165 O   0  0  0  0  0  0  0  0  0  0  0  0
   -3.1603    1.1403    0.3992 O   0  0  0  0  0  0  0  0  0  0  0  0
   -2.5417    0.5913   -0.7255 C   0  0  1  0  0  0  0  0  0  0  0  0
   -1.1734    1.3324   -0.8713 C   0  0  2  0  0  0  0  0  0  0  0  0
   -0.1161    0.2303   -0.9556 C   0  0  2  0  0  0  0  0  0  0  0  0
   -2.7380   -2.7490    0.4921 H   0  0  0  0  0  0  0  0  0  0  0  0
   -4.1052   -1.7184   -0.0744 H   0  0  0  0  0  0  0  0  0  0  0  0
   -3.1718   -1.2552    1.4044 H   0  0  0  0  0  0  0  0  0  0  0  0
   -2.0630   -1.3994   -1.4815 H   0  0  0  0  0  0  0  0  0  0  0  0
   -0.7644   -0.3673    1.0902 H   0  0  0  0  0  0  0  0  0  0  0  0
    0.3118   -2.5203   -0.7826 H   0  0  0  0  0  0  0  0  0  0  0  0
   -0.2600   -2.7149    0.9176 H   0  0  0  0  0  0  0  0  0  0  0  0
    2.2051   -2.3816    0.9129 H   0  0  0  0  0  0  0  0  0  0  0  0
    1.4022   -0.9920    1.7143 H   0  0  0  0  0  0  0  0  0  0  0  0
    4.2631   -0.9488    0.4716 H   0  0  0  0  0  0  0  0  0  0  0  0
    3.4791    0.4437    1.2642 H   0  0  0  0  0  0  0  0  0  0  0  0
    4.1107    0.6056   -0.4268 H   0  0  0  0  0  0  0  0  0  0  0  0
    3.0739   -2.0003   -1.2810 H   0  0  0  0  0  0  0  0  0  0  0  0
    1.7940    1.0862   -1.5890 H   0  0  0  0  0  0  0  0  0  0  0  0
    1.2630    2.8649   -0.5321 H   0  0  0  0  0  0  0  0  0  0  0  0
    2.3122    2.2555    0.7316 H   0  0  0  0  0  0  0  0  0  0  0  0
    0.2079    2.5935    2.0838 H   0  0  0  0  0  0  0  0  0  0  0  0
   -3.2030    0.6834   -1.6131 H   0  0  0  0  0  0  0  0  0  0  0  0
   -1.1050    2.1164   -1.6558 H   0  0  0  0  0  0  0  0  0  0  0  0
   -0.1125   -0.2602   -1.9581 H   0  0  0  0  0  0  0  0  0  0  0  0
  1 19  1  0  0  0  0
  1 20  1  0  0  0  0
  1 21  1  0  0  0  0
  2  1  1  0  0  0  0
  2  3  1  0  0  0  0
  2 22  1  6  0  0  0
  3  4  1  0  0  0  0
  3 23  1  1  0  0  0
  4  5  1  0  0  0  0
  4 24  1  0  0  0  0
  4 25  1  0  0  0  0
  5  6  1  0  0  0  0
  5 26  1  0  0  0  0
  5 27  1  0  0  0  0
  6  7  1  0  0  0  0
  6  8  1  6  0  0  0
  6  9  1  0  0  0  0
  7 28  1  0  0  0  0
  7 29  1  0  0  0  0
  7 30  1  0  0  0  0
  8 31  1  0  0  0  0
  9 10  1  0  0  0  0
  9 32  1  6  0  0  0
 10 11  1  0  0  0  0
 10 33  1  0  0  0  0
 10 34  1  0  0  0  0
 11 12  2  0  0  0  0
 11 35  1  0  0  0  0
 12 13  1  0  0  0  0
 13 14  2  0  0  0  0
 13 15  1  0  0  0  0
 16 15  1  0  0  0  0
 16 17  1  0  0  0  0
 16  2  1  0  0  0  0
 16 36  1  6  0  0  0
 17 18  1  0  0  0  0
 17 12  1  0  0  0  0
 17 37  1  6  0  0  0
 18  3  1  0  0  0  0
 18  9  1  0  0  0  0
 18 38  1  6  0  0  0
M  END
>  <IDENTIFIER>
CNP0198140.1

>  <Energy>
629.807

$$$$
