
 OpenBabel09132512233D

 57 62  0  0  0  0  0  0  0  0999 V2000
   -5.9995   -3.3081   -0.2284 O   0  0  0  0  0  0  0  0  0  0  0  0
   -4.9918   -2.4125   -0.2082 C   0  0  0  0  0  0  0  0  0  0  0  0
   -3.7741   -2.7084    0.4214 C   0  0  0  0  0  0  0  0  0  0  0  0
   -2.7376   -1.7664    0.4358 C   0  0  0  0  0  0  0  0  0  0  0  0
   -2.9072   -0.5131   -0.1820 C   0  0  0  0  0  0  0  0  0  0  0  0
   -1.7993    0.5383   -0.1995 C   0  0  1  0  0  0  0  0  0  0  0  0
   -1.3403    0.9431    1.2176 C   0  0  0  0  0  0  0  0  0  0  0  0
   -2.2993    1.4155    2.1728 C   0  0  0  0  0  0  0  0  0  0  0  0
   -3.6068    1.5841    1.8874 O   0  0  0  0  0  0  0  0  0  0  0  0
   -1.9052    1.7452    3.4715 C   0  0  0  0  0  0  0  0  0  0  0  0
   -0.5755    1.6492    3.8639 C   0  0  0  0  0  0  0  0  0  0  0  0
   -0.1973    1.9674    5.1183 O   0  0  0  0  0  0  0  0  0  0  0  0
    0.3792    1.2363    2.9471 C   0  0  0  0  0  0  0  0  0  0  0  0
    0.0295    0.8843    1.6289 C   0  0  0  0  0  0  0  0  0  0  0  0
    1.1750    0.4688    0.7189 C   0  0  2  0  0  0  0  0  0  0  0  0
    1.2691    1.3822   -0.4777 C   0  0  0  0  0  0  0  0  0  0  0  0
    2.2631    2.3691   -0.6936 C   0  0  0  0  0  0  0  0  0  0  0  0
    3.2314    2.6453    0.2069 O   0  0  0  0  0  0  0  0  0  0  0  0
    2.2459    3.1055   -1.8869 C   0  0  0  0  0  0  0  0  0  0  0  0
    1.2716    2.8618   -2.8661 C   0  0  0  0  0  0  0  0  0  0  0  0
    1.2541    3.5664   -4.0157 O   0  0  0  0  0  0  0  0  0  0  0  0
    0.3073    1.8756   -2.6521 C   0  0  0  0  0  0  0  0  0  0  0  0
    0.3054    1.1476   -1.4557 C   0  0  0  0  0  0  0  0  0  0  0  0
   -0.6942    0.0528   -1.1777 C   0  0  1  0  0  0  0  0  0  0  0  0
   -0.0638   -1.1595   -0.7460 O   0  0  0  0  0  0  0  0  0  0  0  0
    0.9710   -0.9889    0.2336 C   0  0  1  0  0  0  0  0  0  0  0  0
    2.2857   -1.5639   -0.2676 C   0  0  0  0  0  0  0  0  0  0  0  0
    3.0269   -2.4162    0.5740 C   0  0  0  0  0  0  0  0  0  0  0  0
    4.2629   -2.9225    0.1664 C   0  0  0  0  0  0  0  0  0  0  0  0
    4.7746   -2.5973   -1.0958 C   0  0  0  0  0  0  0  0  0  0  0  0
    5.9693   -3.0754   -1.4989 O   0  0  0  0  0  0  0  0  0  0  0  0
    4.0405   -1.7630   -1.9454 C   0  0  0  0  0  0  0  0  0  0  0  0
    2.8079   -1.2427   -1.5345 C   0  0  0  0  0  0  0  0  0  0  0  0
   -4.1349   -0.2335   -0.8169 C   0  0  0  0  0  0  0  0  0  0  0  0
   -5.1665   -1.1727   -0.8256 C   0  0  0  0  0  0  0  0  0  0  0  0
   -5.9226   -4.1791    0.1857 H   0  0  0  0  0  0  0  0  0  0  0  0
   -3.6299   -3.6682    0.9008 H   0  0  0  0  0  0  0  0  0  0  0  0
   -1.8101   -2.0160    0.9313 H   0  0  0  0  0  0  0  0  0  0  0  0
   -2.2143    1.4628   -0.6616 H   0  0  0  0  0  0  0  0  0  0  0  0
   -3.9918    1.5166    1.0103 H   0  0  0  0  0  0  0  0  0  0  0  0
   -2.6486    2.0889    4.1825 H   0  0  0  0  0  0  0  0  0  0  0  0
   -0.8311    2.2608    5.7911 H   0  0  0  0  0  0  0  0  0  0  0  0
    1.4089    1.1887    3.2786 H   0  0  0  0  0  0  0  0  0  0  0  0
    2.1104    0.4927    1.3123 H   0  0  0  0  0  0  0  0  0  0  0  0
    3.3139    2.2213    1.0690 H   0  0  0  0  0  0  0  0  0  0  0  0
    2.9969    3.8677   -2.0554 H   0  0  0  0  0  0  0  0  0  0  0  0
    1.8994    4.2628   -4.2026 H   0  0  0  0  0  0  0  0  0  0  0  0
   -0.4403    1.6822   -3.4116 H   0  0  0  0  0  0  0  0  0  0  0  0
   -1.2108   -0.1648   -2.1396 H   0  0  0  0  0  0  0  0  0  0  0  0
    0.6868   -1.5644    1.1432 H   0  0  0  0  0  0  0  0  0  0  0  0
    2.6603   -2.6722    1.5605 H   0  0  0  0  0  0  0  0  0  0  0  0
    4.8242   -3.5621    0.8365 H   0  0  0  0  0  0  0  0  0  0  0  0
    6.5127   -3.6430   -0.9331 H   0  0  0  0  0  0  0  0  0  0  0  0
    4.4297   -1.5111   -2.9237 H   0  0  0  0  0  0  0  0  0  0  0  0
    2.2662   -0.5965   -2.2098 H   0  0  0  0  0  0  0  0  0  0  0  0
   -4.2967    0.7185   -1.3079 H   0  0  0  0  0  0  0  0  0  0  0  0
   -6.1028   -0.9345   -1.3155 H   0  0  0  0  0  0  0  0  0  0  0  0
  1  2  1  0  0  0  0
  1 36  1  0  0  0  0
  2  3  2  0  0  0  0
  3  4  1  0  0  0  0
  3 37  1  0  0  0  0
  4  5  2  0  0  0  0
  4 38  1  0  0  0  0
  5 34  1  0  0  0  0
  6  5  1  0  0  0  0
  6  7  1  0  0  0  0
  6 39  1  6  0  0  0
  7  8  2  0  0  0  0
  8  9  1  0  0  0  0
  8 10  1  0  0  0  0
  9 40  1  0  0  0  0
 10 11  2  0  0  0  0
 10 41  1  0  0  0  0
 11 12  1  0  0  0  0
 11 13  1  0  0  0  0
 12 42  1  0  0  0  0
 13 14  2  0  0  0  0
 13 43  1  0  0  0  0
 14  7  1  0  0  0  0
 15 14  1  0  0  0  0
 15 16  1  0  0  0  0
 15 44  1  1  0  0  0
 16 17  2  0  0  0  0
 17 18  1  0  0  0  0
 17 19  1  0  0  0  0
 18 45  1  0  0  0  0
 19 20  2  0  0  0  0
 19 46  1  0  0  0  0
 20 21  1  0  0  0  0
 20 22  1  0  0  0  0
 21 47  1  0  0  0  0
 22 23  2  0  0  0  0
 22 48  1  0  0  0  0
 23 24  1  0  0  0  0
 23 16  1  0  0  0  0
 24 25  1  0  0  0  0
 24  6  1  0  0  0  0
 24 49  1  6  0  0  0
 25 26  1  0  0  0  0
 26 27  1  0  0  0  0
 26 15  1  0  0  0  0
 26 50  1  1  0  0  0
 27 28  2  0  0  0  0
 28 29  1  0  0  0  0
 28 51  1  0  0  0  0
 29 30  2  0  0  0  0
 29 52  1  0  0  0  0
 30 31  1  0  0  0  0
 30 32  1  0  0  0  0
 31 53  1  0  0  0  0
 32 33  2  0  0  0  0
 32 54  1  0  0  0  0
 33 27  1  0  0  0  0
 33 55  1  0  0  0  0
 34 35  2  0  0  0  0
 34 56  1  0  0  0  0
 35  2  1  0  0  0  0
 35 57  1  0  0  0  0
M  END
>  <IDENTIFIER>
CNP0184390.1

>  <Energy>
466.204

$$$$
