
 OpenBabel09102522443D

 68 72  0  0  0  0  0  0  0  0999 V2000
    4.2802   -1.2673    1.8587 C   0  0  0  0  0  0  0  0  0  0  0  0
    3.7794   -0.8965    0.4475 C   0  0  1  0  0  0  0  0  0  0  0  0
    4.3153   -1.7784   -0.6769 C   0  0  0  0  0  0  0  0  0  0  0  0
    5.1104   -2.9229   -0.4465 C   0  0  0  0  0  0  0  0  0  0  0  0
    5.5800   -3.6888   -1.5171 C   0  0  0  0  0  0  0  0  0  0  0  0
    5.2691   -3.3277   -2.8341 C   0  0  0  0  0  0  0  0  0  0  0  0
    5.7188   -4.0579   -3.8746 O   0  0  0  0  0  0  0  0  0  0  0  0
    4.4847   -2.1965   -3.0733 C   0  0  0  0  0  0  0  0  0  0  0  0
    4.0118   -1.4284   -2.0057 C   0  0  0  0  0  0  0  0  0  0  0  0
    2.2372   -0.8586    0.4349 C   0  0  0  0  0  0  0  0  0  0  0  0
    1.5137    0.3604    0.2741 C   0  0  0  0  0  0  0  0  0  0  0  0
    2.1327    1.5495    0.0975 O   0  0  0  0  0  0  0  0  0  0  0  0
    0.1021    0.3624    0.3095 C   0  0  0  0  0  0  0  0  0  0  0  0
   -0.7211    1.6552    0.1800 C   0  0  2  0  0  0  0  0  0  0  0  0
   -0.0872    2.6449   -0.6400 O   0  0  0  0  0  0  0  0  0  0  0  0
   -0.9256    3.7919   -0.7141 C   0  0  2  0  0  0  0  0  0  0  0  0
   -0.6301    4.6285   -1.9665 C   0  0  0  0  0  0  0  0  0  0  0  0
    0.6988    5.0686   -1.9732 O   0  0  0  0  0  0  0  0  0  0  0  0
   -0.9183    4.5758    0.6404 C   0  0  2  0  0  0  0  0  0  0  0  0
   -0.1100    5.7294    0.6489 O   0  0  0  0  0  0  0  0  0  0  0  0
   -0.5642    3.6287    1.8300 C   0  0  2  0  0  0  0  0  0  0  0  0
    0.8268    3.5299    2.0422 O   0  0  0  0  0  0  0  0  0  0  0  0
   -1.1407    2.2122    1.5941 C   0  0  1  0  0  0  0  0  0  0  0  0
   -2.5395    2.2024    1.7505 O   0  0  0  0  0  0  0  0  0  0  0  0
   -0.5919   -0.8527    0.4894 C   0  0  0  0  0  0  0  0  0  0  0  0
   -1.9240   -0.8227    0.5163 O   0  0  0  0  0  0  0  0  0  0  0  0
   -2.7025   -1.8880    0.6565 C   0  0  0  0  0  0  0  0  0  0  0  0
   -4.1850   -1.6880    0.6568 C   0  0  0  0  0  0  0  0  0  0  0  0
   -4.6987   -0.3809    0.5179 C   0  0  0  0  0  0  0  0  0  0  0  0
   -6.0756   -0.1451    0.5152 C   0  0  0  0  0  0  0  0  0  0  0  0
   -6.9731   -1.2106    0.6491 C   0  0  0  0  0  0  0  0  0  0  0  0
   -8.3046   -0.9968    0.6487 O   0  0  0  0  0  0  0  0  0  0  0  0
   -6.4830   -2.5107    0.7836 C   0  0  0  0  0  0  0  0  0  0  0  0
   -5.1053   -2.7525    0.7886 C   0  0  0  0  0  0  0  0  0  0  0  0
   -2.1001   -3.1426    0.7927 C   0  0  0  0  0  0  0  0  0  0  0  0
   -0.7101   -3.2458    0.7803 C   0  0  0  0  0  0  0  0  0  0  0  0
   -0.2309   -4.3566    0.9033 O   0  0  0  0  0  0  0  0  0  0  0  0
    0.0956   -2.0828    0.6251 C   0  0  0  0  0  0  0  0  0  0  0  0
    1.5234   -2.0772    0.6006 C   0  0  0  0  0  0  0  0  0  0  0  0
    2.2622   -3.2078    0.7235 O   0  0  0  0  0  0  0  0  0  0  0  0
    5.3902   -1.2332    1.8921 H   0  0  0  0  0  0  0  0  0  0  0  0
    3.9504   -2.2739    2.1839 H   0  0  0  0  0  0  0  0  0  0  0  0
    3.8978   -0.5286    2.5954 H   0  0  0  0  0  0  0  0  0  0  0  0
    4.2281    0.0897    0.2642 H   0  0  0  0  0  0  0  0  0  0  0  0
    5.3748   -3.2378    0.5527 H   0  0  0  0  0  0  0  0  0  0  0  0
    6.1873   -4.5635   -1.3203 H   0  0  0  0  0  0  0  0  0  0  0  0
    6.2661   -4.8466   -3.7504 H   0  0  0  0  0  0  0  0  0  0  0  0
    4.2416   -1.9100   -4.0886 H   0  0  0  0  0  0  0  0  0  0  0  0
    3.4079   -0.5538   -2.2147 H   0  0  0  0  0  0  0  0  0  0  0  0
    3.0762    1.7273    0.0543 H   0  0  0  0  0  0  0  0  0  0  0  0
   -1.6376    1.3477   -0.3744 H   0  0  0  0  0  0  0  0  0  0  0  0
   -1.9765    3.4542   -0.8882 H   0  0  0  0  0  0  0  0  0  0  0  0
   -1.3301    5.4951   -1.9924 H   0  0  0  0  0  0  0  0  0  0  0  0
   -0.8002    3.9936   -2.8646 H   0  0  0  0  0  0  0  0  0  0  0  0
    0.7632    5.7362   -2.7048 H   0  0  0  0  0  0  0  0  0  0  0  0
   -1.9618    4.9415    0.7616 H   0  0  0  0  0  0  0  0  0  0  0  0
    0.8166    5.4715    0.4172 H   0  0  0  0  0  0  0  0  0  0  0  0
   -0.9693    4.0687    2.7666 H   0  0  0  0  0  0  0  0  0  0  0  0
    1.2934    3.4923    1.1738 H   0  0  0  0  0  0  0  0  0  0  0  0
   -0.7464    1.5544    2.4007 H   0  0  0  0  0  0  0  0  0  0  0  0
   -2.9403    2.7994    1.0705 H   0  0  0  0  0  0  0  0  0  0  0  0
   -4.0361    0.4663    0.4100 H   0  0  0  0  0  0  0  0  0  0  0  0
   -6.4429    0.8685    0.4092 H   0  0  0  0  0  0  0  0  0  0  0  0
   -8.6829   -0.1108    0.5581 H   0  0  0  0  0  0  0  0  0  0  0  0
   -7.1725   -3.3396    0.8856 H   0  0  0  0  0  0  0  0  0  0  0  0
   -4.7869   -3.7765    0.8957 H   0  0  0  0  0  0  0  0  0  0  0  0
   -2.6789   -4.0461    0.9092 H   0  0  0  0  0  0  0  0  0  0  0  0
    1.9621   -4.1129    0.8353 H   0  0  0  0  0  0  0  0  0  0  0  0
  1 41  1  0  0  0  0
  1 42  1  0  0  0  0
  1 43  1  0  0  0  0
  2  1  1  0  0  0  0
  2  3  1  0  0  0  0
  2 10  1  0  0  0  0
  2 44  1  6  0  0  0
  3  4  2  0  0  0  0
  4  5  1  0  0  0  0
  4 45  1  0  0  0  0
  5  6  2  0  0  0  0
  5 46  1  0  0  0  0
  6  7  1  0  0  0  0
  6  8  1  0  0  0  0
  7 47  1  0  0  0  0
  8  9  2  0  0  0  0
  8 48  1  0  0  0  0
  9  3  1  0  0  0  0
  9 49  1  0  0  0  0
 10 11  2  0  0  0  0
 11 12  1  0  0  0  0
 11 13  1  0  0  0  0
 12 50  1  0  0  0  0
 13 25  2  0  0  0  0
 14 13  1  0  0  0  0
 14 15  1  0  0  0  0
 14 51  1  6  0  0  0
 15 16  1  0  0  0  0
 16 17  1  0  0  0  0
 16 19  1  0  0  0  0
 16 52  1  6  0  0  0
 17 18  1  0  0  0  0
 17 53  1  0  0  0  0
 17 54  1  0  0  0  0
 18 55  1  0  0  0  0
 19 20  1  0  0  0  0
 19 21  1  0  0  0  0
 19 56  1  1  0  0  0
 20 57  1  0  0  0  0
 21 22  1  0  0  0  0
 21 23  1  0  0  0  0
 21 58  1  1  0  0  0
 22 59  1  0  0  0  0
 23 24  1  0  0  0  0
 23 14  1  0  0  0  0
 23 60  1  1  0  0  0
 24 61  1  0  0  0  0
 25 26  1  0  0  0  0
 26 27  1  0  0  0  0
 27 28  1  0  0  0  0
 27 35  2  0  0  0  0
 28 29  2  0  0  0  0
 29 30  1  0  0  0  0
 29 62  1  0  0  0  0
 30 31  2  0  0  0  0
 30 63  1  0  0  0  0
 31 32  1  0  0  0  0
 31 33  1  0  0  0  0
 32 64  1  0  0  0  0
 33 34  2  0  0  0  0
 33 65  1  0  0  0  0
 34 28  1  0  0  0  0
 34 66  1  0  0  0  0
 35 36  1  0  0  0  0
 35 67  1  0  0  0  0
 36 37  2  0  0  0  0
 36 38  1  0  0  0  0
 38 39  2  0  0  0  0
 38 25  1  0  0  0  0
 39 40  1  0  0  0  0
 39 10  1  0  0  0  0
 40 68  1  0  0  0  0
M  END
>  <IDENTIFIER>
CNP0221132.1

>  <Energy>
752.244

$$$$
