
 OpenBabel09122514303D

123129  0  0  0  0  0  0  0  0999 V2000
   -9.5065    3.2541    0.0807 C   0  0  0  0  0  0  0  0  0  0  0  0
   -8.8549    1.9506    0.5814 C   0  0  0  0  0  0  0  0  0  0  0  0
   -9.4764    1.6148    1.9663 C   0  0  0  0  0  0  0  0  0  0  0  0
   -9.1819    0.7756   -0.3725 C   0  0  0  0  0  0  0  0  0  0  0  0
   -8.3882    0.8770   -1.6779 C   0  0  0  0  0  0  0  0  0  0  0  0
   -6.8573    0.7075   -1.4437 C   0  0  2  0  0  0  0  0  0  0  0  0
   -6.1983    0.9432   -2.8295 C   0  0  0  0  0  0  0  0  0  0  0  0
   -5.5597    0.0669   -3.3853 O   0  0  0  0  0  0  0  0  0  0  0  0
   -6.3409    2.1222   -3.4795 O   0  0  0  0  0  0  0  0  0  0  0  0
   -6.5532   -0.7740   -0.9511 C   0  0  0  0  0  0  0  0  0  0  0  0
   -6.1545   -0.8792    0.5296 C   0  0  0  0  0  0  0  0  0  0  0  0
   -4.8701   -0.0278    0.8979 C   0  0  2  0  0  0  0  0  0  0  0  0
   -4.9371    0.2244    2.4594 C   0  0  0  0  0  0  0  0  0  0  0  0
   -4.9802    1.3365    0.1633 C   0  0  0  0  0  0  0  0  0  0  0  0
   -3.8757    2.0727   -0.0566 C   0  0  0  0  0  0  0  0  0  0  0  0
   -2.4633    1.6361    0.2885 C   0  0  0  0  0  0  0  0  0  0  0  0
   -2.2620    0.2264    0.9761 C   0  0  2  0  0  0  0  0  0  0  0  0
   -0.7788   -0.4252    0.7860 C   0  0  2  0  0  0  0  0  0  0  0  0
   -0.3949   -1.1750    2.1037 C   0  0  0  0  0  0  0  0  0  0  0  0
    0.3311    0.7031    0.6281 C   0  0  0  0  0  0  0  0  0  0  0  0
    1.1451    0.6358   -0.6747 C   0  0  0  0  0  0  0  0  0  0  0  0
    1.8024   -0.7412   -0.8016 C   0  0  1  0  0  0  0  0  0  0  0  0
    2.5935   -0.9483    0.3712 O   0  0  0  0  0  0  0  0  0  0  0  0
    3.9518   -1.2861    0.1002 C   0  0  2  0  0  0  0  0  0  0  0  0
    4.0963   -2.6915    0.2039 O   0  0  0  0  0  0  0  0  0  0  0  0
    5.4118   -3.1082   -0.1243 C   0  0  2  0  0  0  0  0  0  0  0  0
    5.4433   -4.6453   -0.1158 C   0  0  0  0  0  0  0  0  0  0  0  0
    4.5196   -5.1599   -1.0347 O   0  0  0  0  0  0  0  0  0  0  0  0
    6.4163   -2.5371    0.9145 C   0  0  1  0  0  0  0  0  0  0  0  0
    7.7386   -2.9463    0.6546 O   0  0  0  0  0  0  0  0  0  0  0  0
    6.3177   -0.9978    0.9591 C   0  0  1  0  0  0  0  0  0  0  0  0
    6.8070   -0.4597   -0.2671 O   0  0  0  0  0  0  0  0  0  0  0  0
    7.8508    0.4815   -0.0536 C   0  0  2  0  0  0  0  0  0  0  0  0
    7.2982    1.7441    0.2613 O   0  0  0  0  0  0  0  0  0  0  0  0
    8.2896    2.6616    0.7392 C   0  0  2  0  0  0  0  0  0  0  0  0
    7.7643    4.0910    0.5053 C   0  0  0  0  0  0  0  0  0  0  0  0
    6.5392    4.2761    1.1637 O   0  0  0  0  0  0  0  0  0  0  0  0
    9.7103    2.4659    0.0895 C   0  0  1  0  0  0  0  0  0  0  0  0
   10.4606    1.5330    0.8279 O   0  0  0  0  0  0  0  0  0  0  0  0
    9.5436    1.9286   -1.3472 C   0  0  2  0  0  0  0  0  0  0  0  0
    8.9307    2.9118   -2.1531 O   0  0  0  0  0  0  0  0  0  0  0  0
    8.7245    0.5890   -1.3337 C   0  0  1  0  0  0  0  0  0  0  0  0
    9.5550   -0.5367   -1.4347 O   0  0  0  0  0  0  0  0  0  0  0  0
    4.8389   -0.6071    1.1688 C   0  0  1  0  0  0  0  0  0  0  0  0
    4.6763    0.7897    1.1771 O   0  0  0  0  0  0  0  0  0  0  0  0
    0.7146   -1.8676   -0.9949 C   0  0  0  0  0  0  0  0  0  0  0  0
    0.6495   -2.2152   -2.5095 C   0  0  0  0  0  0  0  0  0  0  0  0
    1.1754   -3.1959   -0.3242 C   0  0  0  0  0  0  0  0  0  0  0  0
   -0.7380   -1.4625   -0.4443 C   0  0  2  0  0  0  0  0  0  0  0  0
   -1.7704   -0.9991   -1.5085 C   0  0  0  0  0  0  0  0  0  0  0  0
   -3.2394   -1.0159   -0.9829 C   0  0  0  0  0  0  0  0  0  0  0  0
   -3.4413   -0.7309    0.5500 C   0  0  2  0  0  0  0  0  0  0  0  0
   -3.3950   -2.1028    1.3281 C   0  0  0  0  0  0  0  0  0  0  0  0
   -6.3434    1.8037   -0.4203 C   0  0  2  0  0  0  0  0  0  0  0  0
   -7.3156    2.1098    0.7709 C   0  0  0  0  0  0  0  0  0  0  0  0
  -10.6073    3.1124   -0.0037 H   0  0  0  0  0  0  0  0  0  0  0  0
   -9.1149    3.5816   -0.9007 H   0  0  0  0  0  0  0  0  0  0  0  0
   -9.3333    4.0727    0.8119 H   0  0  0  0  0  0  0  0  0  0  0  0
  -10.5716    1.4562    1.8982 H   0  0  0  0  0  0  0  0  0  0  0  0
   -9.2635    2.4187    2.7031 H   0  0  0  0  0  0  0  0  0  0  0  0
   -9.0351    0.6725    2.3693 H   0  0  0  0  0  0  0  0  0  0  0  0
  -10.2695    0.7653   -0.5906 H   0  0  0  0  0  0  0  0  0  0  0  0
   -8.9569   -0.2019    0.0978 H   0  0  0  0  0  0  0  0  0  0  0  0
   -8.6237    1.8437   -2.1626 H   0  0  0  0  0  0  0  0  0  0  0  0
   -8.7398    0.0854   -2.3778 H   0  0  0  0  0  0  0  0  0  0  0  0
   -6.8499    2.8664   -3.1390 H   0  0  0  0  0  0  0  0  0  0  0  0
   -5.7299   -1.2336   -1.5032 H   0  0  0  0  0  0  0  0  0  0  0  0
   -7.4027   -1.4483   -1.1853 H   0  0  0  0  0  0  0  0  0  0  0  0
   -6.0821   -1.9342    0.8365 H   0  0  0  0  0  0  0  0  0  0  0  0
   -7.0343   -0.5607    1.1013 H   0  0  0  0  0  0  0  0  0  0  0  0
   -5.8712    0.6370    2.8529 H   0  0  0  0  0  0  0  0  0  0  0  0
   -4.1861    0.9472    2.8215 H   0  0  0  0  0  0  0  0  0  0  0  0
   -4.8762   -0.7080    3.0419 H   0  0  0  0  0  0  0  0  0  0  0  0
   -3.9690    3.0148   -0.5906 H   0  0  0  0  0  0  0  0  0  0  0  0
   -2.0138    2.4322    0.9159 H   0  0  0  0  0  0  0  0  0  0  0  0
   -1.9463    1.6587   -0.6845 H   0  0  0  0  0  0  0  0  0  0  0  0
   -2.3504    0.4546    2.0521 H   0  0  0  0  0  0  0  0  0  0  0  0
   -0.4449   -0.4773    2.9678 H   0  0  0  0  0  0  0  0  0  0  0  0
    0.6427   -1.5490    2.0739 H   0  0  0  0  0  0  0  0  0  0  0  0
   -1.0275   -2.0353    2.3570 H   0  0  0  0  0  0  0  0  0  0  0  0
    1.0750    0.6385    1.4543 H   0  0  0  0  0  0  0  0  0  0  0  0
   -0.0311    1.7299    0.7736 H   0  0  0  0  0  0  0  0  0  0  0  0
    1.9380    1.4148   -0.6318 H   0  0  0  0  0  0  0  0  0  0  0  0
    0.5177    0.8579   -1.5607 H   0  0  0  0  0  0  0  0  0  0  0  0
    2.4297   -0.6956   -1.7205 H   0  0  0  0  0  0  0  0  0  0  0  0
    4.2976   -0.9231   -0.8938 H   0  0  0  0  0  0  0  0  0  0  0  0
    5.6704   -2.7773   -1.1575 H   0  0  0  0  0  0  0  0  0  0  0  0
    5.2345   -5.0288    0.9119 H   0  0  0  0  0  0  0  0  0  0  0  0
    6.4542   -5.0102   -0.3943 H   0  0  0  0  0  0  0  0  0  0  0  0
    3.6962   -5.3866   -0.5233 H   0  0  0  0  0  0  0  0  0  0  0  0
    6.1233   -2.9282    1.9115 H   0  0  0  0  0  0  0  0  0  0  0  0
    7.9427   -2.7389   -0.2928 H   0  0  0  0  0  0  0  0  0  0  0  0
    6.8853   -0.6459    1.8545 H   0  0  0  0  0  0  0  0  0  0  0  0
    8.5176    0.1446    0.7714 H   0  0  0  0  0  0  0  0  0  0  0  0
    8.3820    2.5716    1.8464 H   0  0  0  0  0  0  0  0  0  0  0  0
    7.6547    4.3439   -0.5697 H   0  0  0  0  0  0  0  0  0  0  0  0
    8.4895    4.8229    0.9205 H   0  0  0  0  0  0  0  0  0  0  0  0
    5.8325    3.9359    0.5539 H   0  0  0  0  0  0  0  0  0  0  0  0
   10.2884    3.4195    0.0816 H   0  0  0  0  0  0  0  0  0  0  0  0
   10.7032    1.9721    1.6853 H   0  0  0  0  0  0  0  0  0  0  0  0
   10.5323    1.7348   -1.8186 H   0  0  0  0  0  0  0  0  0  0  0  0
    7.9467    2.7879   -2.1384 H   0  0  0  0  0  0  0  0  0  0  0  0
    8.0856    0.5864   -2.2431 H   0  0  0  0  0  0  0  0  0  0  0  0
   10.2274   -0.4921   -0.7044 H   0  0  0  0  0  0  0  0  0  0  0  0
    4.5111   -0.9903    2.1607 H   0  0  0  0  0  0  0  0  0  0  0  0
    4.7466    1.1113    0.2409 H   0  0  0  0  0  0  0  0  0  0  0  0
    1.6420   -2.5548   -2.8812 H   0  0  0  0  0  0  0  0  0  0  0  0
    0.3697   -1.3264   -3.1140 H   0  0  0  0  0  0  0  0  0  0  0  0
   -0.0687   -3.0412   -2.7029 H   0  0  0  0  0  0  0  0  0  0  0  0
    2.1170   -3.5578   -0.7776 H   0  0  0  0  0  0  0  0  0  0  0  0
    0.4281   -4.0029   -0.4845 H   0  0  0  0  0  0  0  0  0  0  0  0
    1.3248   -3.1053    0.7655 H   0  0  0  0  0  0  0  0  0  0  0  0
   -1.1781   -2.4315   -0.2090 H   0  0  0  0  0  0  0  0  0  0  0  0
   -1.7989   -1.6240   -2.4232 H   0  0  0  0  0  0  0  0  0  0  0  0
   -1.4802    0.0012   -1.8605 H   0  0  0  0  0  0  0  0  0  0  0  0
   -3.7012   -2.0018   -1.2089 H   0  0  0  0  0  0  0  0  0  0  0  0
   -3.7433   -0.2571   -1.6100 H   0  0  0  0  0  0  0  0  0  0  0  0
   -4.2328   -2.7653    1.0628 H   0  0  0  0  0  0  0  0  0  0  0  0
   -3.3728   -1.9733    2.4239 H   0  0  0  0  0  0  0  0  0  0  0  0
   -2.5672   -2.7744    1.1325 H   0  0  0  0  0  0  0  0  0  0  0  0
   -6.2856    2.7702   -0.9638 H   0  0  0  0  0  0  0  0  0  0  0  0
   -7.0518    3.0764    1.2551 H   0  0  0  0  0  0  0  0  0  0  0  0
   -7.1001    1.4068    1.5316 H   0  0  0  0  0  0  0  0  0  0  0  0
  1  2  1  0  0  0  0
  1 56  1  0  0  0  0
  1 57  1  0  0  0  0
  1 58  1  0  0  0  0
  2  3  1  0  0  0  0
  2  4  1  0  0  0  0
  3 59  1  0  0  0  0
  3 60  1  0  0  0  0
  3 61  1  0  0  0  0
  4  5  1  0  0  0  0
  4 62  1  0  0  0  0
  4 63  1  0  0  0  0
  5  6  1  0  0  0  0
  5 64  1  0  0  0  0
  5 65  1  0  0  0  0
  6  7  1  6  0  0  0
  6 10  1  0  0  0  0
  7  8  2  0  0  0  0
  7  9  1  0  0  0  0
  9 66  1  0  0  0  0
 10 11  1  0  0  0  0
 10 67  1  0  0  0  0
 10 68  1  0  0  0  0
 11 12  1  0  0  0  0
 11 69  1  0  0  0  0
 11 70  1  0  0  0  0
 12 13  1  1  0  0  0
 12 14  1  0  0  0  0
 13 71  1  0  0  0  0
 13 72  1  0  0  0  0
 13 73  1  0  0  0  0
 14 15  2  0  0  0  0
 14 54  1  0  0  0  0
 15 16  1  0  0  0  0
 15 74  1  0  0  0  0
 16 75  1  0  0  0  0
 16 76  1  0  0  0  0
 17 16  1  0  0  0  0
 17 18  1  0  0  0  0
 17 77  1  1  0  0  0
 18 19  1  1  0  0  0
 18 20  1  0  0  0  0
 19 78  1  0  0  0  0
 19 79  1  0  0  0  0
 19 80  1  0  0  0  0
 20 21  1  0  0  0  0
 20 81  1  0  0  0  0
 20 82  1  0  0  0  0
 21 22  1  0  0  0  0
 21 83  1  0  0  0  0
 21 84  1  0  0  0  0
 22 23  1  0  0  0  0
 22 46  1  0  0  0  0
 22 85  1  6  0  0  0
 24 23  1  0  0  0  0
 24 25  1  0  0  0  0
 24 86  1  6  0  0  0
 25 26  1  0  0  0  0
 26 27  1  0  0  0  0
 26 29  1  0  0  0  0
 26 87  1  6  0  0  0
 27 28  1  0  0  0  0
 27 88  1  0  0  0  0
 27 89  1  0  0  0  0
 28 90  1  0  0  0  0
 29 30  1  0  0  0  0
 29 31  1  0  0  0  0
 29 91  1  1  0  0  0
 30 92  1  0  0  0  0
 31 32  1  0  0  0  0
 31 44  1  0  0  0  0
 31 93  1  1  0  0  0
 33 32  1  0  0  0  0
 33 34  1  0  0  0  0
 33 94  1  1  0  0  0
 34 35  1  0  0  0  0
 35 36  1  0  0  0  0
 35 38  1  0  0  0  0
 35 95  1  1  0  0  0
 36 37  1  0  0  0  0
 36 96  1  0  0  0  0
 36 97  1  0  0  0  0
 37 98  1  0  0  0  0
 38 39  1  0  0  0  0
 38 40  1  0  0  0  0
 38 99  1  6  0  0  0
 39100  1  0  0  0  0
 40 41  1  0  0  0  0
 40 42  1  0  0  0  0
 40101  1  6  0  0  0
 41102  1  0  0  0  0
 42 43  1  0  0  0  0
 42 33  1  0  0  0  0
 42103  1  6  0  0  0
 43104  1  0  0  0  0
 44 45  1  0  0  0  0
 44 24  1  0  0  0  0
 44105  1  1  0  0  0
 45106  1  0  0  0  0
 46 47  1  0  0  0  0
 46 48  1  0  0  0  0
 46 49  1  0  0  0  0
 47107  1  0  0  0  0
 47108  1  0  0  0  0
 47109  1  0  0  0  0
 48110  1  0  0  0  0
 48111  1  0  0  0  0
 48112  1  0  0  0  0
 49 50  1  0  0  0  0
 49 18  1  0  0  0  0
 49113  1  1  0  0  0
 50 51  1  0  0  0  0
 50114  1  0  0  0  0
 50115  1  0  0  0  0
 51 52  1  0  0  0  0
 51116  1  0  0  0  0
 51117  1  0  0  0  0
 52 53  1  1  0  0  0
 52 12  1  0  0  0  0
 52 17  1  0  0  0  0
 53118  1  0  0  0  0
 53119  1  0  0  0  0
 53120  1  0  0  0  0
 54 55  1  0  0  0  0
 54  6  1  0  0  0  0
 54121  1  6  0  0  0
 55  2  1  0  0  0  0
 55122  1  0  0  0  0
 55123  1  0  0  0  0
M  END
>  <IDENTIFIER>
CNP0149605.1

>  <Energy>
1895.03

$$$$
