
 OpenBabel09122509493D

 52 54  0  0  0  0  0  0  0  0999 V2000
    3.7799   -2.7281   -0.1783 C   0  0  0  0  0  0  0  0  0  0  0  0
    2.4125   -2.5076    0.4169 C   0  0  0  0  0  0  0  0  0  0  0  0
    2.0381   -3.2732    1.5309 C   0  0  0  0  0  0  0  0  0  0  0  0
    0.7765   -3.1243    2.1101 C   0  0  0  0  0  0  0  0  0  0  0  0
    0.4182   -3.8666    3.1779 O   0  0  0  0  0  0  0  0  0  0  0  0
   -0.1280   -2.2049    1.5815 C   0  0  0  0  0  0  0  0  0  0  0  0
    0.2141   -1.4212    0.4610 C   0  0  0  0  0  0  0  0  0  0  0  0
   -0.6390   -0.5132   -0.0877 O   0  0  0  0  0  0  0  0  0  0  0  0
   -1.8632   -0.0432    0.3514 C   0  0  2  0  0  0  0  0  0  0  0  0
   -2.8590   -0.4382   -0.5682 O   0  0  0  0  0  0  0  0  0  0  0  0
   -4.1801   -0.1773   -0.0759 C   0  0  2  0  0  0  0  0  0  0  0  0
   -5.1169   -0.1991   -1.3018 C   0  0  0  0  0  0  0  0  0  0  0  0
   -6.4645   -0.1158   -0.9229 O   0  0  0  0  0  0  0  0  0  0  0  0
   -4.2644    1.1510    0.7706 C   0  0  2  0  0  0  0  0  0  0  0  0
   -5.5620    1.6908    0.8361 O   0  0  0  0  0  0  0  0  0  0  0  0
   -3.2057    2.1575    0.2787 C   0  0  2  0  0  0  0  0  0  0  0  0
   -3.4670    2.5233   -1.0598 O   0  0  0  0  0  0  0  0  0  0  0  0
   -1.7928    1.5078    0.4407 C   0  0  1  0  0  0  0  0  0  0  0  0
   -1.1823    1.8770    1.6547 O   0  0  0  0  0  0  0  0  0  0  0  0
    1.4945   -1.5710   -0.1315 C   0  0  0  0  0  0  0  0  0  0  0  0
    1.8568   -0.7365   -1.3558 C   0  0  0  0  0  0  0  0  0  0  0  0
    2.8674    0.3352   -1.0364 C   0  0  0  0  0  0  0  0  0  0  0  0
    2.5527    1.3338   -0.0985 C   0  0  0  0  0  0  0  0  0  0  0  0
    3.4691    2.3490    0.1878 C   0  0  0  0  0  0  0  0  0  0  0  0
    4.7122    2.3783   -0.4600 C   0  0  0  0  0  0  0  0  0  0  0  0
    5.6045    3.3541   -0.1958 O   0  0  0  0  0  0  0  0  0  0  0  0
    5.0297    1.3867   -1.3948 C   0  0  0  0  0  0  0  0  0  0  0  0
    4.1121    0.3719   -1.6861 C   0  0  0  0  0  0  0  0  0  0  0  0
    4.3419   -3.5203    0.3604 H   0  0  0  0  0  0  0  0  0  0  0  0
    4.3790   -1.8001   -0.1151 H   0  0  0  0  0  0  0  0  0  0  0  0
    3.6857   -3.0452   -1.2381 H   0  0  0  0  0  0  0  0  0  0  0  0
    2.7273   -3.9961    1.9515 H   0  0  0  0  0  0  0  0  0  0  0  0
    1.0114   -4.5214    3.5734 H   0  0  0  0  0  0  0  0  0  0  0  0
   -1.0920   -2.1315    2.0590 H   0  0  0  0  0  0  0  0  0  0  0  0
   -2.1306   -0.4572    1.3448 H   0  0  0  0  0  0  0  0  0  0  0  0
   -4.5124   -1.0244    0.5650 H   0  0  0  0  0  0  0  0  0  0  0  0
   -4.9582   -1.1429   -1.8731 H   0  0  0  0  0  0  0  0  0  0  0  0
   -4.8897    0.6266   -2.0033 H   0  0  0  0  0  0  0  0  0  0  0  0
   -6.7132   -1.0035   -0.5543 H   0  0  0  0  0  0  0  0  0  0  0  0
   -3.9714    0.9127    1.8164 H   0  0  0  0  0  0  0  0  0  0  0  0
   -5.7262    2.2010    0.0021 H   0  0  0  0  0  0  0  0  0  0  0  0
   -3.2255    3.1003    0.8676 H   0  0  0  0  0  0  0  0  0  0  0  0
   -3.0009    1.8976   -1.6723 H   0  0  0  0  0  0  0  0  0  0  0  0
   -1.1579    1.9289   -0.3698 H   0  0  0  0  0  0  0  0  0  0  0  0
   -1.8033    1.6418    2.3928 H   0  0  0  0  0  0  0  0  0  0  0  0
    0.9731   -0.2050   -1.7651 H   0  0  0  0  0  0  0  0  0  0  0  0
    2.2020   -1.4125   -2.1670 H   0  0  0  0  0  0  0  0  0  0  0  0
    1.5941    1.3298    0.4054 H   0  0  0  0  0  0  0  0  0  0  0  0
    3.2099    3.1132    0.9098 H   0  0  0  0  0  0  0  0  0  0  0  0
    5.4193    4.0615    0.4384 H   0  0  0  0  0  0  0  0  0  0  0  0
    5.9873    1.4046   -1.8996 H   0  0  0  0  0  0  0  0  0  0  0  0
    4.3727   -0.3837   -2.4167 H   0  0  0  0  0  0  0  0  0  0  0  0
  1  2  1  0  0  0  0
  1 29  1  0  0  0  0
  1 30  1  0  0  0  0
  1 31  1  0  0  0  0
  2  3  2  0  0  0  0
  3  4  1  0  0  0  0
  3 32  1  0  0  0  0
  4  5  1  0  0  0  0
  4  6  2  0  0  0  0
  5 33  1  0  0  0  0
  6  7  1  0  0  0  0
  6 34  1  0  0  0  0
  7  8  1  0  0  0  0
  7 20  2  0  0  0  0
  9  8  1  0  0  0  0
  9 10  1  0  0  0  0
  9 35  1  1  0  0  0
 10 11  1  0  0  0  0
 11 12  1  0  0  0  0
 11 14  1  0  0  0  0
 11 36  1  1  0  0  0
 12 13  1  0  0  0  0
 12 37  1  0  0  0  0
 12 38  1  0  0  0  0
 13 39  1  0  0  0  0
 14 15  1  0  0  0  0
 14 16  1  0  0  0  0
 14 40  1  1  0  0  0
 15 41  1  0  0  0  0
 16 17  1  0  0  0  0
 16 18  1  0  0  0  0
 16 42  1  1  0  0  0
 17 43  1  0  0  0  0
 18 19  1  0  0  0  0
 18  9  1  0  0  0  0
 18 44  1  6  0  0  0
 19 45  1  0  0  0  0
 20 21  1  0  0  0  0
 20  2  1  0  0  0  0
 21 22  1  0  0  0  0
 21 46  1  0  0  0  0
 21 47  1  0  0  0  0
 22 23  2  0  0  0  0
 23 24  1  0  0  0  0
 23 48  1  0  0  0  0
 24 25  2  0  0  0  0
 24 49  1  0  0  0  0
 25 26  1  0  0  0  0
 25 27  1  0  0  0  0
 26 50  1  0  0  0  0
 27 28  2  0  0  0  0
 27 51  1  0  0  0  0
 28 22  1  0  0  0  0
 28 52  1  0  0  0  0
M  END
>  <IDENTIFIER>
CNP0117947.0

>  <Energy>
490.549

$$$$
