
 OpenBabel09122516163D

 55 59  0  0  0  0  0  0  0  0999 V2000
   -2.9067   -0.3660    1.8570 C   0  0  0  0  0  0  0  0  0  0  0  0
   -2.4305   -0.1546    0.3923 C   0  0  1  0  0  0  0  0  0  0  0  0
   -3.0656   -1.2360   -0.5193 C   0  0  0  0  0  0  0  0  0  0  0  0
   -4.6191   -1.1968   -0.5190 C   0  0  0  0  0  0  0  0  0  0  0  0
   -5.2254    0.2288   -0.6324 C   0  0  1  0  0  0  0  0  0  0  0  0
   -6.0531    0.7329    0.8749 Cl  0  0  0  0  0  0  0  0  0  0  0  0
   -4.1896    1.2880   -1.0051 C   0  0  0  0  0  0  0  0  0  0  0  0
   -2.9368    1.2216   -0.1294 C   0  0  0  0  0  0  0  0  0  0  0  0
   -2.1111    2.2904   -0.2309 C   0  0  0  0  0  0  0  0  0  0  0  0
   -0.6713    2.2268    0.2018 C   0  0  0  0  0  0  0  0  0  0  0  0
   -0.1465    0.9197   -0.4050 C   0  0  1  0  0  0  0  0  0  0  0  0
    1.3971    0.7116   -0.4830 C   0  0  1  0  0  0  0  0  0  0  0  0
    2.3473    1.9021   -0.6739 C   0  0  0  0  0  0  0  0  0  0  0  0
    3.7406    1.3493   -0.2684 C   0  0  0  0  0  0  0  0  0  0  0  0
    3.5155   -0.1443    0.0530 C   0  0  0  0  0  0  0  0  0  0  0  0
    3.6230   -0.8760   -1.1656 O   0  0  0  0  0  0  0  0  0  0  0  0
    4.8421   -1.5301   -1.0555 C   0  0  0  0  0  0  0  0  0  0  0  0
    4.9535   -1.7977    0.4049 C   0  0  0  0  0  0  0  0  0  0  0  0
    4.4637   -0.6357    0.9927 O   0  0  0  0  0  0  0  0  0  0  0  0
    2.0469   -0.1686    0.5873 C   0  0  1  0  0  0  0  0  0  0  0  0
    2.0133    0.4437    2.0322 C   0  0  0  0  0  0  0  0  0  0  0  0
    1.3619   -1.5851    0.5709 C   0  0  0  0  0  0  0  0  0  0  0  0
   -0.1449   -1.5801    0.1268 C   0  0  0  0  0  0  0  0  0  0  0  0
   -0.8336   -0.2252    0.4095 C   0  0  2  0  0  0  0  0  0  0  0  0
   -3.9984   -0.3477    1.9802 H   0  0  0  0  0  0  0  0  0  0  0  0
   -2.5089    0.4418    2.5109 H   0  0  0  0  0  0  0  0  0  0  0  0
   -2.5479   -1.3421    2.2447 H   0  0  0  0  0  0  0  0  0  0  0  0
   -2.7563   -2.2621   -0.2394 H   0  0  0  0  0  0  0  0  0  0  0  0
   -2.7071   -1.0509   -1.5575 H   0  0  0  0  0  0  0  0  0  0  0  0
   -5.0234   -1.6860    0.3887 H   0  0  0  0  0  0  0  0  0  0  0  0
   -4.9567   -1.8254   -1.3725 H   0  0  0  0  0  0  0  0  0  0  0  0
   -6.0411    0.2152   -1.3881 H   0  0  0  0  0  0  0  0  0  0  0  0
   -4.6566    2.2950   -0.9962 H   0  0  0  0  0  0  0  0  0  0  0  0
   -3.8571    1.0913   -2.0486 H   0  0  0  0  0  0  0  0  0  0  0  0
   -2.4346    3.1734   -0.7709 H   0  0  0  0  0  0  0  0  0  0  0  0
   -0.5585    2.2417    1.3064 H   0  0  0  0  0  0  0  0  0  0  0  0
   -0.1620    3.1165   -0.2209 H   0  0  0  0  0  0  0  0  0  0  0  0
   -0.4679    0.9093   -1.4775 H   0  0  0  0  0  0  0  0  0  0  0  0
    1.5096    0.1015   -1.4107 H   0  0  0  0  0  0  0  0  0  0  0  0
    2.1025    2.7177    0.0407 H   0  0  0  0  0  0  0  0  0  0  0  0
    2.2954    2.2990   -1.7082 H   0  0  0  0  0  0  0  0  0  0  0  0
    4.0442    1.8658    0.6640 H   0  0  0  0  0  0  0  0  0  0  0  0
    4.5514    1.5414   -1.0024 H   0  0  0  0  0  0  0  0  0  0  0  0
    5.6461   -0.8340   -1.3908 H   0  0  0  0  0  0  0  0  0  0  0  0
    4.8786   -2.4669   -1.6447 H   0  0  0  0  0  0  0  0  0  0  0  0
    6.0020   -2.0155    0.6973 H   0  0  0  0  0  0  0  0  0  0  0  0
    4.2915   -2.6442    0.6961 H   0  0  0  0  0  0  0  0  0  0  0  0
    2.6010   -0.2032    2.7170 H   0  0  0  0  0  0  0  0  0  0  0  0
    1.0265    0.5406    2.4992 H   0  0  0  0  0  0  0  0  0  0  0  0
    2.4494    1.4592    2.0879 H   0  0  0  0  0  0  0  0  0  0  0  0
    1.4764   -2.0339    1.5832 H   0  0  0  0  0  0  0  0  0  0  0  0
    1.8644   -2.2897   -0.1224 H   0  0  0  0  0  0  0  0  0  0  0  0
   -0.6453   -2.4414    0.6168 H   0  0  0  0  0  0  0  0  0  0  0  0
   -0.2108   -1.7269   -0.9728 H   0  0  0  0  0  0  0  0  0  0  0  0
   -0.5796   -0.0358    1.4546 H   0  0  0  0  0  0  0  0  0  0  0  0
  1 25  1  0  0  0  0
  1 26  1  0  0  0  0
  1 27  1  0  0  0  0
  2  1  1  1  0  0  0
  2  3  1  0  0  0  0
  3  4  1  0  0  0  0
  3 28  1  0  0  0  0
  3 29  1  0  0  0  0
  4  5  1  0  0  0  0
  4 30  1  0  0  0  0
  4 31  1  0  0  0  0
  5  6  1  0  0  0  0
  5  7  1  0  0  0  0
  5 32  1  6  0  0  0
  7  8  1  0  0  0  0
  7 33  1  0  0  0  0
  7 34  1  0  0  0  0
  8  9  2  0  0  0  0
  8  2  1  0  0  0  0
  9 10  1  0  0  0  0
  9 35  1  0  0  0  0
 10 36  1  0  0  0  0
 10 37  1  0  0  0  0
 11 10  1  0  0  0  0
 11 12  1  0  0  0  0
 11 38  1  6  0  0  0
 12 13  1  0  0  0  0
 12 39  1  6  0  0  0
 13 14  1  0  0  0  0
 13 40  1  0  0  0  0
 13 41  1  0  0  0  0
 14 15  1  0  0  0  0
 14 42  1  0  0  0  0
 14 43  1  0  0  0  0
 15 16  1  0  0  0  0
 15 20  1  0  0  0  0
 16 17  1  0  0  0  0
 17 18  1  0  0  0  0
 17 44  1  0  0  0  0
 17 45  1  0  0  0  0
 18 19  1  0  0  0  0
 18 46  1  0  0  0  0
 18 47  1  0  0  0  0
 19 15  1  0  0  0  0
 20 21  1  1  0  0  0
 20 22  1  0  0  0  0
 20 12  1  0  0  0  0
 21 48  1  0  0  0  0
 21 49  1  0  0  0  0
 21 50  1  0  0  0  0
 22 23  1  0  0  0  0
 22 51  1  0  0  0  0
 22 52  1  0  0  0  0
 23 53  1  0  0  0  0
 23 54  1  0  0  0  0
 24 23  1  0  0  0  0
 24 11  1  0  0  0  0
 24  2  1  0  0  0  0
 24 55  1  1  0  0  0
M  END
>  <IDENTIFIER>
CNP0055508.2

>  <Energy>
1003.24

$$$$
