
 OpenBabel09042519563D

 34 36  0  0  0  0  0  0  0  0999 V2000
   -6.3938   -0.3963    0.3937 C   0  0  0  0  0  0  0  0  0  0  0  0
   -5.3076   -0.7784   -0.3660 O   0  0  0  0  0  0  0  0  0  0  0  0
   -4.0713   -0.2169   -0.3223 C   0  0  0  0  0  0  0  0  0  0  0  0
   -3.7539    0.8554    0.5316 C   0  0  0  0  0  0  0  0  0  0  0  0
   -2.4697    1.4009    0.5214 C   0  0  0  0  0  0  0  0  0  0  0  0
   -1.4864    0.8790   -0.3229 C   0  0  0  0  0  0  0  0  0  0  0  0
   -1.7722   -0.2109   -1.1661 C   0  0  0  0  0  0  0  0  0  0  0  0
   -0.7922   -0.8152   -2.1161 C   0  0  0  0  0  0  0  0  0  0  0  0
    0.5593   -0.8757   -2.0731 C   0  0  0  0  0  0  0  0  0  0  0  0
    1.4959   -0.4693   -0.9992 C   0  0  0  0  0  0  0  0  0  0  0  0
    2.8301   -0.5262   -1.2576 N   0  0  0  0  0  0  0  0  0  0  0  0
    3.7400   -0.2206   -0.2997 C   0  0  0  0  0  0  0  0  0  0  0  0
    5.1094   -0.2749   -0.5834 C   0  0  0  0  0  0  0  0  0  0  0  0
    6.0411    0.0413    0.4104 C   0  0  0  0  0  0  0  0  0  0  0  0
    5.6079    0.4119    1.6876 C   0  0  0  0  0  0  0  0  0  0  0  0
    4.2404    0.4669    1.9788 C   0  0  0  0  0  0  0  0  0  0  0  0
    3.2987    0.1487    0.9835 C   0  0  0  0  0  0  0  0  0  0  0  0
    1.9129    0.1738    1.2041 C   0  0  0  0  0  0  0  0  0  0  0  0
    1.4589    0.4787    2.2937 O   0  0  0  0  0  0  0  0  0  0  0  0
    1.0784   -0.1422    0.2189 O   0  0  0  0  0  0  0  0  0  0  0  0
   -3.0799   -0.7315   -1.1668 C   0  0  0  0  0  0  0  0  0  0  0  0
   -7.2602   -1.0391    0.1354 H   0  0  0  0  0  0  0  0  0  0  0  0
   -6.6603    0.6604    0.1784 H   0  0  0  0  0  0  0  0  0  0  0  0
   -6.1695   -0.5217    1.4744 H   0  0  0  0  0  0  0  0  0  0  0  0
   -4.4937    1.2825    1.1952 H   0  0  0  0  0  0  0  0  0  0  0  0
   -2.2377    2.2411    1.1637 H   0  0  0  0  0  0  0  0  0  0  0  0
   -0.5273    1.3665   -0.3293 H   0  0  0  0  0  0  0  0  0  0  0  0
   -1.2389   -1.2955   -2.9839 H   0  0  0  0  0  0  0  0  0  0  0  0
    1.0357   -1.3409   -2.9328 H   0  0  0  0  0  0  0  0  0  0  0  0
    5.4529   -0.5611   -1.5698 H   0  0  0  0  0  0  0  0  0  0  0  0
    7.1001   -0.0013    0.1905 H   0  0  0  0  0  0  0  0  0  0  0  0
    6.3330    0.6556    2.4532 H   0  0  0  0  0  0  0  0  0  0  0  0
    3.9240    0.7540    2.9741 H   0  0  0  0  0  0  0  0  0  0  0  0
   -3.3330   -1.5567   -1.8226 H   0  0  0  0  0  0  0  0  0  0  0  0
  1  2  1  0  0  0  0
  1 22  1  0  0  0  0
  1 23  1  0  0  0  0
  1 24  1  0  0  0  0
  2  3  1  0  0  0  0
  3  4  2  0  0  0  0
  4  5  1  0  0  0  0
  4 25  1  0  0  0  0
  5  6  2  0  0  0  0
  5 26  1  0  0  0  0
  6  7  1  0  0  0  0
  6 27  1  0  0  0  0
  7  8  1  0  0  0  0
  7 21  2  0  0  0  0
  8  9  2  3  0  0  0
  8 28  1  0  0  0  0
  9 10  1  0  0  0  0
  9 29  1  0  0  0  0
 10 11  2  0  0  0  0
 11 12  1  0  0  0  0
 12 13  2  0  0  0  0
 13 14  1  0  0  0  0
 13 30  1  0  0  0  0
 14 15  2  0  0  0  0
 14 31  1  0  0  0  0
 15 16  1  0  0  0  0
 15 32  1  0  0  0  0
 16 17  2  0  0  0  0
 16 33  1  0  0  0  0
 17 18  1  0  0  0  0
 17 12  1  0  0  0  0
 18 19  2  0  0  0  0
 18 20  1  0  0  0  0
 20 10  1  0  0  0  0
 21  3  1  0  0  0  0
 21 34  1  0  0  0  0
M  END
>  <IDENTIFIER>
CNP0311712.0

>  <Energy>
264.085

$$$$
