
 OpenBabel09062510243D

 52 55  0  0  0  0  0  0  0  0999 V2000
   -1.5926    4.4726   -1.9544 O   0  0  0  0  0  0  0  0  0  0  0  0
   -0.7959    3.4619   -2.5076 C   0  0  0  0  0  0  0  0  0  0  0  0
   -1.2647    2.0884   -2.0114 C   0  0  2  0  0  0  0  0  0  0  0  0
   -0.3956    1.0978   -2.5428 O   0  0  0  0  0  0  0  0  0  0  0  0
   -0.6626   -0.1865   -1.9940 C   0  0  1  0  0  0  0  0  0  0  0  0
   -0.3513   -0.2060   -0.6270 O   0  0  0  0  0  0  0  0  0  0  0  0
    0.6874   -0.8291    0.0224 C   0  0  0  0  0  0  0  0  0  0  0  0
    1.6233   -1.6417   -0.6690 C   0  0  0  0  0  0  0  0  0  0  0  0
    2.6950   -2.2540   -0.0047 C   0  0  0  0  0  0  0  0  0  0  0  0
    3.6636   -3.0723   -0.6548 C   0  0  0  0  0  0  0  0  0  0  0  0
    3.6419   -3.3436   -1.9801 O   0  0  0  0  0  0  0  0  0  0  0  0
    4.7040   -3.6345    0.0958 C   0  0  0  0  0  0  0  0  0  0  0  0
    4.8012   -3.4033    1.4731 C   0  0  0  0  0  0  0  0  0  0  0  0
    5.8050   -3.9419    2.1947 O   0  0  0  0  0  0  0  0  0  0  0  0
    3.8503   -2.6044    2.1073 C   0  0  0  0  0  0  0  0  0  0  0  0
    2.8043   -2.0331    1.3770 C   0  0  0  0  0  0  0  0  0  0  0  0
    1.9234   -1.2761    2.0073 O   0  3  0  0  0  0  0  0  0  0  0  0
    0.8876   -0.6656    1.4331 C   0  0  0  0  0  0  0  0  0  0  0  0
    0.0410    0.1516    2.3786 C   0  0  0  0  0  0  0  0  0  0  0  0
   -1.0991    0.8852    1.9983 C   0  0  0  0  0  0  0  0  0  0  0  0
   -1.8421    1.6140    2.9322 C   0  0  0  0  0  0  0  0  0  0  0  0
   -1.4606    1.6358    4.2765 C   0  0  0  0  0  0  0  0  0  0  0  0
   -2.1686    2.3341    5.1872 O   0  0  0  0  0  0  0  0  0  0  0  0
   -0.3313    0.9254    4.6783 C   0  0  0  0  0  0  0  0  0  0  0  0
    0.4087    0.1930    3.7462 C   0  0  0  0  0  0  0  0  0  0  0  0
   -2.1241   -0.6508   -2.3153 C   0  0  2  0  0  0  0  0  0  0  0  0
   -2.3211   -0.8906   -3.6953 O   0  0  0  0  0  0  0  0  0  0  0  0
   -3.1463    0.4075   -1.8629 C   0  0  1  0  0  0  0  0  0  0  0  0
   -3.1950    0.4345   -0.4636 O   0  0  0  0  0  0  0  0  0  0  0  0
   -2.7409    1.7941   -2.4111 C   0  0  2  0  0  0  0  0  0  0  0  0
   -2.9494    1.8600   -3.8056 O   0  0  0  0  0  0  0  0  0  0  0  0
   -1.1958    5.3305   -2.2569 H   0  0  0  0  0  0  0  0  0  0  0  0
    0.2605    3.6055   -2.1848 H   0  0  0  0  0  0  0  0  0  0  0  0
   -0.8460    3.5047   -3.6179 H   0  0  0  0  0  0  0  0  0  0  0  0
   -1.1730    2.1219   -0.9047 H   0  0  0  0  0  0  0  0  0  0  0  0
   -0.0322   -0.8932   -2.5445 H   0  0  0  0  0  0  0  0  0  0  0  0
    1.5418   -1.8032   -1.7188 H   0  0  0  0  0  0  0  0  0  0  0  0
    2.9846   -3.0232   -2.6076 H   0  0  0  0  0  0  0  0  0  0  0  0
    5.4427   -4.2550   -0.3971 H   0  0  0  0  0  0  0  0  0  0  0  0
    6.4870   -4.4982    1.7921 H   0  0  0  0  0  0  0  0  0  0  0  0
    3.9247   -2.4233    3.1730 H   0  0  0  0  0  0  0  0  0  0  0  0
   -1.4394    0.9170    0.9967 H   0  0  0  0  0  0  0  0  0  0  0  0
   -2.7168    2.1630    2.6059 H   0  0  0  0  0  0  0  0  0  0  0  0
   -2.9604    2.8366    4.9476 H   0  0  0  0  0  0  0  0  0  0  0  0
   -0.0245    0.9377    5.7168 H   0  0  0  0  0  0  0  0  0  0  0  0
    1.2758   -0.3422    4.1113 H   0  0  0  0  0  0  0  0  0  0  0  0
   -2.3184   -1.6167   -1.7999 H   0  0  0  0  0  0  0  0  0  0  0  0
   -1.4860   -0.7292   -4.2047 H   0  0  0  0  0  0  0  0  0  0  0  0
   -4.1577    0.1164   -2.2334 H   0  0  0  0  0  0  0  0  0  0  0  0
   -4.0111    0.9414   -0.2118 H   0  0  0  0  0  0  0  0  0  0  0  0
   -3.4016    2.5633   -1.9559 H   0  0  0  0  0  0  0  0  0  0  0  0
   -2.1308    1.5640   -4.2790 H   0  0  0  0  0  0  0  0  0  0  0  0
  1  2  1  0  0  0  0
  1 32  1  0  0  0  0
  2 33  1  0  0  0  0
  2 34  1  0  0  0  0
  3  2  1  0  0  0  0
  3  4  1  0  0  0  0
  3 35  1  1  0  0  0
  4  5  1  0  0  0  0
  5  6  1  0  0  0  0
  5 26  1  0  0  0  0
  5 36  1  6  0  0  0
  6  7  1  0  0  0  0
  7  8  2  0  0  0  0
  8  9  1  0  0  0  0
  8 37  1  0  0  0  0
  9 10  2  0  0  0  0
 10 11  1  0  0  0  0
 10 12  1  0  0  0  0
 11 38  1  0  0  0  0
 12 13  2  0  0  0  0
 12 39  1  0  0  0  0
 13 14  1  0  0  0  0
 13 15  1  0  0  0  0
 14 40  1  0  0  0  0
 15 16  2  0  0  0  0
 15 41  1  0  0  0  0
 16 17  1  0  0  0  0
 16  9  1  0  0  0  0
 17 18  2  0  0  0  0
 18 19  1  0  0  0  0
 18  7  1  0  0  0  0
 19 20  2  0  0  0  0
 20 21  1  0  0  0  0
 20 42  1  0  0  0  0
 21 22  2  0  0  0  0
 21 43  1  0  0  0  0
 22 23  1  0  0  0  0
 22 24  1  0  0  0  0
 23 44  1  0  0  0  0
 24 25  2  0  0  0  0
 24 45  1  0  0  0  0
 25 19  1  0  0  0  0
 25 46  1  0  0  0  0
 26 27  1  0  0  0  0
 26 28  1  0  0  0  0
 26 47  1  1  0  0  0
 27 48  1  0  0  0  0
 28 29  1  0  0  0  0
 28 30  1  0  0  0  0
 28 49  1  6  0  0  0
 29 50  1  0  0  0  0
 30 31  1  0  0  0  0
 30  3  1  0  0  0  0
 30 51  1  1  0  0  0
 31 52  1  0  0  0  0
M  CHG  1  17   1
M  END
>  <IDENTIFIER>
CNP0525096.10

>  <Energy>
465.727

$$$$
