
 OpenBabel09082509033D

 40 40  0  0  0  0  0  0  0  0999 V2000
    1.5966    3.0160   -1.9134 C   0  0  0  0  0  0  0  0  0  0  0  0
    1.2343    2.1399   -0.9610 C   0  0  0  0  0  0  0  0  0  0  0  0
   -0.0870    1.5068   -1.0480 C   0  0  0  0  0  0  0  0  0  0  0  0
   -0.5937    0.7931   -0.0352 C   0  0  0  0  0  0  0  0  0  0  0  0
   -1.7487   -0.1191   -0.2818 C   0  0  2  0  0  0  0  0  0  0  0  0
   -2.9276    0.0638    0.7181 C   0  0  0  0  0  0  0  0  0  0  0  0
   -3.4960    1.4887    0.6268 C   0  0  0  0  0  0  0  0  0  0  0  0
   -2.5557   -0.2488    2.1795 C   0  0  0  0  0  0  0  0  0  0  0  0
   -1.1704   -1.5580   -0.3338 C   0  0  0  0  0  0  0  0  0  0  0  0
    0.0665   -1.6739   -1.2830 C   0  0  0  0  0  0  0  0  0  0  0  0
    1.4155   -1.9001   -0.5646 C   0  0  0  0  0  0  0  0  0  0  0  0
    2.0403   -3.0613   -0.8866 C   0  0  0  0  0  0  0  0  0  0  0  0
    2.0597   -0.9791    0.5264 C   0  0  1  0  0  0  0  0  0  0  0  0
    2.9670   -1.7551    1.2851 O   0  0  0  0  0  0  0  0  0  0  0  0
    2.8186    0.3380    0.0834 C   0  0  0  0  0  0  0  0  0  0  0  0
    2.1989    1.7715    0.1469 C   0  0  0  0  0  0  0  0  0  0  0  0
    0.9215    3.2723   -2.7253 H   0  0  0  0  0  0  0  0  0  0  0  0
    2.5728    3.4913   -1.9033 H   0  0  0  0  0  0  0  0  0  0  0  0
   -0.6058    1.5445   -2.0035 H   0  0  0  0  0  0  0  0  0  0  0  0
   -0.1029    0.7420    0.9193 H   0  0  0  0  0  0  0  0  0  0  0  0
   -2.1535    0.0752   -1.3026 H   0  0  0  0  0  0  0  0  0  0  0  0
   -3.7365   -0.6395    0.4203 H   0  0  0  0  0  0  0  0  0  0  0  0
   -2.7367    2.2391    0.9338 H   0  0  0  0  0  0  0  0  0  0  0  0
   -4.3805    1.5927    1.2907 H   0  0  0  0  0  0  0  0  0  0  0  0
   -3.8174    1.7096   -0.4135 H   0  0  0  0  0  0  0  0  0  0  0  0
   -1.7566    0.4277    2.5474 H   0  0  0  0  0  0  0  0  0  0  0  0
   -2.2241   -1.2993    2.2943 H   0  0  0  0  0  0  0  0  0  0  0  0
   -3.4464   -0.1193    2.8307 H   0  0  0  0  0  0  0  0  0  0  0  0
   -1.9936   -2.1999   -0.7197 H   0  0  0  0  0  0  0  0  0  0  0  0
   -0.8883   -1.9637    0.6590 H   0  0  0  0  0  0  0  0  0  0  0  0
    0.1193   -0.8490   -2.0183 H   0  0  0  0  0  0  0  0  0  0  0  0
   -0.1477   -2.5511   -1.9331 H   0  0  0  0  0  0  0  0  0  0  0  0
    1.6300   -3.7530   -1.6157 H   0  0  0  0  0  0  0  0  0  0  0  0
    2.9807   -3.3759   -0.4540 H   0  0  0  0  0  0  0  0  0  0  0  0
    1.3069   -0.7330    1.2910 H   0  0  0  0  0  0  0  0  0  0  0  0
    3.8379   -1.7936    0.8078 H   0  0  0  0  0  0  0  0  0  0  0  0
    3.3744    0.1645   -0.8626 H   0  0  0  0  0  0  0  0  0  0  0  0
    3.6057    0.4600    0.8632 H   0  0  0  0  0  0  0  0  0  0  0  0
    3.0687    2.4638    0.0710 H   0  0  0  0  0  0  0  0  0  0  0  0
    1.7525    1.9709    1.1441 H   0  0  0  0  0  0  0  0  0  0  0  0
  1  2  2  0  0  0  0
  1 17  1  0  0  0  0
  1 18  1  0  0  0  0
  2  3  1  0  0  0  0
  3  4  2  0  0  0  0
  3 19  1  0  0  0  0
  4  5  1  0  0  0  0
  4 20  1  0  0  0  0
  5  6  1  0  0  0  0
  5  9  1  0  0  0  0
  5 21  1  6  0  0  0
  6  7  1  0  0  0  0
  6  8  1  0  0  0  0
  6 22  1  0  0  0  0
  7 23  1  0  0  0  0
  7 24  1  0  0  0  0
  7 25  1  0  0  0  0
  8 26  1  0  0  0  0
  8 27  1  0  0  0  0
  8 28  1  0  0  0  0
  9 10  1  0  0  0  0
  9 29  1  0  0  0  0
  9 30  1  0  0  0  0
 10 11  1  0  0  0  0
 10 31  1  0  0  0  0
 10 32  1  0  0  0  0
 11 12  2  0  0  0  0
 11 13  1  0  0  0  0
 12 33  1  0  0  0  0
 12 34  1  0  0  0  0
 13 14  1  0  0  0  0
 13 15  1  0  0  0  0
 13 35  1  1  0  0  0
 14 36  1  0  0  0  0
 15 16  1  0  0  0  0
 15 37  1  0  0  0  0
 15 38  1  0  0  0  0
 16  2  1  0  0  0  0
 16 39  1  0  0  0  0
 16 40  1  0  0  0  0
M  END
>  <IDENTIFIER>
CNP0213267.2

>  <Energy>
442.524

$$$$
