
 OpenBabel09132513043D

 41 44  0  0  0  0  0  0  0  0999 V2000
    6.1558    1.3199    1.0005 C   0  0  0  0  0  0  0  0  0  0  0  0
    4.8857    0.5995    0.6934 C   0  0  0  0  0  0  0  0  0  0  0  0
    4.7620   -0.7460    0.3790 C   0  0  0  0  0  0  0  0  0  0  0  0
    3.4605   -0.9789    0.1569 N   0  0  0  0  0  0  0  0  0  0  0  0
    2.8074   -2.1273   -0.1970 C   0  0  0  0  0  0  0  0  0  0  0  0
    3.4021   -3.1794   -0.3595 O   0  0  0  0  0  0  0  0  0  0  0  0
    1.4366   -2.0184   -0.3809 C   0  0  0  0  0  0  0  0  0  0  0  0
    0.7792   -0.8160   -0.2098 C   0  0  0  0  0  0  0  0  0  0  0  0
   -0.5372   -1.0211   -0.5082 N   0  0  0  0  0  0  0  0  0  0  0  0
   -1.6644   -0.0691   -0.5602 C   0  0  2  0  0  0  0  0  0  0  0  0
   -1.9897    0.4435    0.7212 O   0  0  0  0  0  0  0  0  0  0  0  0
   -3.3849    0.7439    0.6995 C   0  0  2  0  0  0  0  0  0  0  0  0
   -4.1064   -0.1185    1.7540 C   0  0  0  0  0  0  0  0  0  0  0  0
   -5.4836    0.1519    1.7591 O   0  0  0  0  0  0  0  0  0  0  0  0
   -3.9045    0.4761   -0.7373 C   0  0  1  0  0  0  0  0  0  0  0  0
   -3.6843    1.5674   -1.6150 O   0  0  0  0  0  0  0  0  0  0  0  0
   -2.9762   -0.6490   -1.1076 C   0  0  1  0  0  0  0  0  0  0  0  0
   -2.9693   -0.9553   -2.4816 O   0  0  0  0  0  0  0  0  0  0  0  0
   -0.6071   -2.3448   -0.8330 C   0  0  0  0  0  0  0  0  0  0  0  0
    0.5841   -2.9798   -0.7578 N   0  0  0  0  0  0  0  0  0  0  0  0
    1.4638    0.3357    0.1667 N   0  0  0  0  0  0  0  0  0  0  0  0
    0.9056    1.6766    0.3935 C   0  0  0  0  0  0  0  0  0  0  0  0
    2.8228    0.1987    0.3363 C   0  0  0  0  0  0  0  0  0  0  0  0
    3.6711    1.1953    0.6741 N   0  0  0  0  0  0  0  0  0  0  0  0
    7.0223    0.6284    0.9414 H   0  0  0  0  0  0  0  0  0  0  0  0
    6.1030    1.7498    2.0222 H   0  0  0  0  0  0  0  0  0  0  0  0
    6.3002    2.1400    0.2662 H   0  0  0  0  0  0  0  0  0  0  0  0
    5.5554   -1.4803    0.3087 H   0  0  0  0  0  0  0  0  0  0  0  0
   -1.3602    0.7693   -1.2275 H   0  0  0  0  0  0  0  0  0  0  0  0
   -3.5672    1.8029    0.9862 H   0  0  0  0  0  0  0  0  0  0  0  0
   -3.6834    0.0818    2.7643 H   0  0  0  0  0  0  0  0  0  0  0  0
   -3.9623   -1.2005    1.5617 H   0  0  0  0  0  0  0  0  0  0  0  0
   -5.5971    1.0535    2.1602 H   0  0  0  0  0  0  0  0  0  0  0  0
   -4.9865    0.2284   -0.7871 H   0  0  0  0  0  0  0  0  0  0  0  0
   -3.2647    2.3268   -1.1345 H   0  0  0  0  0  0  0  0  0  0  0  0
   -3.2554   -1.5587   -0.5339 H   0  0  0  0  0  0  0  0  0  0  0  0
   -2.4617   -0.2483   -2.9586 H   0  0  0  0  0  0  0  0  0  0  0  0
   -1.5061   -2.8593   -1.1384 H   0  0  0  0  0  0  0  0  0  0  0  0
   -0.1660    1.7670    0.2473 H   0  0  0  0  0  0  0  0  0  0  0  0
    1.3833    2.4029   -0.2976 H   0  0  0  0  0  0  0  0  0  0  0  0
    1.1119    1.9896    1.4403 H   0  0  0  0  0  0  0  0  0  0  0  0
  1  2  1  0  0  0  0
  1 25  1  0  0  0  0
  1 26  1  0  0  0  0
  1 27  1  0  0  0  0
  2  3  2  0  0  0  0
  3  4  1  0  0  0  0
  3 28  1  0  0  0  0
  4  5  1  0  0  0  0
  5  6  2  0  0  0  0
  5  7  1  0  0  0  0
  7  8  2  0  0  0  0
  8  9  1  0  0  0  0
  8 21  1  0  0  0  0
  9 19  1  0  0  0  0
 10  9  1  0  0  0  0
 10 11  1  0  0  0  0
 10 29  1  6  0  0  0
 11 12  1  0  0  0  0
 12 13  1  0  0  0  0
 12 15  1  0  0  0  0
 12 30  1  1  0  0  0
 13 14  1  0  0  0  0
 13 31  1  0  0  0  0
 13 32  1  0  0  0  0
 14 33  1  0  0  0  0
 15 16  1  0  0  0  0
 15 17  1  0  0  0  0
 15 34  1  6  0  0  0
 16 35  1  0  0  0  0
 17 18  1  0  0  0  0
 17 10  1  0  0  0  0
 17 36  1  1  0  0  0
 18 37  1  0  0  0  0
 19 20  2  0  0  0  0
 19 38  1  0  0  0  0
 20  7  1  0  0  0  0
 21 22  1  0  0  0  0
 21 23  1  0  0  0  0
 22 39  1  0  0  0  0
 22 40  1  0  0  0  0
 22 41  1  0  0  0  0
 23 24  2  0  0  0  0
 23  4  1  0  0  0  0
 24  2  1  0  0  0  0
M  END
>  <IDENTIFIER>
CNP0169884.1

>  <Energy>
715.246

$$$$
