
 OpenBabel09052517222D

123122  0  0  0  0  0  0  0  0999 V2000
   11.6913    6.7500    0.0000 C   0  0  0  0  0  0  0  0  0  0  0  0
   10.3923    6.0000    0.0000 C   0  0  0  0  0  0  0  0  0  0  0  0
    9.0933    5.2500    0.0000 C   0  0  0  0  0  0  0  0  0  0  0  0
    7.7942    4.5000    0.0000 C   0  0  0  0  0  0  0  0  0  0  0  0
    6.4952    3.7500    0.0000 C   0  0  0  0  0  0  0  0  0  0  0  0
    5.1962    3.0000    0.0000 C   0  0  0  0  0  0  0  0  0  0  0  0
    3.5236    2.9760   -0.0800 C   0  0  0  0  0  0  0  0  0  0  0  0
    2.7172    1.4901   -0.0307 C   0  0  0  0  0  0  0  0  0  0  0  0
    1.0500    1.2606    0.0551 C   0  0  0  0  0  0  0  0  0  0  0  0
    0.3490   -0.2336   -0.0122 C   0  0  0  0  0  0  0  0  0  0  0  0
    1.1177   -1.1581   -0.2232 O   0  0  0  0  0  0  0  0  0  0  0  0
   -1.0559   -0.5656    0.1540 O   0  0  0  0  0  0  0  0  0  0  0  0
   -1.7127   -1.8556   -0.1400 C   0  0  0  0  0  0  0  0  0  0  0  0
   -3.2970   -2.2560    0.2959 C   0  0  2  0  0  0  0  0  0  0  0  0
   -3.7532   -3.8228   -0.1855 C   0  0  0  0  0  0  0  0  0  0  0  0
   -4.9903   -4.5654    0.1519 O   0  0  0  0  0  0  0  0  0  0  0  0
   -5.1962   -6.0000    0.0000 C   0  0  0  0  0  0  0  0  0  0  0  0
   -4.1802   -6.6617   -0.2117 O   0  0  0  0  0  0  0  0  0  0  0  0
   -6.4952   -6.7500    0.0000 C   0  0  0  0  0  0  0  0  0  0  0  0
   -7.7942   -7.5000    0.0000 C   0  0  0  0  0  0  0  0  0  0  0  0
   -9.0933   -8.2500    0.0000 C   0  0  0  0  0  0  0  0  0  0  0  0
  -10.3923   -9.0000    0.0000 C   0  0  0  0  0  0  0  0  0  0  0  0
  -11.6913   -9.7500    0.0000 C   0  0  0  0  0  0  0  0  0  0  0  0
  -13.3408  -10.0649    0.0473 C   0  0  0  0  0  0  0  0  0  0  0  0
  -13.9444  -11.6532   -0.0423 C   0  0  0  0  0  0  0  0  0  0  0  0
  -15.5885  -12.0000    0.0000 C   0  0  0  0  0  0  0  0  0  0  0  0
  -16.8875  -12.7500    0.0000 C   0  0  0  0  0  2  0  0  0  0  0  0
  -18.1865  -13.5000    0.0000 C   0  0  0  0  0  0  0  0  0  0  0  0
  -19.4856  -14.2500    0.0000 C   0  0  0  0  0  0  0  0  0  0  0  0
  -18.9365  -12.2010    0.0000 C   0  0  0  0  0  0  0  0  0  0  0  0
   -4.1458   -1.1921   -0.1009 O   0  0  0  0  0  0  0  0  0  0  0  0
   -5.4728   -0.9572    0.2130 C   0  0  0  0  0  0  0  0  0  0  0  0
   -6.2786   -1.8740    0.1879 O   0  0  0  0  0  0  0  0  0  0  0  0
   -5.9135    0.4266    0.7667 C   0  0  0  0  0  0  0  0  0  0  0  0
   -7.0251    1.3151    0.0550 C   0  0  0  0  0  0  0  0  0  0  0  0
   -7.2347    2.6709    0.8505 C   0  0  0  0  0  0  0  0  0  0  0  0
   -7.8757    3.9749    0.2007 C   0  0  0  0  0  0  0  0  0  0  0  0
   -9.3450    4.5719    0.4760 C   0  0  0  0  0  0  0  0  0  0  0  0
   -9.3481    6.0933    0.0000 C   0  0  0  0  0  0  0  0  0  0  0  0
  -10.0981    7.3923    0.0000 C   0  0  0  0  0  0  0  0  0  0  0  0
  -10.8481    8.6913    0.0000 C   0  0  0  0  0  0  0  0  0  0  0  0
  -11.5626   10.0718   -0.6008 C   0  0  0  0  0  0  0  0  0  0  0  0
  -11.9392   11.3969    0.4226 C   0  0  0  0  0  0  0  0  0  0  0  0
  -13.0981   12.5885    0.0000 C   0  0  3  0  0  0  0  0  0  0  0  0
  -13.8481   13.8875    0.0000 C   0  0  0  0  0  0  0  0  0  0  0  0
  -14.3971   11.8385    0.0000 C   0  0  0  0  0  0  0  0  0  0  0  0
  -15.6962   11.0885    0.0000 C   0  0  0  0  0  0  0  0  0  0  0  0
   12.3068    6.1382    0.7236 H   0  0  0  0  0  0  0  0  0  0  0  0
   11.3120    7.6902    0.4685 H   0  0  0  0  0  0  0  0  0  0  0  0
   12.6179    7.2850    0.0000 H   0  0  0  0  0  0  0  0  0  0  0  0
   11.0173    5.2023   -0.5213 H   0  0  0  0  0  0  0  0  0  0  0  0
   10.3141    6.0087    1.1258 H   0  0  0  0  0  0  0  0  0  0  0  0
    9.5725    4.2536    0.2956 H   0  0  0  0  0  0  0  0  0  0  0  0
    9.0785    5.2957   -1.1294 H   0  0  0  0  0  0  0  0  0  0  0  0
    7.3208    5.5154   -0.2165 H   0  0  0  0  0  0  0  0  0  0  0  0
    7.8274    4.3989    1.1307 H   0  0  0  0  0  0  0  0  0  0  0  0
    5.9010    4.4744    0.6447 H   0  0  0  0  0  0  0  0  0  0  0  0
    6.3527    3.9764   -1.0916 H   0  0  0  0  0  0  0  0  0  0  0  0
    5.3062    2.4565    0.9697 H   0  0  0  0  0  0  0  0  0  0  0  0
    5.4038    2.1940   -0.7477 H   0  0  0  0  0  0  0  0  0  0  0  0
    3.1537    3.5875    0.7695 H   0  0  0  0  0  0  0  0  0  0  0  0
    3.2159    3.4841   -1.0179 H   0  0  0  0  0  0  0  0  0  0  0  0
    3.0592    0.9415   -0.9333 H   0  0  0  0  0  0  0  0  0  0  0  0
    3.1259    0.9504    0.8490 H   0  0  0  0  0  0  0  0  0  0  0  0
    0.7295    1.7248    1.0106 H   0  0  0  0  0  0  0  0  0  0  0  0
    0.5976    1.8497   -0.7693 H   0  0  0  0  0  0  0  0  0  0  0  0
   -1.0825   -2.6536    0.3068 H   0  0  0  0  0  0  0  0  0  0  0  0
   -1.6519   -1.9926   -1.2404 H   0  0  0  0  0  0  0  0  0  0  0  0
   -3.3000   -2.2611    1.4069 H   0  0  0  0  0  0  0  0  0  0  0  0
   -2.9200   -4.4445    0.2051 H   0  0  0  0  0  0  0  0  0  0  0  0
   -3.6545   -3.8512   -1.2909 H   0  0  0  0  0  0  0  0  0  0  0  0
   -6.0235   -7.3087    0.8728 H   0  0  0  0  0  0  0  0  0  0  0  0
   -6.2938   -7.0961   -1.0460 H   0  0  0  0  0  0  0  0  0  0  0  0
   -7.2942   -8.5248    0.0635 H   0  0  0  0  0  0  0  0  0  0  0  0
   -7.9934   -7.1447    1.0594 H   0  0  0  0  0  0  0  0  0  0  0  0
   -9.5781   -7.2182   -0.0892 H   0  0  0  0  0  0  0  0  0  0  0  0
   -8.9073   -8.6149   -1.0557 H   0  0  0  0  0  0  0  0  0  0  0  0
  -10.9038   -8.4056   -0.8270 H   0  0  0  0  0  0  0  0  0  0  0  0
  -10.6448   -8.5758    1.0091 H   0  0  0  0  0  0  0  0  0  0  0  0
  -11.5124  -10.3562   -0.9256 H   0  0  0  0  0  0  0  0  0  0  0  0
  -11.4421  -10.4710    0.8177 H   0  0  0  0  0  0  0  0  0  0  0  0
  -13.7262   -9.6262    0.9916 H   0  0  0  0  0  0  0  0  0  0  0  0
  -13.8004   -9.4990   -0.7902 H   0  0  0  0  0  0  0  0  0  0  0  0
  -13.4800  -12.2161    0.7945 H   0  0  0  0  0  0  0  0  0  0  0  0
  -13.5532  -12.0880   -0.9860 H   0  0  0  0  0  0  0  0  0  0  0  0
  -15.8704  -11.3158   -0.8273 H   0  0  0  0  0  0  0  0  0  0  0  0
  -15.7978  -11.4426    0.9368 H   0  0  0  0  0  0  0  0  0  0  0  0
  -18.0005  -13.8103    1.0586 H   0  0  0  0  0  0  0  0  0  0  0  0
  -19.7274  -14.1348   -1.0898 H   0  0  0  0  0  0  0  0  0  0  0  0
  -19.0465  -15.2759    0.0715 H   0  0  0  0  0  0  0  0  0  0  0  0
  -20.4123  -14.7850    0.0000 H   0  0  0  0  0  0  0  0  0  0  0  0
  -18.6498  -11.6910    0.9679 H   0  0  0  0  0  0  0  0  0  0  0  0
  -18.7581  -11.8334   -1.0495 H   0  0  0  0  0  0  0  0  0  0  0  0
  -19.4715  -11.2744    0.0000 H   0  0  0  0  0  0  0  0  0  0  0  0
   -4.9891    1.0412    0.8219 H   0  0  0  0  0  0  0  0  0  0  0  0
   -6.2552    0.2509    1.8092 H   0  0  0  0  0  0  0  0  0  0  0  0
   -6.6532    1.5503   -0.9654 H   0  0  0  0  0  0  0  0  0  0  0  0
   -7.9897    0.7729   -0.0321 H   0  0  0  0  0  0  0  0  0  0  0  0
   -7.6294    2.5044    1.8749 H   0  0  0  0  0  0  0  0  0  0  0  0
   -6.1744    2.9823    0.9979 H   0  0  0  0  0  0  0  0  0  0  0  0
   -7.6227    4.0106   -0.8804 H   0  0  0  0  0  0  0  0  0  0  0  0
   -7.2340    4.7529    0.6698 H   0  0  0  0  0  0  0  0  0  0  0  0
   -9.5331    4.5551    1.5703 H   0  0  0  0  0  0  0  0  0  0  0  0
  -10.1271    3.9752   -0.0381 H   0  0  0  0  0  0  0  0  0  0  0  0
   -9.0411    6.0056   -1.0695 H   0  0  0  0  0  0  0  0  0  0  0  0
   -8.4220    6.4707    0.4991 H   0  0  0  0  0  0  0  0  0  0  0  0
  -10.2269    7.2356    1.1108 H   0  0  0  0  0  0  0  0  0  0  0  0
  -10.9283    6.9088   -0.5704 H   0  0  0  0  0  0  0  0  0  0  0  0
  -10.1191    9.2566    0.6291 H   0  0  0  0  0  0  0  0  0  0  0  0
  -11.7394    8.4560    0.6476 H   0  0  0  0  0  0  0  0  0  0  0  0
  -12.4709    9.6929   -1.1072 H   0  0  0  0  0  0  0  0  0  0  0  0
  -10.9206   10.4858   -1.4065 H   0  0  0  0  0  0  0  0  0  0  0  0
  -12.2389   10.9808    1.4078 H   0  0  0  0  0  0  0  0  0  0  0  0
  -10.9720   11.9100    0.6046 H   0  0  0  0  0  0  0  0  0  0  0  0
  -12.7552   12.6893   -1.0621 H   0  0  0  0  0  0  0  0  0  0  0  0
  -12.9619   14.5468   -0.1621 H   0  0  0  0  0  0  0  0  0  0  0  0
  -14.0476   13.9371    1.1013 H   0  0  0  0  0  0  0  0  0  0  0  0
  -14.3831   14.8141    0.0000 H   0  0  0  0  0  0  0  0  0  0  0  0
  -14.0189   11.0052   -0.6191 H   0  0  0  0  0  0  0  0  0  0  0  0
  -14.2965   11.6249    1.0980 H   0  0  0  0  0  0  0  0  0  0  0  0
  -16.2686   11.7868    0.6622 H   0  0  0  0  0  0  0  0  0  0  0  0
  -15.9987   11.3552   -1.0440 H   0  0  0  0  0  0  0  0  0  0  0  0
  -16.6229   10.5535    0.0000 H   0  0  0  0  0  0  0  0  0  0  0  0
  1  2  1  0  0  0  0
  1 48  1  0  0  0  0
  1 49  1  0  0  0  0
  1 50  1  0  0  0  0
  2  3  1  0  0  0  0
  2 51  1  0  0  0  0
  2 52  1  0  0  0  0
  3  4  1  0  0  0  0
  3 53  1  0  0  0  0
  3 54  1  0  0  0  0
  4  5  1  0  0  0  0
  4 55  1  0  0  0  0
  4 56  1  0  0  0  0
  5  6  1  0  0  0  0
  5 57  1  0  0  0  0
  5 58  1  0  0  0  0
  6  7  1  0  0  0  0
  6 59  1  0  0  0  0
  6 60  1  0  0  0  0
  7  8  1  0  0  0  0
  7 61  1  0  0  0  0
  7 62  1  0  0  0  0
  8  9  1  0  0  0  0
  8 63  1  0  0  0  0
  8 64  1  0  0  0  0
  9 10  1  0  0  0  0
  9 65  1  0  0  0  0
  9 66  1  0  0  0  0
 10 11  2  0  0  0  0
 10 12  1  0  0  0  0
 12 13  1  0  0  0  0
 13 67  1  0  0  0  0
 13 68  1  0  0  0  0
 14 13  1  0  0  0  0
 14 15  1  0  0  0  0
 14 31  1  0  0  0  0
 14 69  1  1  0  0  0
 15 16  1  0  0  0  0
 15 70  1  0  0  0  0
 15 71  1  0  0  0  0
 16 17  1  0  0  0  0
 17 18  2  0  0  0  0
 17 19  1  0  0  0  0
 19 20  1  0  0  0  0
 19 72  1  0  0  0  0
 19 73  1  0  0  0  0
 20 21  1  0  0  0  0
 20 74  1  0  0  0  0
 20 75  1  0  0  0  0
 21 22  1  0  0  0  0
 21 76  1  0  0  0  0
 21 77  1  0  0  0  0
 22 23  1  0  0  0  0
 22 78  1  0  0  0  0
 22 79  1  0  0  0  0
 23 24  1  0  0  0  0
 23 80  1  0  0  0  0
 23 81  1  0  0  0  0
 24 25  1  0  0  0  0
 24 82  1  0  0  0  0
 24 83  1  0  0  0  0
 25 26  1  0  0  0  0
 25 84  1  0  0  0  0
 25 85  1  0  0  0  0
 26 27  1  0  0  0  0
 26 86  1  0  0  0  0
 26 87  1  0  0  0  0
 27 28  1  0  0  0  0
 28 29  1  0  0  0  0
 28 30  1  0  0  0  0
 28 88  1  0  0  0  0
 29 89  1  0  0  0  0
 29 90  1  0  0  0  0
 29 91  1  0  0  0  0
 30 92  1  0  0  0  0
 30 93  1  0  0  0  0
 30 94  1  0  0  0  0
 31 32  1  0  0  0  0
 32 33  2  0  0  0  0
 32 34  1  0  0  0  0
 34 35  1  0  0  0  0
 34 95  1  0  0  0  0
 34 96  1  0  0  0  0
 35 36  1  0  0  0  0
 35 97  1  0  0  0  0
 35 98  1  0  0  0  0
 36 37  1  0  0  0  0
 36 99  1  0  0  0  0
 36100  1  0  0  0  0
 37 38  1  0  0  0  0
 37101  1  0  0  0  0
 37102  1  0  0  0  0
 38 39  1  0  0  0  0
 38103  1  0  0  0  0
 38104  1  0  0  0  0
 39 40  1  0  0  0  0
 39105  1  0  0  0  0
 39106  1  0  0  0  0
 40 41  1  0  0  0  0
 40107  1  0  0  0  0
 40108  1  0  0  0  0
 41 42  1  0  0  0  0
 41109  1  0  0  0  0
 41110  1  0  0  0  0
 42 43  1  0  0  0  0
 42111  1  0  0  0  0
 42112  1  0  0  0  0
 43 44  1  0  0  0  0
 43113  1  0  0  0  0
 43114  1  0  0  0  0
 44 45  1  0  0  0  0
 44 46  1  0  0  0  0
 44115  1  0  0  0  0
 45116  1  0  0  0  0
 45117  1  0  0  0  0
 45118  1  0  0  0  0
 46 47  1  0  0  0  0
 46119  1  0  0  0  0
 46120  1  0  0  0  0
 47121  1  0  0  0  0
 47122  1  0  0  0  0
 47123  1  0  0  0  0
M  END
>  <IDENTIFIER>
CNP0560093.1

>  <Energy>
9177.35

$$$$
