
 OpenBabel09112500083D

 63 66  0  0  0  0  0  0  0  0999 V2000
    0.6775    6.0286   -2.7707 C   0  0  0  0  0  0  0  0  0  0  0  0
   -0.2567    5.0577   -2.4739 O   0  0  0  0  0  0  0  0  0  0  0  0
    0.0075    3.8405   -1.9290 C   0  0  0  0  0  0  0  0  0  0  0  0
    1.3266    3.4432   -1.5809 C   0  0  0  0  0  0  0  0  0  0  0  0
    1.5172    2.1690   -1.0456 C   0  0  0  0  0  0  0  0  0  0  0  0
    0.4730    1.3094   -0.8328 C   0  0  0  0  0  0  0  0  0  0  0  0
    0.9626    0.0160   -0.2604 C   0  0  0  0  0  0  0  0  0  0  0  0
    2.3925    0.2346   -0.1735 N   0  0  0  0  0  0  0  0  0  0  0  0
    3.3226   -0.7723    0.3027 C   0  0  0  0  0  0  0  0  0  0  0  0
    3.9976   -0.3304    1.6063 C   0  0  0  0  0  0  0  0  0  0  0  0
    4.9612   -1.3830    2.0949 C   0  0  0  0  0  0  0  0  0  0  0  0
    4.5001   -2.6513    2.4931 C   0  0  0  0  0  0  0  0  0  0  0  0
    5.4040   -3.6213    2.9409 C   0  0  0  0  0  0  0  0  0  0  0  0
    6.7697   -3.3350    2.9920 C   0  0  0  0  0  0  0  0  0  0  0  0
    7.2363   -2.0781    2.6016 C   0  0  0  0  0  0  0  0  0  0  0  0
    6.3365   -1.1040    2.1560 C   0  0  0  0  0  0  0  0  0  0  0  0
    2.7146    1.4741   -0.6178 C   0  0  0  0  0  0  0  0  0  0  0  0
    3.8519    1.9147   -0.6747 O   0  0  0  0  0  0  0  0  0  0  0  0
   -0.8278    1.6685   -1.1416 C   0  0  0  0  0  0  0  0  0  0  0  0
   -1.0714    2.9358   -1.7225 C   0  0  0  0  0  0  0  0  0  0  0  0
   -2.4893    3.2965   -2.1146 C   0  0  0  0  0  0  0  0  0  0  0  0
   -3.3755    2.0320   -2.2107 C   0  0  0  0  0  0  0  0  0  0  0  0
   -3.1820    1.1077   -0.9832 C   0  0  1  0  0  0  0  0  0  0  0  0
   -3.6850    1.8275    0.2952 C   0  0  0  0  0  0  0  0  0  0  0  0
   -3.9456   -0.2308   -1.1914 C   0  0  0  0  0  0  0  0  0  0  0  0
   -3.6970   -1.2781   -0.1140 C   0  0  0  0  0  0  0  0  0  0  0  0
   -2.9401   -1.0364    0.8103 O   0  0  0  0  0  0  0  0  0  0  0  0
   -4.3518   -2.6102   -0.2373 C   0  0  0  0  0  0  0  0  0  0  0  0
   -4.3313   -3.6394    0.6550 C   0  0  0  0  0  0  0  0  0  0  0  0
   -5.0490   -4.9204    0.3075 C   0  0  0  0  0  0  0  0  0  0  0  0
   -3.6540   -3.6317    2.0099 C   0  0  0  0  0  0  0  0  0  0  0  0
   -1.8342    0.8035   -0.8796 O   0  0  0  0  0  0  0  0  0  0  0  0
    0.1597    6.9090   -3.2032 H   0  0  0  0  0  0  0  0  0  0  0  0
    1.4049    5.6439   -3.5168 H   0  0  0  0  0  0  0  0  0  0  0  0
    1.2082    6.3473   -1.8485 H   0  0  0  0  0  0  0  0  0  0  0  0
    2.1795    4.0918   -1.7291 H   0  0  0  0  0  0  0  0  0  0  0  0
    0.7348   -0.8278   -0.9461 H   0  0  0  0  0  0  0  0  0  0  0  0
    0.5292   -0.1684    0.7458 H   0  0  0  0  0  0  0  0  0  0  0  0
    4.0830   -0.9699   -0.4841 H   0  0  0  0  0  0  0  0  0  0  0  0
    2.7689   -1.7171    0.4898 H   0  0  0  0  0  0  0  0  0  0  0  0
    3.2317   -0.1437    2.3891 H   0  0  0  0  0  0  0  0  0  0  0  0
    4.5384    0.6219    1.4234 H   0  0  0  0  0  0  0  0  0  0  0  0
    3.4443   -2.8894    2.4611 H   0  0  0  0  0  0  0  0  0  0  0  0
    5.0436   -4.5955    3.2472 H   0  0  0  0  0  0  0  0  0  0  0  0
    7.4683   -4.0872    3.3363 H   0  0  0  0  0  0  0  0  0  0  0  0
    8.2950   -1.8567    2.6395 H   0  0  0  0  0  0  0  0  0  0  0  0
    6.7163   -0.1349    1.8544 H   0  0  0  0  0  0  0  0  0  0  0  0
   -2.5057    3.7743   -3.1180 H   0  0  0  0  0  0  0  0  0  0  0  0
   -2.8807    4.0358   -1.3845 H   0  0  0  0  0  0  0  0  0  0  0  0
   -3.0383    1.4661   -3.1083 H   0  0  0  0  0  0  0  0  0  0  0  0
   -4.4395    2.3128   -2.3653 H   0  0  0  0  0  0  0  0  0  0  0  0
   -4.7635    2.0750    0.1921 H   0  0  0  0  0  0  0  0  0  0  0  0
   -3.1255    2.7653    0.4835 H   0  0  0  0  0  0  0  0  0  0  0  0
   -3.5659    1.2128    1.2067 H   0  0  0  0  0  0  0  0  0  0  0  0
   -3.6150   -0.6789   -2.1552 H   0  0  0  0  0  0  0  0  0  0  0  0
   -5.0355   -0.0285   -1.2615 H   0  0  0  0  0  0  0  0  0  0  0  0
   -4.9043   -2.7567   -1.1618 H   0  0  0  0  0  0  0  0  0  0  0  0
   -5.5253   -4.8870   -0.6947 H   0  0  0  0  0  0  0  0  0  0  0  0
   -5.8383   -5.1199    1.0619 H   0  0  0  0  0  0  0  0  0  0  0  0
   -4.3235   -5.7620    0.3158 H   0  0  0  0  0  0  0  0  0  0  0  0
   -3.1505   -2.6989    2.2995 H   0  0  0  0  0  0  0  0  0  0  0  0
   -2.8966   -4.4417    2.0480 H   0  0  0  0  0  0  0  0  0  0  0  0
   -4.4175   -3.8270    2.7924 H   0  0  0  0  0  0  0  0  0  0  0  0
  1  2  1  0  0  0  0
  1 33  1  0  0  0  0
  1 34  1  0  0  0  0
  1 35  1  0  0  0  0
  2  3  1  0  0  0  0
  3  4  2  0  0  0  0
  4  5  1  0  0  0  0
  4 36  1  0  0  0  0
  5  6  2  0  0  0  0
  6  7  1  0  0  0  0
  6 19  1  0  0  0  0
  7  8  1  0  0  0  0
  7 37  1  0  0  0  0
  7 38  1  0  0  0  0
  8  9  1  0  0  0  0
  8 17  1  0  0  0  0
  9 10  1  0  0  0  0
  9 39  1  0  0  0  0
  9 40  1  0  0  0  0
 10 11  1  0  0  0  0
 10 41  1  0  0  0  0
 10 42  1  0  0  0  0
 11 12  2  0  0  0  0
 12 13  1  0  0  0  0
 12 43  1  0  0  0  0
 13 14  2  0  0  0  0
 13 44  1  0  0  0  0
 14 15  1  0  0  0  0
 14 45  1  0  0  0  0
 15 16  2  0  0  0  0
 15 46  1  0  0  0  0
 16 11  1  0  0  0  0
 16 47  1  0  0  0  0
 17 18  2  0  0  0  0
 17  5  1  0  0  0  0
 19 20  2  0  0  0  0
 20 21  1  0  0  0  0
 20  3  1  0  0  0  0
 21 22  1  0  0  0  0
 21 48  1  0  0  0  0
 21 49  1  0  0  0  0
 22 23  1  0  0  0  0
 22 50  1  0  0  0  0
 22 51  1  0  0  0  0
 23 24  1  1  0  0  0
 23 25  1  0  0  0  0
 23 32  1  0  0  0  0
 24 52  1  0  0  0  0
 24 53  1  0  0  0  0
 24 54  1  0  0  0  0
 25 26  1  0  0  0  0
 25 55  1  0  0  0  0
 25 56  1  0  0  0  0
 26 27  2  0  0  0  0
 26 28  1  0  0  0  0
 28 29  2  0  0  0  0
 28 57  1  0  0  0  0
 29 30  1  0  0  0  0
 29 31  1  0  0  0  0
 30 58  1  0  0  0  0
 30 59  1  0  0  0  0
 30 60  1  0  0  0  0
 31 61  1  0  0  0  0
 31 62  1  0  0  0  0
 31 63  1  0  0  0  0
 32 19  1  0  0  0  0
M  END
>  <IDENTIFIER>
CNP0288038.1

>  <Energy>
414.117

$$$$
