
 OpenBabel09112519423D

 54 58  0  0  0  0  0  0  0  0999 V2000
   -5.3935    0.5132   -0.7886 C   0  0  0  0  0  0  0  0  0  0  0  0
   -4.6679   -0.7579   -0.4180 C   0  0  0  0  0  0  0  0  0  0  0  0
   -5.1661   -1.8226   -0.7569 O   0  0  0  0  0  0  0  0  0  0  0  0
   -3.4043   -0.7866    0.4290 C   0  0  2  0  0  0  0  0  0  0  0  0
   -3.5336   -0.0752    1.8031 C   0  0  0  0  0  0  0  0  0  0  0  0
   -2.1136    0.4116    2.1587 C   0  0  0  0  0  0  0  0  0  0  0  0
   -1.2235   -0.3035    1.1519 C   0  0  2  0  0  0  0  0  0  0  0  0
    0.2531    0.1511    0.9720 C   0  0  2  0  0  0  0  0  0  0  0  0
    0.5604    1.6560    1.1987 C   0  0  0  0  0  0  0  0  0  0  0  0
    1.8917    2.0943    0.5518 C   0  0  0  0  0  0  0  0  0  0  0  0
    2.8980    0.9364    0.4426 C   0  0  2  0  0  0  0  0  0  0  0  0
    3.9336    0.8786    1.3975 O   0  0  0  0  0  0  0  0  0  0  0  0
    4.2805    1.4028    0.1296 C   0  0  1  0  0  0  0  0  0  0  0  0
    5.1853    0.4591   -0.6080 C   0  0  0  0  0  0  0  0  0  0  0  0
    6.3807    0.4524   -0.3569 O   0  0  0  0  0  0  0  0  0  0  0  0
    4.6289   -0.5278   -1.6004 C   0  0  0  0  0  0  0  0  0  0  0  0
    3.0922   -0.4613   -1.6677 C   0  0  0  0  0  0  0  0  0  0  0  0
    2.4436   -0.4086   -0.2490 C   0  0  1  0  0  0  0  0  0  0  0  0
    2.8803   -1.6465    0.5915 C   0  0  0  0  0  0  0  0  0  0  0  0
    0.8684   -0.3463   -0.3867 C   0  0  1  0  0  0  0  0  0  0  0  0
    0.1493   -1.6292   -0.8609 C   0  0  0  0  0  0  0  0  0  0  0  0
   -1.3705   -1.3594   -1.1387 C   0  0  0  0  0  0  0  0  0  0  0  0
   -2.0362   -0.3233   -0.1533 C   0  0  1  0  0  0  0  0  0  0  0  0
   -2.1397    1.0732   -0.8327 C   0  0  0  0  0  0  0  0  0  0  0  0
   -6.3151    0.2763   -1.3633 H   0  0  0  0  0  0  0  0  0  0  0  0
   -4.7877    1.1854   -1.4158 H   0  0  0  0  0  0  0  0  0  0  0  0
   -5.7014    1.0597    0.1241 H   0  0  0  0  0  0  0  0  0  0  0  0
   -3.2248   -1.8591    0.6868 H   0  0  0  0  0  0  0  0  0  0  0  0
   -3.9316   -0.8066    2.5403 H   0  0  0  0  0  0  0  0  0  0  0  0
   -4.1944    0.8164    1.7993 H   0  0  0  0  0  0  0  0  0  0  0  0
   -1.8340    0.2894    3.2261 H   0  0  0  0  0  0  0  0  0  0  0  0
   -2.0713    1.4967    1.9315 H   0  0  0  0  0  0  0  0  0  0  0  0
   -1.1736   -1.3686    1.4928 H   0  0  0  0  0  0  0  0  0  0  0  0
    0.7762   -0.3602    1.8047 H   0  0  0  0  0  0  0  0  0  0  0  0
    0.5809    1.8220    2.2982 H   0  0  0  0  0  0  0  0  0  0  0  0
   -0.2178    2.3277    0.7847 H   0  0  0  0  0  0  0  0  0  0  0  0
    2.2856    3.0119    1.0407 H   0  0  0  0  0  0  0  0  0  0  0  0
    1.6753    2.3669   -0.5046 H   0  0  0  0  0  0  0  0  0  0  0  0
    4.5310    2.4820    0.2086 H   0  0  0  0  0  0  0  0  0  0  0  0
    4.9277   -1.5431   -1.2659 H   0  0  0  0  0  0  0  0  0  0  0  0
    5.0659   -0.3693   -2.6097 H   0  0  0  0  0  0  0  0  0  0  0  0
    2.7311   -1.3273   -2.2604 H   0  0  0  0  0  0  0  0  0  0  0  0
    2.8036    0.4656   -2.2135 H   0  0  0  0  0  0  0  0  0  0  0  0
    2.5971   -2.5875    0.0752 H   0  0  0  0  0  0  0  0  0  0  0  0
    2.4353   -1.6603    1.6032 H   0  0  0  0  0  0  0  0  0  0  0  0
    3.9757   -1.6740    0.7536 H   0  0  0  0  0  0  0  0  0  0  0  0
    0.6454    0.3985   -1.1747 H   0  0  0  0  0  0  0  0  0  0  0  0
    0.2439   -2.3774   -0.0440 H   0  0  0  0  0  0  0  0  0  0  0  0
    0.6006   -2.0753   -1.7708 H   0  0  0  0  0  0  0  0  0  0  0  0
   -1.8617   -2.3548   -1.0872 H   0  0  0  0  0  0  0  0  0  0  0  0
   -1.5189   -1.0077   -2.1820 H   0  0  0  0  0  0  0  0  0  0  0  0
   -2.6960    0.9808   -1.7844 H   0  0  0  0  0  0  0  0  0  0  0  0
   -1.1639    1.4936   -1.1203 H   0  0  0  0  0  0  0  0  0  0  0  0
   -2.6547    1.8203   -0.1967 H   0  0  0  0  0  0  0  0  0  0  0  0
  1  2  1  0  0  0  0
  1 25  1  0  0  0  0
  1 26  1  0  0  0  0
  1 27  1  0  0  0  0
  2  3  2  0  0  0  0
  4  2  1  0  0  0  0
  4  5  1  0  0  0  0
  4 28  1  1  0  0  0
  5  6  1  0  0  0  0
  5 29  1  0  0  0  0
  5 30  1  0  0  0  0
  6 31  1  0  0  0  0
  6 32  1  0  0  0  0
  7  6  1  0  0  0  0
  7  8  1  0  0  0  0
  7 33  1  1  0  0  0
  8  9  1  0  0  0  0
  8 34  1  1  0  0  0
  9 10  1  0  0  0  0
  9 35  1  0  0  0  0
  9 36  1  0  0  0  0
 10 37  1  0  0  0  0
 10 38  1  0  0  0  0
 11 10  1  0  0  0  0
 11 12  1  1  0  0  0
 13 12  1  0  0  0  0
 13 14  1  0  0  0  0
 13 11  1  0  0  0  0
 13 39  1  6  0  0  0
 14 15  2  0  0  0  0
 14 16  1  0  0  0  0
 16 17  1  0  0  0  0
 16 40  1  0  0  0  0
 16 41  1  0  0  0  0
 17 18  1  0  0  0  0
 17 42  1  0  0  0  0
 17 43  1  0  0  0  0
 18 19  1  1  0  0  0
 18 20  1  0  0  0  0
 18 11  1  0  0  0  0
 19 44  1  0  0  0  0
 19 45  1  0  0  0  0
 19 46  1  0  0  0  0
 20 21  1  0  0  0  0
 20  8  1  0  0  0  0
 20 47  1  6  0  0  0
 21 22  1  0  0  0  0
 21 48  1  0  0  0  0
 21 49  1  0  0  0  0
 22 23  1  0  0  0  0
 22 50  1  0  0  0  0
 22 51  1  0  0  0  0
 23 24  1  6  0  0  0
 23  4  1  0  0  0  0
 23  7  1  0  0  0  0
 24 52  1  0  0  0  0
 24 53  1  0  0  0  0
 24 54  1  0  0  0  0
M  END
>  <IDENTIFIER>
CNP0061313.0

>  <Energy>
2283.47

$$$$
