
 OpenBabel09062522243D

 62 66  0  0  0  0  0  0  0  0999 V2000
   -4.3023    0.0270   -2.1062 C   0  0  0  0  0  0  0  0  0  0  0  0
   -4.5067   -0.3265   -0.6147 C   0  0  2  0  0  0  0  0  0  0  0  0
   -5.8148    0.3525   -0.1010 C   0  0  0  0  0  0  0  0  0  0  0  0
   -5.6187    1.7594    0.4739 C   0  0  0  0  0  0  0  0  0  0  0  0
   -6.5977    2.3856    0.8427 O   0  0  0  0  0  0  0  0  0  0  0  0
   -4.3760    2.2544    0.7569 O   0  0  0  0  0  0  0  0  0  0  0  0
   -3.2326    1.6392    0.2955 C   0  0  1  0  0  0  0  0  0  0  0  0
   -1.9287    1.9008    1.0614 C   0  0  0  0  0  0  0  0  0  0  0  0
   -1.0606    0.8658    0.3331 C   0  0  1  0  0  0  0  0  0  0  0  0
    0.4608    0.7496    0.5346 C   0  0  1  0  0  0  0  0  0  0  0  0
    1.0311    0.5721    1.9540 C   0  0  0  0  0  0  0  0  0  0  0  0
    2.5453    0.6231    1.8771 C   0  0  0  0  0  0  0  0  0  0  0  0
    3.2036    0.5498    2.9040 O   0  0  0  0  0  0  0  0  0  0  0  0
    3.2215    0.6608    0.5074 C   0  0  1  0  0  0  0  0  0  0  0  0
    4.7665    0.6247    0.5807 C   0  0  0  0  0  0  0  0  0  0  0  0
    5.3584    0.6619   -0.8422 C   0  0  1  0  0  0  0  0  0  0  0  0
    6.7624    0.6595   -0.7995 O   0  0  0  0  0  0  0  0  0  0  0  0
    4.8342   -0.5101   -1.6944 C   0  0  0  0  0  0  0  0  0  0  0  0
    3.2971   -0.4807   -1.7612 C   0  0  0  0  0  0  0  0  0  0  0  0
    2.6203   -0.5067   -0.3553 C   0  0  1  0  0  0  0  0  0  0  0  0
    2.9153   -1.8767    0.3415 C   0  0  0  0  0  0  0  0  0  0  0  0
    1.0444   -0.2661   -0.5284 C   0  0  1  0  0  0  0  0  0  0  0  0
    0.1764   -1.5788   -0.6920 C   0  0  2  0  0  0  0  0  0  0  0  0
    0.6086   -2.3317   -1.7979 O   0  0  0  0  0  0  0  0  0  0  0  0
   -1.3563   -1.2943   -0.8235 C   0  0  0  0  0  0  0  0  0  0  0  0
   -1.8819   -0.4486    0.3650 C   0  0  1  0  0  0  0  0  0  0  0  0
   -1.7546   -1.2740    1.6888 C   0  0  0  0  0  0  0  0  0  0  0  0
   -3.3662    0.1135    0.3386 C   0  0  2  0  0  0  0  0  0  0  0  0
   -5.1715   -0.3408   -2.6911 H   0  0  0  0  0  0  0  0  0  0  0  0
   -3.4215   -0.4699   -2.5374 H   0  0  0  0  0  0  0  0  0  0  0  0
   -4.2388    1.1169   -2.2915 H   0  0  0  0  0  0  0  0  0  0  0  0
   -4.6397   -1.4293   -0.5711 H   0  0  0  0  0  0  0  0  0  0  0  0
   -6.2138   -0.2466    0.7461 H   0  0  0  0  0  0  0  0  0  0  0  0
   -6.5936    0.3382   -0.8953 H   0  0  0  0  0  0  0  0  0  0  0  0
   -3.0671    1.9960   -0.7437 H   0  0  0  0  0  0  0  0  0  0  0  0
   -2.0191    1.6556    2.1423 H   0  0  0  0  0  0  0  0  0  0  0  0
   -1.5706    2.9456    0.9393 H   0  0  0  0  0  0  0  0  0  0  0  0
   -1.0844    1.2256   -0.7294 H   0  0  0  0  0  0  0  0  0  0  0  0
    0.8289    1.7646    0.2577 H   0  0  0  0  0  0  0  0  0  0  0  0
    0.7513   -0.3816    2.4244 H   0  0  0  0  0  0  0  0  0  0  0  0
    0.6669    1.4034    2.5952 H   0  0  0  0  0  0  0  0  0  0  0  0
    2.9727    1.6264    0.0146 H   0  0  0  0  0  0  0  0  0  0  0  0
    5.1205   -0.2809    1.1141 H   0  0  0  0  0  0  0  0  0  0  0  0
    5.1304    1.5082    1.1495 H   0  0  0  0  0  0  0  0  0  0  0  0
    5.0392    1.6118   -1.3267 H   0  0  0  0  0  0  0  0  0  0  0  0
    7.0481   -0.1959   -0.3838 H   0  0  0  0  0  0  0  0  0  0  0  0
    5.1838   -1.4755   -1.2750 H   0  0  0  0  0  0  0  0  0  0  0  0
    5.2425   -0.4286   -2.7250 H   0  0  0  0  0  0  0  0  0  0  0  0
    2.9385   -1.3246   -2.3876 H   0  0  0  0  0  0  0  0  0  0  0  0
    3.0157    0.4637   -2.2789 H   0  0  0  0  0  0  0  0  0  0  0  0
    2.5739   -2.7266   -0.2824 H   0  0  0  0  0  0  0  0  0  0  0  0
    2.4138   -1.9512    1.3280 H   0  0  0  0  0  0  0  0  0  0  0  0
    3.9919   -2.0546    0.5128 H   0  0  0  0  0  0  0  0  0  0  0  0
    0.8882    0.2946   -1.4777 H   0  0  0  0  0  0  0  0  0  0  0  0
    0.3241   -2.2168    0.1928 H   0  0  0  0  0  0  0  0  0  0  0  0
    0.4692   -1.7776   -2.6099 H   0  0  0  0  0  0  0  0  0  0  0  0
   -1.9220   -2.2494   -0.8967 H   0  0  0  0  0  0  0  0  0  0  0  0
   -1.4860   -0.7391   -1.7697 H   0  0  0  0  0  0  0  0  0  0  0  0
   -2.4607   -2.1309    1.6545 H   0  0  0  0  0  0  0  0  0  0  0  0
   -2.0029   -0.6591    2.5799 H   0  0  0  0  0  0  0  0  0  0  0  0
   -0.7690   -1.7112    1.8851 H   0  0  0  0  0  0  0  0  0  0  0  0
   -3.7747   -0.0809    1.3591 H   0  0  0  0  0  0  0  0  0  0  0  0
  1 29  1  0  0  0  0
  1 30  1  0  0  0  0
  1 31  1  0  0  0  0
  2  1  1  0  0  0  0
  2  3  1  0  0  0  0
  2 32  1  1  0  0  0
  3  4  1  0  0  0  0
  3 33  1  0  0  0  0
  3 34  1  0  0  0  0
  4  5  2  0  0  0  0
  4  6  1  0  0  0  0
  6  7  1  0  0  0  0
  7  8  1  0  0  0  0
  7 35  1  6  0  0  0
  8 36  1  0  0  0  0
  8 37  1  0  0  0  0
  9  8  1  0  0  0  0
  9 10  1  0  0  0  0
  9 38  1  6  0  0  0
 10 11  1  0  0  0  0
 10 39  1  6  0  0  0
 11 12  1  0  0  0  0
 11 40  1  0  0  0  0
 11 41  1  0  0  0  0
 12 13  2  0  0  0  0
 12 14  1  0  0  0  0
 14 15  1  0  0  0  0
 14 42  1  6  0  0  0
 15 16  1  0  0  0  0
 15 43  1  0  0  0  0
 15 44  1  0  0  0  0
 16 17  1  0  0  0  0
 16 18  1  0  0  0  0
 16 45  1  6  0  0  0
 17 46  1  0  0  0  0
 18 19  1  0  0  0  0
 18 47  1  0  0  0  0
 18 48  1  0  0  0  0
 19 20  1  0  0  0  0
 19 49  1  0  0  0  0
 19 50  1  0  0  0  0
 20 21  1  1  0  0  0
 20 22  1  0  0  0  0
 20 14  1  0  0  0  0
 21 51  1  0  0  0  0
 21 52  1  0  0  0  0
 21 53  1  0  0  0  0
 22 23  1  0  0  0  0
 22 10  1  0  0  0  0
 22 54  1  6  0  0  0
 23 24  1  0  0  0  0
 23 25  1  0  0  0  0
 23 55  1  1  0  0  0
 24 56  1  0  0  0  0
 25 26  1  0  0  0  0
 25 57  1  0  0  0  0
 25 58  1  0  0  0  0
 26 27  1  1  0  0  0
 26 28  1  0  0  0  0
 26  9  1  0  0  0  0
 27 59  1  0  0  0  0
 27 60  1  0  0  0  0
 27 61  1  0  0  0  0
 28  2  1  0  0  0  0
 28  7  1  0  0  0  0
 28 62  1  1  0  0  0
M  END
>  <IDENTIFIER>
CNP0261763.1

>  <Energy>
809.57

$$$$
