
 OpenBabel09042519333D

 53 55  0  0  0  0  0  0  0  0999 V2000
    5.4187    1.7907    0.2753 C   0  0  0  0  0  0  0  0  0  0  0  0
    5.1079    0.4914    0.3880 C   0  0  0  0  0  0  0  0  0  0  0  0
    3.6965   -0.0706    0.1972 C   0  0  2  0  0  0  0  0  0  0  0  0
    3.8083   -1.6067    0.3825 C   0  0  0  0  0  0  0  0  0  0  0  0
    3.1634    0.2867   -1.2026 C   0  0  0  0  0  0  0  0  0  0  0  0
    1.7654   -0.3017   -1.4952 C   0  0  0  0  0  0  0  0  0  0  0  0
    0.7793   -0.3868   -0.2735 C   0  0  1  0  0  0  0  0  0  0  0  0
    1.2493    0.4244    0.9163 C   0  0  0  0  0  0  0  0  0  0  0  0
    0.3790    0.9946    1.7522 C   0  0  0  0  0  0  0  0  0  0  0  0
   -1.1003    0.8600    1.6275 C   0  0  0  0  0  0  0  0  0  0  0  0
   -1.6140   -0.2903    0.6894 C   0  0  1  0  0  0  0  0  0  0  0  0
   -3.2004   -0.1420    0.5036 C   0  0  2  0  0  0  0  0  0  0  0  0
   -3.9110    0.1063    1.8683 C   0  0  0  0  0  0  0  0  0  0  0  0
   -3.9103   -1.4096   -0.0703 C   0  0  0  0  0  0  0  0  0  0  0  0
   -3.6543   -2.5442    0.7152 O   0  0  0  0  0  0  0  0  0  0  0  0
   -3.4838    1.0890   -0.4112 C   0  0  0  0  0  0  0  0  0  0  0  0
   -2.6757    1.0642   -1.7196 C   0  0  0  0  0  0  0  0  0  0  0  0
   -1.1515    0.9758   -1.4549 C   0  0  0  0  0  0  0  0  0  0  0  0
   -0.7658   -0.3078   -0.6509 C   0  0  1  0  0  0  0  0  0  0  0  0
   -1.0044   -1.5626   -1.5474 C   0  0  0  0  0  0  0  0  0  0  0  0
    2.7324    0.5877    1.2279 C   0  0  0  0  0  0  0  0  0  0  0  0
    6.4436    2.1134    0.4239 H   0  0  0  0  0  0  0  0  0  0  0  0
    4.6733    2.5408    0.0364 H   0  0  0  0  0  0  0  0  0  0  0  0
    5.9234   -0.1880    0.6257 H   0  0  0  0  0  0  0  0  0  0  0  0
    4.5134   -2.0284   -0.3666 H   0  0  0  0  0  0  0  0  0  0  0  0
    2.8626   -2.1548    0.2677 H   0  0  0  0  0  0  0  0  0  0  0  0
    4.1974   -1.8425    1.3965 H   0  0  0  0  0  0  0  0  0  0  0  0
    3.8624   -0.0126   -2.0144 H   0  0  0  0  0  0  0  0  0  0  0  0
    3.0723    1.3953   -1.2455 H   0  0  0  0  0  0  0  0  0  0  0  0
    1.8801   -1.3342   -1.8923 H   0  0  0  0  0  0  0  0  0  0  0  0
    1.3738    0.3092   -2.3284 H   0  0  0  0  0  0  0  0  0  0  0  0
    0.9221   -1.3979    0.1541 H   0  0  0  0  0  0  0  0  0  0  0  0
    0.7496    1.6007    2.5758 H   0  0  0  0  0  0  0  0  0  0  0  0
   -1.4575    1.8653    1.3370 H   0  0  0  0  0  0  0  0  0  0  0  0
   -1.4718    0.6482    2.6510 H   0  0  0  0  0  0  0  0  0  0  0  0
   -1.3898   -1.2345    1.2338 H   0  0  0  0  0  0  0  0  0  0  0  0
   -3.7038   -0.7216    2.5799 H   0  0  0  0  0  0  0  0  0  0  0  0
   -5.0123    0.1856    1.7362 H   0  0  0  0  0  0  0  0  0  0  0  0
   -3.6076    1.0629    2.3399 H   0  0  0  0  0  0  0  0  0  0  0  0
   -3.7443   -1.6283   -1.1288 H   0  0  0  0  0  0  0  0  0  0  0  0
   -5.0101   -1.2455   -0.0741 H   0  0  0  0  0  0  0  0  0  0  0  0
   -2.8431   -2.9742    0.3416 H   0  0  0  0  0  0  0  0  0  0  0  0
   -3.2150    2.0283    0.1128 H   0  0  0  0  0  0  0  0  0  0  0  0
   -4.5700    1.1649   -0.6370 H   0  0  0  0  0  0  0  0  0  0  0  0
   -2.8884    1.9965   -2.2861 H   0  0  0  0  0  0  0  0  0  0  0  0
   -3.0155    0.2274   -2.3579 H   0  0  0  0  0  0  0  0  0  0  0  0
   -0.8349    1.8837   -0.8991 H   0  0  0  0  0  0  0  0  0  0  0  0
   -0.6447    1.0038   -2.4390 H   0  0  0  0  0  0  0  0  0  0  0  0
   -0.3291   -1.5534   -2.4258 H   0  0  0  0  0  0  0  0  0  0  0  0
   -1.9757   -1.6422   -2.0256 H   0  0  0  0  0  0  0  0  0  0  0  0
   -0.8119   -2.4970   -0.9786 H   0  0  0  0  0  0  0  0  0  0  0  0
    2.9703    0.2221    2.2509 H   0  0  0  0  0  0  0  0  0  0  0  0
    2.8959    1.6869    1.2216 H   0  0  0  0  0  0  0  0  0  0  0  0
  1  2  2  0  0  0  0
  1 22  1  0  0  0  0
  1 23  1  0  0  0  0
  2 24  1  0  0  0  0
  3  2  1  1  0  0  0
  3  4  1  0  0  0  0
  3  5  1  0  0  0  0
  4 25  1  0  0  0  0
  4 26  1  0  0  0  0
  4 27  1  0  0  0  0
  5  6  1  0  0  0  0
  5 28  1  0  0  0  0
  5 29  1  0  0  0  0
  6 30  1  0  0  0  0
  6 31  1  0  0  0  0
  7  6  1  0  0  0  0
  7  8  1  0  0  0  0
  7 32  1  1  0  0  0
  8  9  2  0  0  0  0
  8 21  1  0  0  0  0
  9 10  1  0  0  0  0
  9 33  1  0  0  0  0
 10 34  1  0  0  0  0
 10 35  1  0  0  0  0
 11 10  1  0  0  0  0
 11 12  1  0  0  0  0
 11 36  1  1  0  0  0
 12 13  1  1  0  0  0
 12 14  1  0  0  0  0
 12 16  1  0  0  0  0
 13 37  1  0  0  0  0
 13 38  1  0  0  0  0
 13 39  1  0  0  0  0
 14 15  1  0  0  0  0
 14 40  1  0  0  0  0
 14 41  1  0  0  0  0
 15 42  1  0  0  0  0
 16 17  1  0  0  0  0
 16 43  1  0  0  0  0
 16 44  1  0  0  0  0
 17 18  1  0  0  0  0
 17 45  1  0  0  0  0
 17 46  1  0  0  0  0
 18 19  1  0  0  0  0
 18 47  1  0  0  0  0
 18 48  1  0  0  0  0
 19 20  1  6  0  0  0
 19  7  1  0  0  0  0
 19 11  1  0  0  0  0
 20 49  1  0  0  0  0
 20 50  1  0  0  0  0
 20 51  1  0  0  0  0
 21  3  1  0  0  0  0
 21 52  1  0  0  0  0
 21 53  1  0  0  0  0
M  END
>  <IDENTIFIER>
CNP0228863.7

>  <Energy>
509.269

$$$$
