
 OpenBabel09062503483D

 63 66  0  0  0  0  0  0  0  0999 V2000
   -5.6927   -0.1372    2.2751 C   0  0  0  0  0  0  0  0  0  0  0  0
   -5.9746   -0.6451    0.8496 C   0  0  2  0  0  0  0  0  0  0  0  0
   -5.1376   -1.8962    0.5371 C   0  0  0  0  0  0  0  0  0  0  0  0
   -3.6150   -1.5788    0.4899 C   0  0  0  0  0  0  0  0  0  0  0  0
   -3.2902   -0.1594   -0.0867 C   0  0  1  0  0  0  0  0  0  0  0  0
   -1.9196   -0.0802   -0.7993 C   0  0  2  0  0  0  0  0  0  0  0  0
   -0.7102   -0.5246    0.0317 C   0  0  0  0  0  0  0  0  0  0  0  0
   -0.8560   -0.7069    1.2304 O   0  0  0  0  0  0  0  0  0  0  0  0
    0.6714   -0.6312   -0.5722 C   0  0  0  0  0  0  0  0  0  0  0  0
    1.8324   -0.1933    0.1317 C   0  0  0  0  0  0  0  0  0  0  0  0
    1.7415    0.3840    1.3530 O   0  0  0  0  0  0  0  0  0  0  0  0
    3.1217   -0.2847   -0.4642 C   0  0  0  0  0  0  0  0  0  0  0  0
    4.3691    0.2711    0.2870 C   0  0  2  0  0  0  0  0  0  0  0  0
    4.0949    1.6247    0.5845 O   0  0  0  0  0  0  0  0  0  0  0  0
    5.7192    0.2264   -0.5436 C   0  0  0  0  0  0  0  0  0  0  0  0
    7.0104    0.1823    0.3071 C   0  0  0  0  0  0  0  0  0  0  0  0
    6.8295    0.7994    1.6520 C   0  0  0  0  0  0  0  0  0  0  0  0
    7.6323    1.6149    2.0779 O   0  0  0  0  0  0  0  0  0  0  0  0
    5.6408    0.3808    2.4818 C   0  0  0  0  0  0  0  0  0  0  0  0
    4.6176   -0.4581    1.6525 C   0  0  2  0  0  0  0  0  0  0  0  0
    5.0773   -1.7661    1.4219 O   0  0  0  0  0  0  0  0  0  0  0  0
    3.2038   -0.8228   -1.7642 C   0  0  0  0  0  0  0  0  0  0  0  0
    2.0976   -1.2476   -2.4282 N   0  0  0  0  0  0  0  0  0  0  0  0
    2.2187   -1.7612   -3.6566 O   0  0  0  0  0  0  0  0  0  0  0  0
    0.8486   -1.1593   -1.8716 C   0  0  0  0  0  0  0  0  0  0  0  0
   -0.1017   -1.5713   -2.5123 O   0  0  0  0  0  0  0  0  0  0  0  0
   -1.6734    1.3821   -1.3113 C   0  0  2  0  0  0  0  0  0  0  0  0
   -1.2548    2.3793   -0.2115 C   0  0  0  0  0  0  0  0  0  0  0  0
   -2.8802    1.9621   -2.0134 C   0  0  0  0  0  0  0  0  0  0  0  0
   -4.1105    1.4379   -1.9182 C   0  0  0  0  0  0  0  0  0  0  0  0
   -4.4212    0.2355   -1.0614 C   0  0  2  0  0  0  0  0  0  0  0  0
   -5.7312    0.4464   -0.2460 C   0  0  0  0  0  0  0  0  0  0  0  0
   -5.9314   -0.9360    3.0095 H   0  0  0  0  0  0  0  0  0  0  0  0
   -6.3415    0.7364    2.4981 H   0  0  0  0  0  0  0  0  0  0  0  0
   -4.6403    0.1658    2.4270 H   0  0  0  0  0  0  0  0  0  0  0  0
   -7.0573   -0.9025    0.8403 H   0  0  0  0  0  0  0  0  0  0  0  0
   -5.4620   -2.2388   -0.4707 H   0  0  0  0  0  0  0  0  0  0  0  0
   -5.3366   -2.7392    1.2330 H   0  0  0  0  0  0  0  0  0  0  0  0
   -3.1586   -2.3838   -0.1269 H   0  0  0  0  0  0  0  0  0  0  0  0
   -3.1709   -1.6416    1.5053 H   0  0  0  0  0  0  0  0  0  0  0  0
   -3.2941    0.5831    0.7374 H   0  0  0  0  0  0  0  0  0  0  0  0
   -2.0478   -0.7558   -1.6647 H   0  0  0  0  0  0  0  0  0  0  0  0
    0.9303    0.5883    1.8304 H   0  0  0  0  0  0  0  0  0  0  0  0
    3.9092    2.0987   -0.2691 H   0  0  0  0  0  0  0  0  0  0  0  0
    5.7285    1.0853   -1.2491 H   0  0  0  0  0  0  0  0  0  0  0  0
    5.8273   -0.6952   -1.1456 H   0  0  0  0  0  0  0  0  0  0  0  0
    7.8924    0.5547   -0.2578 H   0  0  0  0  0  0  0  0  0  0  0  0
    7.2214   -0.8849    0.5385 H   0  0  0  0  0  0  0  0  0  0  0  0
    5.1286    1.3180    2.7916 H   0  0  0  0  0  0  0  0  0  0  0  0
    5.9547   -0.1432    3.4088 H   0  0  0  0  0  0  0  0  0  0  0  0
    3.6944   -0.5178    2.2637 H   0  0  0  0  0  0  0  0  0  0  0  0
    5.0937   -2.2236    2.3028 H   0  0  0  0  0  0  0  0  0  0  0  0
    4.1391   -0.9034   -2.2861 H   0  0  0  0  0  0  0  0  0  0  0  0
    3.0755   -1.8558   -4.0980 H   0  0  0  0  0  0  0  0  0  0  0  0
   -0.8418    1.3218   -2.0468 H   0  0  0  0  0  0  0  0  0  0  0  0
   -2.0499    2.4941    0.5542 H   0  0  0  0  0  0  0  0  0  0  0  0
   -1.0549    3.3774   -0.6569 H   0  0  0  0  0  0  0  0  0  0  0  0
   -0.3218    2.0575    0.2916 H   0  0  0  0  0  0  0  0  0  0  0  0
   -2.7408    2.8535   -2.6187 H   0  0  0  0  0  0  0  0  0  0  0  0
   -4.9127    1.8888   -2.4949 H   0  0  0  0  0  0  0  0  0  0  0  0
   -4.5774   -0.6002   -1.7799 H   0  0  0  0  0  0  0  0  0  0  0  0
   -6.5581    0.4202   -0.9898 H   0  0  0  0  0  0  0  0  0  0  0  0
   -5.7649    1.4507    0.2317 H   0  0  0  0  0  0  0  0  0  0  0  0
  1 33  1  0  0  0  0
  1 34  1  0  0  0  0
  1 35  1  0  0  0  0
  2  1  1  0  0  0  0
  2  3  1  0  0  0  0
  2 36  1  6  0  0  0
  3  4  1  0  0  0  0
  3 37  1  0  0  0  0
  3 38  1  0  0  0  0
  4 39  1  0  0  0  0
  4 40  1  0  0  0  0
  5  4  1  0  0  0  0
  5  6  1  0  0  0  0
  5 41  1  1  0  0  0
  6  7  1  0  0  0  0
  6 27  1  0  0  0  0
  6 42  1  6  0  0  0
  7  8  2  0  0  0  0
  7  9  1  0  0  0  0
  9 10  2  0  0  0  0
 10 11  1  0  0  0  0
 10 12  1  0  0  0  0
 11 43  1  0  0  0  0
 12 13  1  0  0  0  0
 12 22  2  0  0  0  0
 13 14  1  1  0  0  0
 13 15  1  0  0  0  0
 14 44  1  0  0  0  0
 15 16  1  0  0  0  0
 15 45  1  0  0  0  0
 15 46  1  0  0  0  0
 16 17  1  0  0  0  0
 16 47  1  0  0  0  0
 16 48  1  0  0  0  0
 17 18  2  0  0  0  0
 17 19  1  0  0  0  0
 19 20  1  0  0  0  0
 19 49  1  0  0  0  0
 19 50  1  0  0  0  0
 20 21  1  0  0  0  0
 20 13  1  0  0  0  0
 20 51  1  1  0  0  0
 21 52  1  0  0  0  0
 22 23  1  0  0  0  0
 22 53  1  0  0  0  0
 23 24  1  0  0  0  0
 23 25  1  0  0  0  0
 24 54  1  0  0  0  0
 25 26  2  0  0  0  0
 25  9  1  0  0  0  0
 27 28  1  0  0  0  0
 27 29  1  0  0  0  0
 27 55  1  6  0  0  0
 28 56  1  0  0  0  0
 28 57  1  0  0  0  0
 28 58  1  0  0  0  0
 29 30  2  0  0  0  0
 29 59  1  0  0  0  0
 30 31  1  0  0  0  0
 30 60  1  0  0  0  0
 31 32  1  0  0  0  0
 31  5  1  0  0  0  0
 31 61  1  6  0  0  0
 32  2  1  0  0  0  0
 32 62  1  0  0  0  0
 32 63  1  0  0  0  0
M  END
>  <IDENTIFIER>
CNP0430523.1

>  <Energy>
747.802

$$$$
