
 OpenBabel09072522233D

 52 53  0  0  0  0  0  0  0  0999 V2000
    1.4773    3.0939   -0.3490 C   0  0  0  0  0  0  0  0  0  0  0  0
    0.2891    2.5656   -0.6785 C   0  0  0  0  0  0  0  0  0  0  0  0
   -0.6099    3.1123   -1.6584 C   0  0  0  0  0  0  0  0  0  0  0  0
   -0.3895    4.0946   -2.3486 O   0  0  0  0  0  0  0  0  0  0  0  0
   -1.7654    2.4447   -1.6869 O   0  0  0  0  0  0  0  0  0  0  0  0
   -1.7791    1.3563   -0.8323 C   0  0  2  0  0  0  0  0  0  0  0  0
   -3.0508    1.3957    0.0068 C   0  0  0  0  0  0  0  0  0  0  0  0
   -3.5038    0.4223    0.8422 C   0  0  0  0  0  0  0  0  0  0  0  0
   -4.7917    0.6537    1.5982 C   0  0  0  0  0  0  0  0  0  0  0  0
   -2.7274   -0.8701    1.0500 C   0  0  1  0  0  0  0  0  0  0  0  0
   -3.1879   -1.6170    2.1521 O   0  0  0  0  0  0  0  0  0  0  0  0
   -2.6741   -1.7700   -0.2272 C   0  0  0  0  0  0  0  0  0  0  0  0
   -1.3570   -2.5521   -0.5237 C   0  0  2  0  0  0  0  0  0  0  0  0
   -0.6769   -2.9369    0.6423 O   0  0  0  0  0  0  0  0  0  0  0  0
   -0.4238   -1.8503   -1.5439 C   0  0  0  0  0  0  0  0  0  0  0  0
   -0.3202   -2.4477   -2.9318 C   0  0  0  0  0  0  0  0  0  0  0  0
    0.3029   -0.7150   -1.3433 C   0  0  0  0  0  0  0  0  0  0  0  0
    0.4203    0.0393   -0.0514 C   0  0  1  0  0  0  0  0  0  0  0  0
    1.7684    0.2699    0.1675 O   0  0  0  0  0  0  0  0  0  0  0  0
    2.5423   -0.1931    1.1792 C   0  0  0  0  0  0  0  0  0  0  0  0
    2.0275   -0.8117    2.1004 O   0  0  0  0  0  0  0  0  0  0  0  0
    4.0246    0.0547    1.1947 C   0  0  0  0  0  0  0  0  0  0  0  0
    4.8214   -0.4116    2.3946 C   0  0  0  0  0  0  0  0  0  0  0  0
    4.7394    0.6679    0.2113 C   0  0  0  0  0  0  0  0  0  0  0  0
    4.2678    1.2177   -1.1113 C   0  0  0  0  0  0  0  0  0  0  0  0
   -0.3984    1.3893   -0.0376 C   0  0  1  0  0  0  0  0  0  0  0  0
    1.8512    3.9748   -0.8596 H   0  0  0  0  0  0  0  0  0  0  0  0
    2.0815    2.6715    0.4446 H   0  0  0  0  0  0  0  0  0  0  0  0
   -1.8372    0.5017   -1.5198 H   0  0  0  0  0  0  0  0  0  0  0  0
   -3.6540    2.2942   -0.1045 H   0  0  0  0  0  0  0  0  0  0  0  0
   -5.2481    1.6402    1.3667 H   0  0  0  0  0  0  0  0  0  0  0  0
   -4.5975    0.6148    2.6899 H   0  0  0  0  0  0  0  0  0  0  0  0
   -5.5295   -0.1297    1.3262 H   0  0  0  0  0  0  0  0  0  0  0  0
   -1.7697   -0.4959    1.3688 H   0  0  0  0  0  0  0  0  0  0  0  0
   -4.1135   -1.9179    1.9587 H   0  0  0  0  0  0  0  0  0  0  0  0
   -2.9793   -1.2464   -1.1535 H   0  0  0  0  0  0  0  0  0  0  0  0
   -3.5000   -2.5054   -0.1083 H   0  0  0  0  0  0  0  0  0  0  0  0
   -1.6985   -3.4755   -1.0442 H   0  0  0  0  0  0  0  0  0  0  0  0
   -1.2289   -3.6369    1.0799 H   0  0  0  0  0  0  0  0  0  0  0  0
   -0.9381   -3.3599   -3.0599 H   0  0  0  0  0  0  0  0  0  0  0  0
    0.7355   -2.7231   -3.1416 H   0  0  0  0  0  0  0  0  0  0  0  0
   -0.6576   -1.7053   -3.6860 H   0  0  0  0  0  0  0  0  0  0  0  0
    0.8612   -0.2995   -2.1802 H   0  0  0  0  0  0  0  0  0  0  0  0
    0.0652   -0.6259    0.7281 H   0  0  0  0  0  0  0  0  0  0  0  0
    4.1941   -0.9053    3.1638 H   0  0  0  0  0  0  0  0  0  0  0  0
    5.3239    0.4568    2.8717 H   0  0  0  0  0  0  0  0  0  0  0  0
    5.5948   -1.1401    2.0687 H   0  0  0  0  0  0  0  0  0  0  0  0
    5.8096    0.7863    0.3675 H   0  0  0  0  0  0  0  0  0  0  0  0
    3.2040    1.0878   -1.3442 H   0  0  0  0  0  0  0  0  0  0  0  0
    4.8319    0.7145   -1.9235 H   0  0  0  0  0  0  0  0  0  0  0  0
    4.4936    2.3037   -1.1490 H   0  0  0  0  0  0  0  0  0  0  0  0
   -0.5392    1.7184    1.0164 H   0  0  0  0  0  0  0  0  0  0  0  0
  1  2  2  0  0  0  0
  1 27  1  0  0  0  0
  1 28  1  0  0  0  0
  2  3  1  0  0  0  0
  3  4  2  0  0  0  0
  3  5  1  0  0  0  0
  6  5  1  0  0  0  0
  6  7  1  0  0  0  0
  6 29  1  6  0  0  0
  7  8  2  0  0  0  0
  7 30  1  0  0  0  0
  8  9  1  0  0  0  0
  8 10  1  0  0  0  0
  9 31  1  0  0  0  0
  9 32  1  0  0  0  0
  9 33  1  0  0  0  0
 10 11  1  0  0  0  0
 10 12  1  0  0  0  0
 10 34  1  1  0  0  0
 11 35  1  0  0  0  0
 12 13  1  0  0  0  0
 12 36  1  0  0  0  0
 12 37  1  0  0  0  0
 13 14  1  0  0  0  0
 13 15  1  0  0  0  0
 13 38  1  6  0  0  0
 14 39  1  0  0  0  0
 15 16  1  0  0  0  0
 15 17  2  0  0  0  0
 16 40  1  0  0  0  0
 16 41  1  0  0  0  0
 16 42  1  0  0  0  0
 17 18  1  0  0  0  0
 17 43  1  0  0  0  0
 18 19  1  0  0  0  0
 18 26  1  0  0  0  0
 18 44  1  1  0  0  0
 19 20  1  0  0  0  0
 20 21  2  0  0  0  0
 20 22  1  0  0  0  0
 22 23  1  0  0  0  0
 22 24  2  0  0  0  0
 23 45  1  0  0  0  0
 23 46  1  0  0  0  0
 23 47  1  0  0  0  0
 24 25  1  0  0  0  0
 24 48  1  0  0  0  0
 25 49  1  0  0  0  0
 25 50  1  0  0  0  0
 25 51  1  0  0  0  0
 26  2  1  0  0  0  0
 26  6  1  0  0  0  0
 26 52  1  1  0  0  0
M  END
>  <IDENTIFIER>
CNP0152559.3

>  <Energy>
602.634

$$$$
