
 OpenBabel09122503282D

323328  0  0  0  0  0  0  0  0999 V2000
    2.8209   19.9009    0.0000 C   0  0  0  0  0  0  0  0  0  0  0  0
    1.5121   19.1680    0.0000 S   0  0  0  0  0  0  0  0  0  0  0  0
    1.4925   17.6681    0.0000 C   0  0  0  0  0  0  0  0  0  0  0  0
    1.4729   16.1682    0.0000 C   0  0  0  0  0  0  0  0  0  0  0  0
    0.6171   15.1082    0.7224 C   0  0  3  0  0  0  0  0  0  0  0  0
    1.3824   13.8524    0.3407 N   0  0  0  0  0  0  0  0  0  0  0  0
    2.6923   13.6071    0.8591 C   0  0  0  0  0  0  0  0  0  0  0  0
    3.0225   14.1626    1.8979 O   0  0  0  0  0  0  0  0  0  0  0  0
    3.8445   12.7481    0.1552 C   0  0  3  0  0  0  0  0  0  0  0  0
    5.2507   13.3977    0.1699 N   0  0  0  0  0  0  0  0  0  0  0  0
    6.4708   12.8573    0.6593 C   0  0  0  0  0  0  0  0  0  0  0  0
    6.4317   11.7753    1.2210 O   0  0  0  0  0  0  0  0  0  0  0  0
    7.9655   13.5025    0.6721 C   0  0  3  0  0  0  0  0  0  0  0  0
    8.3825   14.8812    0.0000 C   0  0  0  0  0  0  0  0  0  0  0  0
    9.2321   16.1174    0.0000 C   0  0  0  0  0  0  0  0  0  0  0  0
   10.0817   17.3536    0.0000 C   0  0  0  0  0  0  0  0  0  0  0  0
   10.9313   18.5898    0.0000 N   0  0  0  0  0  0  0  0  0  0  0  0
   12.0310   18.7459   -0.8952 C   0  0  0  0  0  0  0  0  0  0  0  0
   12.7412   19.8159   -0.8327 N   0  0  0  0  0  0  0  0  0  0  0  0
   12.3568   17.7353   -1.8434 N   0  0  0  0  0  0  0  0  0  0  0  0
    8.9818   12.4742    0.4416 N   0  0  0  0  0  0  0  0  0  0  0  0
    9.9528   12.5515   -0.5360 C   0  0  0  0  0  0  0  0  0  0  0  0
    9.7168   13.0321   -1.6338 O   0  0  0  0  0  0  0  0  0  0  0  0
   11.3591   12.5916    0.0000 C   0  0  3  0  0  0  0  0  0  0  0  0
   12.5953   11.7420    0.0000 C   0  0  0  0  0  0  0  0  0  0  0  0
   13.8315   10.8924    0.0000 C   0  0  0  0  0  0  0  0  0  0  0  0
   15.0677   10.0428    0.0000 C   0  0  0  0  0  0  0  0  0  0  0  0
   12.9819    9.6562    0.0000 C   0  0  0  0  0  0  0  0  0  0  0  0
   12.1666   13.8910   -0.4595 N   0  0  0  0  0  0  0  0  0  0  0  0
   13.3078   14.4403    0.2723 C   0  0  0  0  0  0  0  0  0  0  0  0
   13.2296   14.4713    1.4935 O   0  0  0  0  0  0  0  0  0  0  0  0
   14.8188   14.8115   -0.3237 C   0  0  3  0  0  0  0  0  0  0  0  0
   15.4034   16.1825    0.0000 C   0  0  0  0  0  0  0  0  0  0  0  0
   16.2530   17.4187    0.0000 C   0  0  0  0  0  0  0  0  0  0  0  0
   17.1026   18.6549    0.0000 S   0  0  0  0  0  0  0  0  0  0  0  0
   16.4568   20.0087   -0.0000 C   0  0  0  0  0  0  0  0  0  0  0  0
   15.9306   14.1257    0.2419 N   0  0  0  0  0  0  0  0  0  0  0  0
   17.1438   14.7424    0.0000 C   0  0  0  0  0  0  0  0  0  0  0  0
   17.3368   15.4837   -1.0005 O   0  0  0  0  0  0  0  0  0  0  0  0
   18.3800   13.8928    0.0000 C   0  0  3  0  0  0  0  0  0  0  0  0
   19.6162   13.0432    0.0000 C   0  0  0  0  0  0  0  0  0  0  0  0
   20.8524   12.1936    0.0000 C   0  0  0  0  0  0  0  0  0  0  0  0
   21.1056   11.4853   -0.9672 O   0  0  0  0  0  0  0  0  0  0  0  0
   21.7345   12.2469    1.0281 O   0  0  0  0  0  0  0  0  0  0  0  0
   19.3693   14.9969    0.3880 N   0  0  0  0  0  0  0  0  0  0  0  0
   20.7250   15.0113    0.0000 C   0  0  0  0  0  0  0  0  0  0  0  0
   21.1252   14.3977   -1.0220 O   0  0  0  0  0  0  0  0  0  0  0  0
   21.5746   16.2475    0.0000 C   0  0  3  0  0  0  0  0  0  0  0  0
   22.4242   17.4837    0.0000 C   0  0  0  0  0  0  0  0  0  0  0  0
   23.2738   18.7199    0.0000 C   0  0  0  0  0  0  0  0  0  0  0  0
   24.1929   18.9824    1.0429 C   0  0  0  0  0  0  0  0  0  0  0  0
   24.9995   20.1234    1.0128 C   0  0  0  0  0  0  0  0  0  0  0  0
   24.9119   21.0164   -0.0562 C   0  0  0  0  0  0  0  0  0  0  0  0
   24.0216   20.7685   -1.1023 C   0  0  0  0  0  0  0  0  0  0  0  0
   23.2127   19.6286   -1.0810 C   0  0  0  0  0  0  0  0  0  0  0  0
   22.8459   15.4908    0.3965 N   0  0  0  0  0  0  0  0  0  0  0  0
   23.8995   15.1146   -0.4653 C   0  0  0  0  0  0  0  0  0  0  0  0
   23.6916   15.0141   -1.6655 O   0  0  0  0  0  0  0  0  0  0  0  0
   25.4008   15.1941   -0.0000 C   0  0  3  0  0  0  0  0  0  0  0  0
   25.4129   15.8483    1.3129 N   0  0  0  0  0  0  0  0  0  0  0  0
   26.6370   14.3445    0.0000 C   0  0  0  0  0  2  0  0  0  0  0  0
   27.8732   13.4949    0.0000 C   0  0  0  0  0  0  0  0  0  0  0  0
   27.7734   12.2782   -0.0002 O   0  0  0  0  0  0  0  0  0  0  0  0
   29.0880   14.0805    0.0008 O   0  0  0  0  0  0  0  0  0  0  0  0
    3.8342   11.2782    0.6832 C   0  0  0  0  0  0  0  0  0  0  0  0
    2.2595   10.3703    0.3655 S   0  0  0  0  0  0  0  0  0  0  0  0
    3.1688    8.4505   -0.0668 S   0  0  0  0  0  0  0  0  0  0  0  0
    2.0612    7.3986    0.9658 C   0  0  0  0  0  0  0  0  0  0  0  0
    1.9823    5.9488    0.4143 C   0  0  3  0  0  0  0  0  0  0  0  0
    3.3027    5.1912    0.5006 C   0  0  0  0  0  0  0  0  0  0  0  0
    3.7987    4.9834    1.5985 O   0  0  0  0  0  0  0  0  0  0  0  0
    3.8856    4.6996   -0.6295 N   0  0  0  0  0  0  0  0  0  0  0  0
    5.1067    3.8940   -0.6977 C   0  0  3  0  0  0  0  0  0  0  0  0
    6.3173    4.5717    0.0018 C   0  0  0  0  0  0  0  0  0  0  0  0
    6.6616    5.9493   -0.5208 C   0  0  0  0  0  0  0  0  0  0  0  0
    6.0954    6.6402   -1.5943 C   0  0  0  0  0  0  0  0  0  0  0  0
    6.6856    7.8480   -1.7388 N   0  0  0  0  0  0  0  0  0  0  0  0
    7.6153    7.9352   -0.7740 C   0  0  0  0  0  0  0  0  0  0  0  0
    8.4760    9.0035   -0.5241 C   0  0  0  0  0  0  0  0  0  0  0  0
    9.3748    8.8843    0.5504 C   0  0  0  0  0  0  0  0  0  0  0  0
    9.3939    7.7139    1.3403 C   0  0  0  0  0  0  0  0  0  0  0  0
    8.5144    6.6497    1.0620 C   0  0  0  0  0  0  0  0  0  0  0  0
    7.6323    6.7952   -0.0107 C   0  0  0  0  0  0  0  0  0  0  0  0
    4.9037    2.4438   -0.2164 C   0  0  0  0  0  0  0  0  0  0  0  0
    4.8519    2.1884    0.9778 O   0  0  0  0  0  0  0  0  0  0  0  0
    4.8505    1.4403   -1.1486 N   0  0  0  0  0  0  0  0  0  0  0  0
    4.9193   -0.0150   -0.9143 C   0  0  3  0  0  0  0  0  0  0  0  0
    6.1891   -0.4537   -1.7021 C   0  0  0  0  0  0  0  0  0  0  0  0
    7.4573   -0.0612   -0.9084 C   0  0  0  0  0  0  0  0  0  0  0  0
    8.7829   -0.5011   -1.4938 C   0  0  0  0  0  0  0  0  0  0  0  0
    8.8886   -1.1872   -2.6583 N   0  0  0  0  0  0  0  0  0  0  0  0
    9.8002   -0.2305   -0.8726 O   0  0  0  0  0  0  0  0  0  0  0  0
    3.5983   -0.7124   -1.3486 C   0  0  0  0  0  0  0  0  0  0  0  0
    2.7224    0.0459   -1.7433 O   0  0  0  0  0  0  0  0  0  0  0  0
    3.2680   -2.0711   -1.3204 N   0  0  0  0  0  0  0  0  0  0  0  0
    4.0092   -3.3173   -1.0174 C   0  0  3  0  0  0  0  0  0  0  0  0
    5.4051   -3.1409   -0.4599 C   0  0  0  0  0  0  0  0  0  0  0  0
    5.5820   -2.5917    0.6181 O   0  0  0  0  0  0  0  0  0  0  0  0
    6.4524   -3.7013   -1.1073 O   0  0  0  0  0  0  0  0  0  0  0  0
    3.3143   -4.2932    0.0000 C   0  0  0  0  0  0  0  0  0  0  0  0
    2.0056   -5.0262    0.0000 C   0  0  0  0  0  0  0  0  0  0  0  0
    4.0473   -5.6020    0.0000 C   0  0  0  0  0  0  0  0  0  0  0  0
    1.0291    5.1453    1.1647 N   0  0  0  0  0  0  0  0  0  0  0  0
    0.0011    4.4536    0.5913 C   0  0  0  0  0  0  0  0  0  0  0  0
   -0.2913    4.6215   -0.5851 O   0  0  0  0  0  0  0  0  0  0  0  0
   -0.6941    3.3722    1.4075 C   0  0  3  0  0  0  0  0  0  0  0  0
    0.3276    2.2773    1.7499 C   0  0  0  0  0  0  0  0  0  0  0  0
    0.4092    1.5311    0.4257 C   0  0  0  0  0  0  0  0  0  0  0  0
   -1.0672    1.4346    0.0555 C   0  0  0  0  0  0  0  0  0  0  0  0
   -1.6733    2.6237    0.6241 N   0  0  0  0  0  0  0  0  0  0  0  0
   -3.0241    2.8814    0.6834 C   0  0  0  0  0  0  0  0  0  0  0  0
   -3.3892    3.8616    1.3208 O   0  0  0  0  0  0  0  0  0  0  0  0
   -4.1367    2.0107    0.0438 C   0  0  3  0  0  0  0  0  0  0  0  0
   -4.0884    0.4965    0.4271 C   0  0  0  0  0  0  0  0  0  0  0  0
   -3.6598   -0.4736   -0.6989 C   0  0  0  0  0  0  0  0  0  0  0  0
   -3.8118   -1.9283   -0.2240 C   0  0  0  0  0  0  0  0  0  0  0  0
   -3.4501   -2.8699   -1.2651 N   0  0  0  0  0  0  0  0  0  0  0  0
   -3.5291   -4.2817   -1.0728 C   0  0  0  0  0  0  0  0  0  0  0  0
   -3.1845   -5.0623   -2.0349 N   0  0  0  0  0  0  0  0  0  0  0  0
   -3.9852   -4.8368    0.1572 N   0  0  0  0  0  0  0  0  0  0  0  0
   -5.4308    2.4832    0.5442 N   0  0  0  0  0  0  0  0  0  0  0  0
   -6.5123    2.7835   -0.2326 C   0  0  0  0  0  0  0  0  0  0  0  0
   -6.4162    2.7994   -1.4511 O   0  0  0  0  0  0  0  0  0  0  0  0
   -7.8746    2.9779    0.4324 C   0  0  3  0  0  0  0  0  0  0  0  0
   -8.8815    1.8668   -0.0012 C   0  0  0  0  0  0  0  0  0  0  0  0
   -8.6349    0.4323    0.4268 C   0  0  0  0  0  0  0  0  0  0  0  0
   -9.4663   -0.5601   -0.1248 C   0  0  0  0  0  0  0  0  0  0  0  0
   -9.2998   -1.9050    0.2150 C   0  0  0  0  0  0  0  0  0  0  0  0
   -8.3016   -2.2817    1.1218 C   0  0  0  0  0  0  0  0  0  0  0  0
   -8.1259   -3.5755    1.4579 O   0  0  0  0  0  0  0  0  0  0  0  0
   -7.4812   -1.3032    1.6889 C   0  0  0  0  0  0  0  0  0  0  0  0
   -7.6475    0.0436    1.3488 C   0  0  0  0  0  0  0  0  0  0  0  0
   -8.4775    4.2919    0.1968 N   0  0  0  0  0  0  0  0  0  0  0  0
   -8.9964    4.7108   -0.9968 C   0  0  0  0  0  0  0  0  0  0  0  0
   -8.8074    4.0658   -2.0177 O   0  0  0  0  0  0  0  0  0  0  0  0
  -10.0114    5.8382   -1.0371 C   0  0  3  0  0  0  0  0  0  0  0  0
  -11.2205    5.5374    0.0000 C   0  0  0  0  0  0  0  0  0  0  0  0
  -12.2950    4.4907    0.0000 C   0  0  0  0  0  0  0  0  0  0  0  0
  -12.2672    6.6119    0.0000 C   0  0  0  0  0  0  0  0  0  0  0  0
   -9.4380    7.2485   -1.0524 N   0  0  0  0  0  0  0  0  0  0  0  0
   -8.5866    7.9732   -0.1992 C   0  0  0  0  0  0  0  0  0  0  0  0
   -8.0636    7.4098    0.7491 O   0  0  0  0  0  0  0  0  0  0  0  0
   -8.3989    9.5763   -0.3720 C   0  0  3  0  0  0  0  0  0  0  0  0
   -9.8682   10.0500   -0.1435 C   0  0  0  0  0  0  0  0  0  0  0  0
  -10.2389   11.5385   -0.2418 C   0  0  0  0  0  0  0  0  0  0  0  0
  -11.7536   11.6374    0.0783 C   0  0  0  0  0  0  0  0  0  0  0  0
  -12.4544   12.9156    0.0119 N   0  0  0  0  0  0  0  0  0  0  0  0
  -12.0383   14.2436   -0.3327 C   0  0  0  0  0  0  0  0  0  0  0  0
  -12.9438   15.1592   -0.3500 N   0  0  0  0  0  0  0  0  0  0  0  0
  -10.7003   14.6054   -0.6520 N   0  0  0  0  0  0  0  0  0  0  0  0
   -7.5348   10.2365    0.6681 N   0  0  0  0  0  0  0  0  0  0  0  0
   -6.5753   11.2901    0.7027 C   0  0  0  0  0  0  0  0  0  0  0  0
   -6.1697   11.5795    1.8190 O   0  0  0  0  0  0  0  0  0  0  0  0
   -5.9345   12.1946   -0.4499 C   0  0  0  0  0  0  0  0  0  0  0  0
   -5.0680   13.3528    0.0462 N   0  0  0  0  0  0  0  0  0  0  0  0
   -4.3162   14.2545   -0.7391 C   0  0  0  0  0  0  0  0  0  0  0  0
   -4.2797   14.0860   -1.9473 O   0  0  0  0  0  0  0  0  0  0  0  0
   -3.5384   15.5529   -0.1537 C   0  0  3  0  0  0  0  0  0  0  0  0
   -4.3171   16.9305   -0.7724 C   0  0  0  0  0  0  0  0  0  0  0  0
   -4.4563   18.3902    0.0000 C   0  0  0  0  0  0  0  0  0  0  0  0
   -5.2732   19.6482    0.0000 C   0  0  0  0  0  0  0  0  0  0  0  0
   -3.1983   19.2072    0.0000 C   0  0  0  0  0  0  0  0  0  0  0  0
   -1.9956   15.4250   -0.3326 N   0  0  0  0  0  0  0  0  0  0  0  0
   -1.0491   15.2381    0.7209 C   0  0  0  0  0  0  0  0  0  0  0  0
   -1.5161   15.2278    1.8508 O   0  0  0  0  0  0  0  0  0  0  0  0
    2.5897   20.4668    0.9259 H   0  0  0  0  0  0  0  0  0  0  0  0
    2.5823   20.4797   -0.9159 H   0  0  0  0  0  0  0  0  0  0  0  0
    3.7545   20.4237    0.0000 H   0  0  0  0  0  0  0  0  0  0  0  0
    0.4397   17.7181   -0.3580 H   0  0  0  0  0  0  0  0  0  0  0  0
    1.5153   17.7004    1.1135 H   0  0  0  0  0  0  0  0  0  0  0  0
    2.5368   15.9801    0.2600 H   0  0  0  0  0  0  0  0  0  0  0  0
    1.4118   15.9056   -1.0833 H   0  0  0  0  0  0  0  0  0  0  0  0
    0.8462   15.2700    1.7994 H   0  0  0  0  0  0  0  0  0  0  0  0
    1.1444   13.4109   -0.5596 H   0  0  0  0  0  0  0  0  0  0  0  0
    3.5498   12.6607   -0.9130 H   0  0  0  0  0  0  0  0  0  0  0  0
    5.3093   14.3317   -0.2604 H   0  0  0  0  0  0  0  0  0  0  0  0
    8.0567   13.7523    1.7567 H   0  0  0  0  0  0  0  0  0  0  0  0
    7.4830   15.4232    0.3761 H   0  0  0  0  0  0  0  0  0  0  0  0
    8.0954   14.7421   -1.0683 H   0  0  0  0  0  0  0  0  0  0  0  0
    9.5353   15.8469    1.0505 H   0  0  0  0  0  0  0  0  0  0  0  0
    9.9949   15.5858   -0.6251 H   0  0  0  0  0  0  0  0  0  0  0  0
    9.6667   17.5784   -1.0155 H   0  0  0  0  0  0  0  0  0  0  0  0
    9.3511   17.7984    0.7274 H   0  0  0  0  0  0  0  0  0  0  0  0
   10.7629   19.3399    0.6924 H   0  0  0  0  0  0  0  0  0  0  0  0
   13.5471   19.9669   -1.4572 H   0  0  0  0  0  0  0  0  0  0  0  0
   11.8163   16.8618   -1.9054 H   0  0  0  0  0  0  0  0  0  0  0  0
   13.1557   17.8569   -2.4828 H   0  0  0  0  0  0  0  0  0  0  0  0
    9.2567   12.0360    1.3366 H   0  0  0  0  0  0  0  0  0  0  0  0
   11.1618   12.7445    1.0937 H   0  0  0  0  0  0  0  0  0  0  0  0
   12.7502   11.8333   -1.1111 H   0  0  0  0  0  0  0  0  0  0  0  0
   13.0455   12.3222    0.8043 H   0  0  0  0  0  0  0  0  0  0  0  0
   14.0788   10.8698    1.1296 H   0  0  0  0  0  0  0  0  0  0  0  0
   15.1271    9.8777   -1.1056 H   0  0  0  0  0  0  0  0  0  0  0  0
   15.8158   10.8701    0.1433 H   0  0  0  0  0  0  0  0  0  0  0  0
   15.9495    9.4368    0.0000 H   0  0  0  0  0  0  0  0  0  0  0  0
   13.0209    9.3543   -1.0809 H   0  0  0  0  0  0  0  0  0  0  0  0
   13.2671    9.0032    0.8848 H   0  0  0  0  0  0  0  0  0  0  0  0
   12.3759    8.7744    0.0000 H   0  0  0  0  0  0  0  0  0  0  0  0
   12.2763   13.9491   -1.4845 H   0  0  0  0  0  0  0  0  0  0  0  0
   14.8168   14.6637   -1.4292 H   0  0  0  0  0  0  0  0  0  0  0  0
   15.1008   16.1389    1.0947 H   0  0  0  0  0  0  0  0  0  0  0  0
   14.5642   16.6685   -0.5610 H   0  0  0  0  0  0  0  0  0  0  0  0
   16.9750   17.0456    0.7595 H   0  0  0  0  0  0  0  0  0  0  0  0
   15.5167   17.9953    0.6258 H   0  0  0  0  0  0  0  0  0  0  0  0
   16.9944   20.3480    0.9092 H   0  0  0  0  0  0  0  0  0  0  0  0
   16.9630   20.3330   -0.9324 H   0  0  0  0  0  0  0  0  0  0  0  0
   15.9961   20.9744    0.0000 H   0  0  0  0  0  0  0  0  0  0  0  0
   15.8354   13.3202    0.8780 H   0  0  0  0  0  0  0  0  0  0  0  0
   18.3544   13.6880   -1.1196 H   0  0  0  0  0  0  0  0  0  0  0  0
   19.5591   12.9299    1.1253 H   0  0  0  0  0  0  0  0  0  0  0  0
   19.0180   12.1041   -0.1908 H   0  0  0  0  0  0  0  0  0  0  0  0
   22.5480   11.7228    1.0237 H   0  0  0  0  0  0  0  0  0  0  0  0
   19.0826   15.7446    1.0435 H   0  0  0  0  0  0  0  0  0  0  0  0
   21.5398   16.4116   -1.1265 H   0  0  0  0  0  0  0  0  0  0  0  0
   21.5258   18.1318   -0.2247 H   0  0  0  0  0  0  0  0  0  0  0  0
   22.2469   17.5780    1.1044 H   0  0  0  0  0  0  0  0  0  0  0  0
   24.2844   18.3024    1.8805 H   0  0  0  0  0  0  0  0  0  0  0  0
   25.6958   20.3137    1.8193 H   0  0  0  0  0  0  0  0  0  0  0  0
   25.5384   21.8988   -0.0766 H   0  0  0  0  0  0  0  0  0  0  0  0
   23.9601   21.4590   -1.9335 H   0  0  0  0  0  0  0  0  0  0  0  0
   22.5345   19.4514   -1.9071 H   0  0  0  0  0  0  0  0  0  0  0  0
   23.0571   15.5317    1.4078 H   0  0  0  0  0  0  0  0  0  0  0  0
   25.7459   15.9809   -0.7072 H   0  0  0  0  0  0  0  0  0  0  0  0
   25.2550   15.1371    2.0651 H   0  0  0  0  0  0  0  0  0  0  0  0
   26.3220   16.3378    1.4931 H   0  0  0  0  0  0  0  0  0  0  0  0
   29.9007   13.5550    0.0011 H   0  0  0  0  0  0  0  0  0  0  0  0
    4.6141   10.7324    0.1134 H   0  0  0  0  0  0  0  0  0  0  0  0
    4.0567   11.2467    1.7703 H   0  0  0  0  0  0  0  0  0  0  0  0
    2.4077    7.3996    2.0207 H   0  0  0  0  0  0  0  0  0  0  0  0
    1.0364    7.8240    0.9110 H   0  0  0  0  0  0  0  0  0  0  0  0
    1.6698    6.0211   -0.6507 H   0  0  0  0  0  0  0  0  0  0  0  0
    3.4398    4.9231   -1.5325 H   0  0  0  0  0  0  0  0  0  0  0  0
    5.3666    3.8227   -1.7771 H   0  0  0  0  0  0  0  0  0  0  0  0
    6.1191    4.6544    1.0891 H   0  0  0  0  0  0  0  0  0  0  0  0
    7.2173    3.9298   -0.1157 H   0  0  0  0  0  0  0  0  0  0  0  0
    5.3047    6.2879   -2.2402 H   0  0  0  0  0  0  0  0  0  0  0  0
    6.4598    8.5683   -2.4600 H   0  0  0  0  0  0  0  0  0  0  0  0
    8.4527    9.8968   -1.1352 H   0  0  0  0  0  0  0  0  0  0  0  0
   10.0556    9.6944    0.7745 H   0  0  0  0  0  0  0  0  0  0  0  0
   10.0897    7.6367    2.1659 H   0  0  0  0  0  0  0  0  0  0  0  0
    8.5236    5.7520    1.6661 H   0  0  0  0  0  0  0  0  0  0  0  0
    4.8305    1.7270   -2.1399 H   0  0  0  0  0  0  0  0  0  0  0  0
    5.0300   -0.2394    0.1671 H   0  0  0  0  0  0  0  0  0  0  0  0
    6.2189   -1.5130   -1.9063 H   0  0  0  0  0  0  0  0  0  0  0  0
    6.1966   -0.0010   -2.7174 H   0  0  0  0  0  0  0  0  0  0  0  0
    7.4832    1.0418   -0.7784 H   0  0  0  0  0  0  0  0  0  0  0  0
    7.3908   -0.5256    0.1007 H   0  0  0  0  0  0  0  0  0  0  0  0
    9.8175   -1.4712   -3.0038 H   0  0  0  0  0  0  0  0  0  0  0  0
    8.0686   -1.4440   -3.2218 H   0  0  0  0  0  0  0  0  0  0  0  0
    2.3154   -2.2794   -1.6604 H   0  0  0  0  0  0  0  0  0  0  0  0
    4.0837   -3.8645   -1.9838 H   0  0  0  0  0  0  0  0  0  0  0  0
    7.3528   -3.6427   -0.7577 H   0  0  0  0  0  0  0  0  0  0  0  0
    3.4043   -3.8417    1.0178 H   0  0  0  0  0  0  0  0  0  0  0  0
    1.3848   -4.1281    0.2145 H   0  0  0  0  0  0  0  0  0  0  0  0
    1.9130   -5.1802   -1.1048 H   0  0  0  0  0  0  0  0  0  0  0  0
    1.0721   -5.5491    0.0000 H   0  0  0  0  0  0  0  0  0  0  0  0
    3.7509   -6.0993    0.9699 H   0  0  0  0  0  0  0  0  0  0  0  0
    3.8765   -6.0064   -1.0342 H   0  0  0  0  0  0  0  0  0  0  0  0
    4.5701   -6.5356    0.0000 H   0  0  0  0  0  0  0  0  0  0  0  0
    1.2295    4.9851    2.1644 H   0  0  0  0  0  0  0  0  0  0  0  0
   -1.1196    3.8148    2.3348 H   0  0  0  0  0  0  0  0  0  0  0  0
   -0.1243    1.5931    2.5047 H   0  0  0  0  0  0  0  0  0  0  0  0
    1.3043    2.6297    2.1435 H   0  0  0  0  0  0  0  0  0  0  0  0
    0.9310    2.1806   -0.3120 H   0  0  0  0  0  0  0  0  0  0  0  0
    0.9353    0.5532    0.4577 H   0  0  0  0  0  0  0  0  0  0  0  0
   -1.2053    1.3553   -1.0431 H   0  0  0  0  0  0  0  0  0  0  0  0
   -1.4605    0.5549    0.5991 H   0  0  0  0  0  0  0  0  0  0  0  0
   -4.1004    2.0905   -1.0645 H   0  0  0  0  0  0  0  0  0  0  0  0
   -3.5668    0.3402    1.3954 H   0  0  0  0  0  0  0  0  0  0  0  0
   -5.1274    0.1637    0.6092 H   0  0  0  0  0  0  0  0  0  0  0  0
   -2.6244   -0.3221   -1.0353 H   0  0  0  0  0  0  0  0  0  0  0  0
   -4.3200   -0.3164   -1.5806 H   0  0  0  0  0  0  0  0  0  0  0  0
   -4.8709   -2.1045    0.0669 H   0  0  0  0  0  0  0  0  0  0  0  0
   -3.1568   -2.0928    0.6594 H   0  0  0  0  0  0  0  0  0  0  0  0
   -3.1274   -2.5172   -2.1796 H   0  0  0  0  0  0  0  0  0  0  0  0
   -3.2275   -6.0879   -1.9398 H   0  0  0  0  0  0  0  0  0  0  0  0
   -4.2730   -4.2409    0.9453 H   0  0  0  0  0  0  0  0  0  0  0  0
   -4.0421   -5.8584    0.2801 H   0  0  0  0  0  0  0  0  0  0  0  0
   -5.5579    2.4622    1.5681 H   0  0  0  0  0  0  0  0  0  0  0  0
   -7.7527    2.8932    1.5341 H   0  0  0  0  0  0  0  0  0  0  0  0
   -9.8865    2.1254    0.3912 H   0  0  0  0  0  0  0  0  0  0  0  0
   -8.9411    1.8665   -1.1086 H   0  0  0  0  0  0  0  0  0  0  0  0
  -10.2437   -0.2906   -0.8300 H   0  0  0  0  0  0  0  0  0  0  0  0
   -9.9466   -2.6518   -0.2284 H   0  0  0  0  0  0  0  0  0  0  0  0
   -8.6739   -4.2817    1.0864 H   0  0  0  0  0  0  0  0  0  0  0  0
   -6.7127   -1.5856    2.3974 H   0  0  0  0  0  0  0  0  0  0  0  0
   -7.0064    0.7642    1.8216 H   0  0  0  0  0  0  0  0  0  0  0  0
   -8.6734    4.8550    1.0378 H   0  0  0  0  0  0  0  0  0  0  0  0
  -10.5147    5.7492   -2.0281 H   0  0  0  0  0  0  0  0  0  0  0  0
  -10.7934    5.5267    1.0292 H   0  0  0  0  0  0  0  0  0  0  0  0
  -12.4871    4.4676   -1.1024 H   0  0  0  0  0  0  0  0  0  0  0  0
  -11.6131    3.6420    0.2102 H   0  0  0  0  0  0  0  0  0  0  0  0
  -13.0615    3.7441    0.0000 H   0  0  0  0  0  0  0  0  0  0  0  0
  -11.6046    7.4463    0.3173 H   0  0  0  0  0  0  0  0  0  0  0  0
  -12.4430    6.6853   -1.1024 H   0  0  0  0  0  0  0  0  0  0  0  0
  -13.0138    7.3784    0.0000 H   0  0  0  0  0  0  0  0  0  0  0  0
   -9.7724    7.7887   -1.8641 H   0  0  0  0  0  0  0  0  0  0  0  0
   -8.0525    9.8543   -1.3899 H   0  0  0  0  0  0  0  0  0  0  0  0
  -10.1662    9.7020    0.8736 H   0  0  0  0  0  0  0  0  0  0  0  0
  -10.5263    9.5433   -0.8783 H   0  0  0  0  0  0  0  0  0  0  0  0
   -9.6511   12.1136    0.5042 H   0  0  0  0  0  0  0  0  0  0  0  0
  -10.0350   11.8791   -1.2789 H   0  0  0  0  0  0  0  0  0  0  0  0
  -11.9046   11.2397    1.1068 H   0  0  0  0  0  0  0  0  0  0  0  0
  -12.2910   10.9566   -0.6194 H   0  0  0  0  0  0  0  0  0  0  0  0
  -13.4581   12.8268    0.2403 H   0  0  0  0  0  0  0  0  0  0  0  0
  -12.7317   16.1387   -0.5875 H   0  0  0  0  0  0  0  0  0  0  0  0
   -9.9115   13.9608   -0.6363 H   0  0  0  0  0  0  0  0  0  0  0  0
  -10.4858   15.5824   -0.8984 H   0  0  0  0  0  0  0  0  0  0  0  0
   -7.7770    9.8878    1.6100 H   0  0  0  0  0  0  0  0  0  0  0  0
   -5.3310   11.5252   -1.0984 H   0  0  0  0  0  0  0  0  0  0  0  0
   -6.7594   12.6211   -1.0602 H   0  0  0  0  0  0  0  0  0  0  0  0
   -5.0428   13.5249    1.0612 H   0  0  0  0  0  0  0  0  0  0  0  0
   -3.7724   15.5422    0.9309 H   0  0  0  0  0  0  0  0  0  0  0  0
   -4.0466   17.0734   -1.8395 H   0  0  0  0  0  0  0  0  0  0  0  0
   -5.3841   16.6194   -0.7753 H   0  0  0  0  0  0  0  0  0  0  0  0
   -4.6412   18.0032    1.0355 H   0  0  0  0  0  0  0  0  0  0  0  0
   -5.1227   20.0177    1.0554 H   0  0  0  0  0  0  0  0  0  0  0  0
   -6.2549   19.1267   -0.0374 H   0  0  0  0  0  0  0  0  0  0  0  0
   -5.8559   20.5456    0.0000 H   0  0  0  0  0  0  0  0  0  0  0  0
   -2.5238   18.4004    0.3642 H   0  0  0  0  0  0  0  0  0  0  0  0
   -3.0986   19.2985   -1.1099 H   0  0  0  0  0  0  0  0  0  0  0  0
   -2.3009   19.7900    0.0000 H   0  0  0  0  0  0  0  0  0  0  0  0
   -1.6316   15.4441   -1.2961 H   0  0  0  0  0  0  0  0  0  0  0  0
  1  2  1  0  0  0  0
  1166  1  0  0  0  0
  1167  1  0  0  0  0
  1168  1  0  0  0  0
  2  3  1  0  0  0  0
  3  4  1  0  0  0  0
  3169  1  0  0  0  0
  3170  1  0  0  0  0
  4  5  1  0  0  0  0
  4171  1  0  0  0  0
  4172  1  0  0  0  0
  5  6  1  0  0  0  0
  5173  1  0  0  0  0
  6  7  1  0  0  0  0
  6174  1  0  0  0  0
  7  8  2  0  0  0  0
  7  9  1  0  0  0  0
  9 10  1  0  0  0  0
  9 65  1  0  0  0  0
  9175  1  0  0  0  0
 10 11  1  0  0  0  0
 10176  1  0  0  0  0
 11 12  2  0  0  0  0
 11 13  1  0  0  0  0
 13 14  1  0  0  0  0
 13 21  1  0  0  0  0
 13177  1  0  0  0  0
 14 15  1  0  0  0  0
 14178  1  0  0  0  0
 14179  1  0  0  0  0
 15 16  1  0  0  0  0
 15180  1  0  0  0  0
 15181  1  0  0  0  0
 16 17  1  0  0  0  0
 16182  1  0  0  0  0
 16183  1  0  0  0  0
 17 18  1  0  0  0  0
 17184  1  0  0  0  0
 18 19  2  0  0  0  0
 18 20  1  0  0  0  0
 19185  1  0  0  0  0
 20186  1  0  0  0  0
 20187  1  0  0  0  0
 21 22  1  0  0  0  0
 21188  1  0  0  0  0
 22 23  2  0  0  0  0
 22 24  1  0  0  0  0
 24 25  1  0  0  0  0
 24 29  1  0  0  0  0
 24189  1  0  0  0  0
 25 26  1  0  0  0  0
 25190  1  0  0  0  0
 25191  1  0  0  0  0
 26 27  1  0  0  0  0
 26 28  1  0  0  0  0
 26192  1  0  0  0  0
 27193  1  0  0  0  0
 27194  1  0  0  0  0
 27195  1  0  0  0  0
 28196  1  0  0  0  0
 28197  1  0  0  0  0
 28198  1  0  0  0  0
 29 30  1  0  0  0  0
 29199  1  0  0  0  0
 30 31  2  0  0  0  0
 30 32  1  0  0  0  0
 32 33  1  0  0  0  0
 32 37  1  0  0  0  0
 32200  1  0  0  0  0
 33 34  1  0  0  0  0
 33201  1  0  0  0  0
 33202  1  0  0  0  0
 34 35  1  0  0  0  0
 34203  1  0  0  0  0
 34204  1  0  0  0  0
 35 36  1  0  0  0  0
 36205  1  0  0  0  0
 36206  1  0  0  0  0
 36207  1  0  0  0  0
 37 38  1  0  0  0  0
 37208  1  0  0  0  0
 38 39  2  0  0  0  0
 38 40  1  0  0  0  0
 40 41  1  0  0  0  0
 40 45  1  0  0  0  0
 40209  1  0  0  0  0
 41 42  1  0  0  0  0
 41210  1  0  0  0  0
 41211  1  0  0  0  0
 42 43  2  0  0  0  0
 42 44  1  0  0  0  0
 44212  1  0  0  0  0
 45 46  1  0  0  0  0
 45213  1  0  0  0  0
 46 47  2  0  0  0  0
 46 48  1  0  0  0  0
 48 49  1  0  0  0  0
 48 56  1  0  0  0  0
 48214  1  0  0  0  0
 49 50  1  0  0  0  0
 49215  1  0  0  0  0
 49216  1  0  0  0  0
 50 51  2  0  0  0  0
 51 52  1  0  0  0  0
 51217  1  0  0  0  0
 52 53  2  0  0  0  0
 52218  1  0  0  0  0
 53 54  1  0  0  0  0
 53219  1  0  0  0  0
 54 55  2  0  0  0  0
 54220  1  0  0  0  0
 55 50  1  0  0  0  0
 55221  1  0  0  0  0
 56 57  1  0  0  0  0
 56222  1  0  0  0  0
 57 58  2  0  0  0  0
 57 59  1  0  0  0  0
 59 60  1  0  0  0  0
 59 61  1  0  0  0  0
 59223  1  0  0  0  0
 60224  1  0  0  0  0
 60225  1  0  0  0  0
 61 62  1  0  0  0  0
 62 63  2  0  0  0  0
 62 64  1  0  0  0  0
 64226  1  0  0  0  0
 65 66  1  0  0  0  0
 65227  1  0  0  0  0
 65228  1  0  0  0  0
 66 67  1  0  0  0  0
 67 68  1  0  0  0  0
 68 69  1  0  0  0  0
 68229  1  0  0  0  0
 68230  1  0  0  0  0
 69 70  1  0  0  0  0
 69103  1  0  0  0  0
 69231  1  0  0  0  0
 70 71  2  0  0  0  0
 70 72  1  0  0  0  0
 72 73  1  0  0  0  0
 72232  1  0  0  0  0
 73 74  1  0  0  0  0
 73 84  1  0  0  0  0
 73233  1  0  0  0  0
 74 75  1  0  0  0  0
 74234  1  0  0  0  0
 74235  1  0  0  0  0
 75 76  2  0  0  0  0
 76 77  1  0  0  0  0
 76236  1  0  0  0  0
 77 78  1  0  0  0  0
 77237  1  0  0  0  0
 78 79  2  0  0  0  0
 79 80  1  0  0  0  0
 79238  1  0  0  0  0
 80 81  2  0  0  0  0
 80239  1  0  0  0  0
 81 82  1  0  0  0  0
 81240  1  0  0  0  0
 82 83  2  0  0  0  0
 82241  1  0  0  0  0
 83 75  1  0  0  0  0
 83 78  1  0  0  0  0
 84 85  2  0  0  0  0
 84 86  1  0  0  0  0
 86 87  1  0  0  0  0
 86242  1  0  0  0  0
 87 88  1  0  0  0  0
 87 93  1  0  0  0  0
 87243  1  0  0  0  0
 88 89  1  0  0  0  0
 88244  1  0  0  0  0
 88245  1  0  0  0  0
 89 90  1  0  0  0  0
 89246  1  0  0  0  0
 89247  1  0  0  0  0
 90 91  1  0  0  0  0
 90 92  2  0  0  0  0
 91248  1  0  0  0  0
 91249  1  0  0  0  0
 93 94  2  0  0  0  0
 93 95  1  0  0  0  0
 95 96  1  0  0  0  0
 95250  1  0  0  0  0
 96 97  1  0  0  0  0
 96100  1  0  0  0  0
 96251  1  0  0  0  0
 97 98  2  0  0  0  0
 97 99  1  0  0  0  0
 99252  1  0  0  0  0
100101  1  0  0  0  0
100102  1  0  0  0  0
100253  1  0  0  0  0
101254  1  0  0  0  0
101255  1  0  0  0  0
101256  1  0  0  0  0
102257  1  0  0  0  0
102258  1  0  0  0  0
102259  1  0  0  0  0
103104  1  0  0  0  0
103260  1  0  0  0  0
104105  2  0  0  0  0
104106  1  0  0  0  0
106107  1  0  0  0  0
106261  1  0  0  0  0
107108  1  0  0  0  0
107262  1  0  0  0  0
107263  1  0  0  0  0
108109  1  0  0  0  0
108264  1  0  0  0  0
108265  1  0  0  0  0
109110  1  0  0  0  0
109266  1  0  0  0  0
109267  1  0  0  0  0
110111  1  0  0  0  0
110106  1  0  0  0  0
111112  2  0  0  0  0
111113  1  0  0  0  0
113114  1  0  0  0  0
113121  1  0  0  0  0
113268  1  0  0  0  0
114115  1  0  0  0  0
114269  1  0  0  0  0
114270  1  0  0  0  0
115116  1  0  0  0  0
115271  1  0  0  0  0
115272  1  0  0  0  0
116117  1  0  0  0  0
116273  1  0  0  0  0
116274  1  0  0  0  0
117118  1  0  0  0  0
117275  1  0  0  0  0
118119  2  0  0  0  0
118120  1  0  0  0  0
119276  1  0  0  0  0
120277  1  0  0  0  0
120278  1  0  0  0  0
121122  1  0  0  0  0
121279  1  0  0  0  0
122123  2  0  0  0  0
122124  1  0  0  0  0
124125  1  0  0  0  0
124133  1  0  0  0  0
124280  1  0  0  0  0
125126  1  0  0  0  0
125281  1  0  0  0  0
125282  1  0  0  0  0
126127  2  0  0  0  0
127128  1  0  0  0  0
127283  1  0  0  0  0
128129  2  0  0  0  0
128284  1  0  0  0  0
129130  1  0  0  0  0
129131  1  0  0  0  0
130285  1  0  0  0  0
131132  2  0  0  0  0
131286  1  0  0  0  0
132126  1  0  0  0  0
132287  1  0  0  0  0
133134  1  0  0  0  0
133288  1  0  0  0  0
134135  2  0  0  0  0
134136  1  0  0  0  0
136137  1  0  0  0  0
136140  1  0  0  0  0
136289  1  0  0  0  0
137138  1  0  0  0  0
137139  1  0  0  0  0
137290  1  0  0  0  0
138291  1  0  0  0  0
138292  1  0  0  0  0
138293  1  0  0  0  0
139294  1  0  0  0  0
139295  1  0  0  0  0
139296  1  0  0  0  0
140141  1  0  0  0  0
140297  1  0  0  0  0
141142  2  0  0  0  0
141143  1  0  0  0  0
143144  1  0  0  0  0
143151  1  0  0  0  0
143298  1  0  0  0  0
144145  1  0  0  0  0
144299  1  0  0  0  0
144300  1  0  0  0  0
145146  1  0  0  0  0
145301  1  0  0  0  0
145302  1  0  0  0  0
146147  1  0  0  0  0
146303  1  0  0  0  0
146304  1  0  0  0  0
147148  1  0  0  0  0
147305  1  0  0  0  0
148149  2  0  0  0  0
148150  1  0  0  0  0
149306  1  0  0  0  0
150307  1  0  0  0  0
150308  1  0  0  0  0
151152  1  0  0  0  0
151309  1  0  0  0  0
152153  2  0  0  0  0
152154  1  0  0  0  0
154155  1  0  0  0  0
154310  1  0  0  0  0
154311  1  0  0  0  0
155156  1  0  0  0  0
155312  1  0  0  0  0
156157  2  0  0  0  0
156158  1  0  0  0  0
158159  1  0  0  0  0
158163  1  0  0  0  0
158313  1  0  0  0  0
159160  1  0  0  0  0
159314  1  0  0  0  0
159315  1  0  0  0  0
160161  1  0  0  0  0
160162  1  0  0  0  0
160316  1  0  0  0  0
161317  1  0  0  0  0
161318  1  0  0  0  0
161319  1  0  0  0  0
162320  1  0  0  0  0
162321  1  0  0  0  0
162322  1  0  0  0  0
163164  1  0  0  0  0
163323  1  0  0  0  0
164165  2  0  0  0  0
164  5  1  0  0  0  0
M  END
>  <IDENTIFIER>
CNP0018561.0

>  <Energy>
14676.1

$$$$
