
 OpenBabel09122502162D

186185  0  0  0  0  0  0  0  0999 V2000
   25.9808   15.0000    0.0000 C   0  0  0  0  0  0  0  0  0  0  0  0
   24.6817   14.2500    0.0000 C   0  0  0  0  0  0  0  0  0  0  0  0
   23.6183   13.0949    0.7028 C   0  0  0  0  0  0  0  0  0  0  0  0
   22.0836   12.7500    0.0000 C   0  0  0  0  0  0  0  0  0  0  0  0
   20.7846   12.0000    0.0000 C   0  0  0  0  0  2  0  0  0  0  0  0
   19.4856   11.2500    0.0000 C   0  0  0  0  0  0  0  0  0  0  0  0
   18.1865   10.5000    0.0000 C   0  0  0  0  0  0  0  0  0  0  0  0
   16.8875    9.7500    0.0000 C   0  0  0  0  0  2  0  0  0  0  0  0
   15.5885    9.0000    0.0000 C   0  0  0  0  0  0  0  0  0  0  0  0
   13.9796    8.5923    0.2652 C   0  0  0  0  0  0  0  0  0  0  0  0
   13.2934    7.1467   -0.3132 C   0  0  0  0  0  0  0  0  0  0  0  0
   11.6913    6.7500    0.0000 C   0  0  0  0  0  0  0  0  0  0  0  0
   10.3923    6.0000    0.0000 C   0  0  0  0  0  0  0  0  0  0  0  0
    9.0933    5.2500    0.0000 C   0  0  0  0  0  0  0  0  0  0  0  0
    7.7942    4.5000    0.0000 C   0  0  0  0  0  0  0  0  0  0  0  0
    6.4952    3.7500    0.0000 C   0  0  0  0  0  0  0  0  0  0  0  0
    5.1962    3.0000    0.0000 C   0  0  0  0  0  0  0  0  0  0  0  0
    4.0497    2.2891    0.9431 C   0  0  0  0  0  0  0  0  0  0  0  0
    3.0259    1.2230    0.1713 C   0  0  0  0  0  0  0  0  0  0  0  0
    1.8303    0.3594    0.9235 C   0  0  0  0  0  0  0  0  0  0  0  0
    0.8804   -0.6638    0.0864 C   0  0  0  0  0  0  0  0  0  0  0  0
    1.0807   -0.7318   -1.1162 O   0  0  0  0  0  0  0  0  0  0  0  0
   -0.1909   -1.4623    0.6400 O   0  0  0  0  0  0  0  0  0  0  0  0
   -1.2990   -2.2500    0.0000 C   0  0  2  0  0  0  0  0  0  0  0  0
   -2.0490   -0.9510   -0.0000 C   0  0  0  0  0  0  0  0  0  0  0  0
   -2.8969   -0.0702    0.8240 O   0  0  0  0  0  0  0  0  0  0  0  0
   -3.9060    0.8196    0.2576 C   0  0  0  0  0  0  0  0  0  0  0  0
   -4.2491    0.5959   -0.8937 O   0  0  0  0  0  0  0  0  0  0  0  0
   -4.6510    2.1354    0.9202 C   0  0  0  0  0  0  0  0  0  0  0  0
   -5.7990    2.9462    0.0000 C   0  0  0  0  0  0  0  0  0  0  0  0
   -6.5490    4.2452    0.0000 C   0  0  0  0  0  0  0  0  0  0  0  0
   -7.2990    5.5442    0.0000 C   0  0  0  0  0  0  0  0  0  0  0  0
   -8.0490    6.8433    0.0000 C   0  0  0  0  0  0  0  0  0  0  0  0
   -8.7990    8.1423    0.0000 C   0  0  0  0  0  0  0  0  0  0  0  0
   -9.5490    9.4413    0.0000 C   0  0  0  0  0  0  0  0  0  0  0  0
   -9.8923   11.0805    0.1400 C   0  0  0  0  0  0  0  0  0  0  0  0
  -11.4382   11.7096   -0.2023 C   0  0  0  0  0  0  0  0  0  0  0  0
  -11.7990   13.3385    0.0000 C   0  0  0  0  0  0  0  0  0  0  0  0
  -12.5490   14.6375    0.0000 C   0  0  0  0  0  0  0  0  0  0  0  0
  -13.2990   15.9365    0.0000 C   0  0  0  0  0  0  0  0  0  0  0  0
  -14.0490   17.2356    0.0000 C   0  0  0  0  0  0  0  0  0  0  0  0
  -14.7990   18.5346    0.0000 C   0  0  0  0  0  2  0  0  0  0  0  0
  -15.5490   19.8336    0.0000 C   0  0  0  0  0  0  0  0  0  0  0  0
  -16.1500   21.3376   -0.4518 C   0  0  0  0  0  0  0  0  0  0  0  0
  -17.2631   22.2168    0.4933 C   0  0  0  0  0  0  0  0  0  0  0  0
  -17.7990   23.7308    0.0000 C   0  0  0  0  0  0  0  0  0  0  0  0
  -18.5490   25.0298    0.0000 C   0  0  0  0  0  0  0  0  0  0  0  0
  -19.2990   26.3288    0.0000 C   0  0  0  0  0  0  0  0  0  0  0  0
  -20.0490   27.6279    0.0000 C   0  0  0  0  0  0  0  0  0  0  0  0
  -20.7990   28.9269    0.0000 C   0  0  0  0  0  0  0  0  0  0  0  0
  -21.3481   26.8779    0.0000 C   0  0  0  0  0  0  0  0  0  0  0  0
   -0.5490   -3.5490    0.0000 C   0  0  0  0  0  0  0  0  0  0  0  0
   -0.2594   -4.9631   -0.2781 O   0  0  0  0  0  0  0  0  0  0  0  0
    1.0730   -5.5338   -0.0991 C   0  0  0  0  0  0  0  0  0  0  0  0
    1.9749   -4.7512    0.1637 O   0  0  0  0  0  0  0  0  0  0  0  0
    1.5693   -7.0949   -0.1896 C   0  0  0  0  0  0  0  0  0  0  0  0
    3.2010   -7.4462    0.0000 C   0  0  0  0  0  0  0  0  0  0  0  0
    3.9510   -8.7452    0.0000 C   0  0  0  0  0  0  0  0  0  0  0  0
    4.7010  -10.0442    0.0000 C   0  0  0  0  0  0  0  0  0  0  0  0
    5.4510  -11.3433    0.0000 C   0  0  0  0  0  0  0  0  0  0  0  0
    6.2010  -12.6423    0.0000 C   0  0  0  0  0  0  0  0  0  0  0  0
    6.9510  -13.9413    0.0000 C   0  0  0  0  0  0  0  0  0  0  0  0
    7.3896  -15.5193   -0.3731 C   0  0  0  0  0  0  0  0  0  0  0  0
    8.7450  -16.2575    0.3432 C   0  0  0  0  0  0  0  0  0  0  0  0
    9.2010  -17.8385    0.0000 C   0  0  0  0  0  0  0  0  0  0  0  0
    9.9510  -19.1375    0.0000 C   0  0  0  0  0  2  0  0  0  0  0  0
   10.7010  -20.4365    0.0000 C   0  0  0  0  0  0  0  0  0  0  0  0
   11.4510  -21.7356    0.0000 C   0  0  0  0  0  0  0  0  0  0  0  0
   12.2010  -23.0346    0.0000 C   0  0  0  0  0  0  0  0  0  0  0  0
   12.7500  -20.9856    0.0000 C   0  0  0  0  0  0  0  0  0  0  0  0
   26.6275   14.1011   -0.1082 H   0  0  0  0  0  0  0  0  0  0  0  0
   25.8537   15.5481   -0.9659 H   0  0  0  0  0  0  0  0  0  0  0  0
   26.9075   15.5350    0.0000 H   0  0  0  0  0  0  0  0  0  0  0  0
   23.9705   15.1070   -0.0204 H   0  0  0  0  0  0  0  0  0  0  0  0
   24.6743   13.8094   -1.0284 H   0  0  0  0  0  0  0  0  0  0  0  0
   23.4327   13.4171    1.7486 H   0  0  0  0  0  0  0  0  0  0  0  0
   24.1725   12.1338    0.7465 H   0  0  0  0  0  0  0  0  0  0  0  0
   22.4071   12.5209   -1.0364 H   0  0  0  0  0  0  0  0  0  0  0  0
   21.6772   13.7812   -0.0522 H   0  0  0  0  0  0  0  0  0  0  0  0
   19.8547   10.6943    0.8959 H   0  0  0  0  0  0  0  0  0  0  0  0
   19.8547   10.6944   -0.8960 H   0  0  0  0  0  0  0  0  0  0  0  0
   17.8174   11.0557    0.8959 H   0  0  0  0  0  0  0  0  0  0  0  0
   17.8174   11.0556   -0.8960 H   0  0  0  0  0  0  0  0  0  0  0  0
   15.5642    8.8487   -1.0994 H   0  0  0  0  0  0  0  0  0  0  0  0
   16.0135    8.0662    0.4238 H   0  0  0  0  0  0  0  0  0  0  0  0
   13.8268    8.6038    1.3646 H   0  0  0  0  0  0  0  0  0  0  0  0
   13.3696    9.4180   -0.1584 H   0  0  0  0  0  0  0  0  0  0  0  0
   13.9114    6.3124    0.0813 H   0  0  0  0  0  0  0  0  0  0  0  0
   13.4170    7.1546   -1.4161 H   0  0  0  0  0  0  0  0  0  0  0  0
   11.3017    7.7627   -0.2790 H   0  0  0  0  0  0  0  0  0  0  0  0
   11.7835    6.8403    1.1102 H   0  0  0  0  0  0  0  0  0  0  0  0
   10.2630    6.2358   -1.0934 H   0  0  0  0  0  0  0  0  0  0  0  0
   11.0846    5.1054    0.1291 H   0  0  0  0  0  0  0  0  0  0  0  0
    9.3529    4.8552    1.0361 H   0  0  0  0  0  0  0  0  0  0  0  0
    9.4351    4.4473   -0.7337 H   0  0  0  0  0  0  0  0  0  0  0  0
    7.5027    4.9662   -0.9838 H   0  0  0  0  0  0  0  0  0  0  0  0
    7.4820    5.2291    0.8246 H   0  0  0  0  0  0  0  0  0  0  0  0
    6.7957    3.2140    0.9343 H   0  0  0  0  0  0  0  0  0  0  0  0
    5.8080    4.6339    0.1991 H   0  0  0  0  0  0  0  0  0  0  0  0
    5.5812    2.0697   -0.4783 H   0  0  0  0  0  0  0  0  0  0  0  0
    4.5805    3.4253   -0.8375 H   0  0  0  0  0  0  0  0  0  0  0  0
    3.4439    3.0893    1.4189 H   0  0  0  0  0  0  0  0  0  0  0  0
    4.5677    1.7263    1.7468 H   0  0  0  0  0  0  0  0  0  0  0  0
    2.5346    1.7933   -0.6447 H   0  0  0  0  0  0  0  0  0  0  0  0
    3.6812    0.4648   -0.3086 H   0  0  0  0  0  0  0  0  0  0  0  0
    2.3138   -0.2296    1.7299 H   0  0  0  0  0  0  0  0  0  0  0  0
    1.1542    1.0984    1.4035 H   0  0  0  0  0  0  0  0  0  0  0  0
   -2.0338   -2.6588    0.7398 H   0  0  0  0  0  0  0  0  0  0  0  0
   -1.5165   -0.2426   -0.6829 H   0  0  0  0  0  0  0  0  0  0  0  0
   -2.7982   -1.3150   -0.7412 H   0  0  0  0  0  0  0  0  0  0  0  0
   -3.8464    2.8602    1.1629 H   0  0  0  0  0  0  0  0  0  0  0  0
   -5.1356    1.8310    1.8709 H   0  0  0  0  0  0  0  0  0  0  0  0
   -6.5567    2.1515   -0.2170 H   0  0  0  0  0  0  0  0  0  0  0  0
   -5.2494    3.0322   -0.9670 H   0  0  0  0  0  0  0  0  0  0  0  0
   -5.5886    4.7842    0.2064 H   0  0  0  0  0  0  0  0  0  0  0  0
   -7.0111    3.8065    0.9416 H   0  0  0  0  0  0  0  0  0  0  0  0
   -7.1939    5.7088    1.1297 H   0  0  0  0  0  0  0  0  0  0  0  0
   -8.2574    4.9719   -0.1641 H   0  0  0  0  0  0  0  0  0  0  0  0
   -8.2803    6.7306   -1.0984 H   0  0  0  0  0  0  0  0  0  0  0  0
   -7.0135    7.3307    0.0748 H   0  0  0  0  0  0  0  0  0  0  0  0
   -8.0966    8.7172   -0.6889 H   0  0  0  0  0  0  0  0  0  0  0  0
   -8.5283    8.3017    1.0780 H   0  0  0  0  0  0  0  0  0  0  0  0
  -10.0118    9.3431   -1.0163 H   0  0  0  0  0  0  0  0  0  0  0  0
  -10.3812    9.1249    0.6767 H   0  0  0  0  0  0  0  0  0  0  0  0
   -9.6495   11.3660    1.1853 H   0  0  0  0  0  0  0  0  0  0  0  0
   -9.1800   11.6182   -0.5203 H   0  0  0  0  0  0  0  0  0  0  0  0
  -12.1664   11.1438    0.4162 H   0  0  0  0  0  0  0  0  0  0  0  0
  -11.6481   11.4624   -1.2641 H   0  0  0  0  0  0  0  0  0  0  0  0
  -10.8746   13.6873   -0.5275 H   0  0  0  0  0  0  0  0  0  0  0  0
  -11.4877   13.3704    1.0734 H   0  0  0  0  0  0  0  0  0  0  0  0
  -13.3853   13.9979    0.4278 H   0  0  0  0  0  0  0  0  0  0  0  0
  -12.5694   14.6219   -1.1249 H   0  0  0  0  0  0  0  0  0  0  0  0
  -13.3850   15.8836    1.1234 H   0  0  0  0  0  0  0  0  0  0  0  0
  -14.2516   15.5176   -0.4623 H   0  0  0  0  0  0  0  0  0  0  0  0
  -13.8377   17.4110   -1.0863 H   0  0  0  0  0  0  0  0  0  0  0  0
  -13.2293   17.7870    0.5293 H   0  0  0  0  0  0  0  0  0  0  0  0
  -16.5422   19.3663    0.1651 H   0  0  0  0  0  0  0  0  0  0  0  0
  -15.1929   20.1513    1.0022 H   0  0  0  0  0  0  0  0  0  0  0  0
  -15.2669   21.9953   -0.5950 H   0  0  0  0  0  0  0  0  0  0  0  0
  -16.6217   21.2040   -1.4480 H   0  0  0  0  0  0  0  0  0  0  0  0
  -16.7983   22.3483    1.4936 H   0  0  0  0  0  0  0  0  0  0  0  0
  -18.1591   21.5751    0.6300 H   0  0  0  0  0  0  0  0  0  0  0  0
  -18.1791   23.3583   -0.9821 H   0  0  0  0  0  0  0  0  0  0  0  0
  -16.7188   24.0411   -0.1504 H   0  0  0  0  0  0  0  0  0  0  0  0
  -17.9103   25.2987    0.9006 H   0  0  0  0  0  0  0  0  0  0  0  0
  -17.9058   25.4247   -0.8678 H   0  0  0  0  0  0  0  0  0  0  0  0
  -19.6377   26.0575    1.0668 H   0  0  0  0  0  0  0  0  0  0  0  0
  -19.7539   25.8114   -0.9496 H   0  0  0  0  0  0  0  0  0  0  0  0
  -19.6804   27.8113   -1.0469 H   0  0  0  0  0  0  0  0  0  0  0  0
  -19.9130   29.6009   -0.1105 H   0  0  0  0  0  0  0  0  0  0  0  0
  -21.0114   28.9900    1.0979 H   0  0  0  0  0  0  0  0  0  0  0  0
  -21.3340   29.8535    0.0000 H   0  0  0  0  0  0  0  0  0  0  0  0
  -21.7201   27.0019    1.0540 H   0  0  0  0  0  0  0  0  0  0  0  0
  -21.8615   27.1678   -0.9651 H   0  0  0  0  0  0  0  0  0  0  0  0
  -22.2748   26.3429    0.0000 H   0  0  0  0  0  0  0  0  0  0  0  0
    0.2670   -3.1665   -0.6574 H   0  0  0  0  0  0  0  0  0  0  0  0
   -0.2179   -3.5931    1.0764 H   0  0  0  0  0  0  0  0  0  0  0  0
    1.2654   -7.4848   -1.1835 H   0  0  0  0  0  0  0  0  0  0  0  0
    1.0089   -7.6611    0.5837 H   0  0  0  0  0  0  0  0  0  0  0  0
    3.4933   -6.9381    0.9482 H   0  0  0  0  0  0  0  0  0  0  0  0
    3.6922   -6.8434   -0.7971 H   0  0  0  0  0  0  0  0  0  0  0  0
    3.3756   -9.0397   -0.9170 H   0  0  0  0  0  0  0  0  0  0  0  0
    3.3430   -9.0894    0.8763 H   0  0  0  0  0  0  0  0  0  0  0  0
    5.3540   -9.6231    0.8191 H   0  0  0  0  0  0  0  0  0  0  0  0
    5.2783   -9.7249   -0.9177 H   0  0  0  0  0  0  0  0  0  0  0  0
    4.6736  -11.6620   -0.7694 H   0  0  0  0  0  0  0  0  0  0  0  0
    5.0527  -11.5771    1.0306 H   0  0  0  0  0  0  0  0  0  0  0  0
    5.2930  -13.3220    0.0807 H   0  0  0  0  0  0  0  0  0  0  0  0
    6.4917  -12.4849   -1.0751 H   0  0  0  0  0  0  0  0  0  0  0  0
    6.9329  -14.1057    1.1063 H   0  0  0  0  0  0  0  0  0  0  0  0
    7.9805  -13.5288   -0.1518 H   0  0  0  0  0  0  0  0  0  0  0  0
    7.5465  -15.5598   -1.4714 H   0  0  0  0  0  0  0  0  0  0  0  0
    6.5124  -16.1596   -0.1419 H   0  0  0  0  0  0  0  0  0  0  0  0
    9.6182  -15.6162    0.0998 H   0  0  0  0  0  0  0  0  0  0  0  0
    8.5948  -16.2022    1.4418 H   0  0  0  0  0  0  0  0  0  0  0  0
    8.2162  -18.2939    0.2341 H   0  0  0  0  0  0  0  0  0  0  0  0
    9.2215  -17.7141   -1.1028 H   0  0  0  0  0  0  0  0  0  0  0  0
   11.0419  -19.9397    0.9726 H   0  0  0  0  0  0  0  0  0  0  0  0
   10.9300  -20.1395   -1.0637 H   0  0  0  0  0  0  0  0  0  0  0  0
   10.9322  -21.9413    0.9795 H   0  0  0  0  0  0  0  0  0  0  0  0
   11.3130  -23.6787   -0.1976 H   0  0  0  0  0  0  0  0  0  0  0  0
   12.5137  -23.1620    1.0769 H   0  0  0  0  0  0  0  0  0  0  0  0
   12.7360  -23.9612    0.0000 H   0  0  0  0  0  0  0  0  0  0  0  0
   13.1498  -21.1873   -1.0340 H   0  0  0  0  0  0  0  0  0  0  0  0
   13.2096  -21.1910    1.0065 H   0  0  0  0  0  0  0  0  0  0  0  0
   13.6766  -20.4506    0.0000 H   0  0  0  0  0  0  0  0  0  0  0  0
  1  2  1  0  0  0  0
  1 71  1  0  0  0  0
  1 72  1  0  0  0  0
  1 73  1  0  0  0  0
  2  3  1  0  0  0  0
  2 74  1  0  0  0  0
  2 75  1  0  0  0  0
  3  4  1  0  0  0  0
  3 76  1  0  0  0  0
  3 77  1  0  0  0  0
  4  5  1  0  0  0  0
  4 78  1  0  0  0  0
  4 79  1  0  0  0  0
  5  6  1  0  0  0  0
  6  7  1  0  0  0  0
  6 80  1  0  0  0  0
  6 81  1  0  0  0  0
  7  8  1  0  0  0  0
  7 82  1  0  0  0  0
  7 83  1  0  0  0  0
  8  9  1  0  0  0  0
  9 10  1  0  0  0  0
  9 84  1  0  0  0  0
  9 85  1  0  0  0  0
 10 11  1  0  0  0  0
 10 86  1  0  0  0  0
 10 87  1  0  0  0  0
 11 12  1  0  0  0  0
 11 88  1  0  0  0  0
 11 89  1  0  0  0  0
 12 13  1  0  0  0  0
 12 90  1  0  0  0  0
 12 91  1  0  0  0  0
 13 14  1  0  0  0  0
 13 92  1  0  0  0  0
 13 93  1  0  0  0  0
 14 15  1  0  0  0  0
 14 94  1  0  0  0  0
 14 95  1  0  0  0  0
 15 16  1  0  0  0  0
 15 96  1  0  0  0  0
 15 97  1  0  0  0  0
 16 17  1  0  0  0  0
 16 98  1  0  0  0  0
 16 99  1  0  0  0  0
 17 18  1  0  0  0  0
 17100  1  0  0  0  0
 17101  1  0  0  0  0
 18 19  1  0  0  0  0
 18102  1  0  0  0  0
 18103  1  0  0  0  0
 19 20  1  0  0  0  0
 19104  1  0  0  0  0
 19105  1  0  0  0  0
 20 21  1  0  0  0  0
 20106  1  0  0  0  0
 20107  1  0  0  0  0
 21 22  2  0  0  0  0
 21 23  1  0  0  0  0
 23 24  1  0  0  0  0
 24 25  1  0  0  0  0
 24 52  1  0  0  0  0
 24108  1  6  0  0  0
 25 26  1  0  0  0  0
 25109  1  0  0  0  0
 25110  1  0  0  0  0
 26 27  1  0  0  0  0
 27 28  2  0  0  0  0
 27 29  1  0  0  0  0
 29 30  1  0  0  0  0
 29111  1  0  0  0  0
 29112  1  0  0  0  0
 30 31  1  0  0  0  0
 30113  1  0  0  0  0
 30114  1  0  0  0  0
 31 32  1  0  0  0  0
 31115  1  0  0  0  0
 31116  1  0  0  0  0
 32 33  1  0  0  0  0
 32117  1  0  0  0  0
 32118  1  0  0  0  0
 33 34  1  0  0  0  0
 33119  1  0  0  0  0
 33120  1  0  0  0  0
 34 35  1  0  0  0  0
 34121  1  0  0  0  0
 34122  1  0  0  0  0
 35 36  1  0  0  0  0
 35123  1  0  0  0  0
 35124  1  0  0  0  0
 36 37  1  0  0  0  0
 36125  1  0  0  0  0
 36126  1  0  0  0  0
 37 38  1  0  0  0  0
 37127  1  0  0  0  0
 37128  1  0  0  0  0
 38 39  1  0  0  0  0
 38129  1  0  0  0  0
 38130  1  0  0  0  0
 39 40  1  0  0  0  0
 39131  1  0  0  0  0
 39132  1  0  0  0  0
 40 41  1  0  0  0  0
 40133  1  0  0  0  0
 40134  1  0  0  0  0
 41 42  1  0  0  0  0
 41135  1  0  0  0  0
 41136  1  0  0  0  0
 42 43  1  0  0  0  0
 43 44  1  0  0  0  0
 43137  1  0  0  0  0
 43138  1  0  0  0  0
 44 45  1  0  0  0  0
 44139  1  0  0  0  0
 44140  1  0  0  0  0
 45 46  1  0  0  0  0
 45141  1  0  0  0  0
 45142  1  0  0  0  0
 46 47  1  0  0  0  0
 46143  1  0  0  0  0
 46144  1  0  0  0  0
 47 48  1  0  0  0  0
 47145  1  0  0  0  0
 47146  1  0  0  0  0
 48 49  1  0  0  0  0
 48147  1  0  0  0  0
 48148  1  0  0  0  0
 49 50  1  0  0  0  0
 49 51  1  0  0  0  0
 49149  1  0  0  0  0
 50150  1  0  0  0  0
 50151  1  0  0  0  0
 50152  1  0  0  0  0
 51153  1  0  0  0  0
 51154  1  0  0  0  0
 51155  1  0  0  0  0
 52 53  1  0  0  0  0
 52156  1  0  0  0  0
 52157  1  0  0  0  0
 53 54  1  0  0  0  0
 54 55  2  0  0  0  0
 54 56  1  0  0  0  0
 56 57  1  0  0  0  0
 56158  1  0  0  0  0
 56159  1  0  0  0  0
 57 58  1  0  0  0  0
 57160  1  0  0  0  0
 57161  1  0  0  0  0
 58 59  1  0  0  0  0
 58162  1  0  0  0  0
 58163  1  0  0  0  0
 59 60  1  0  0  0  0
 59164  1  0  0  0  0
 59165  1  0  0  0  0
 60 61  1  0  0  0  0
 60166  1  0  0  0  0
 60167  1  0  0  0  0
 61 62  1  0  0  0  0
 61168  1  0  0  0  0
 61169  1  0  0  0  0
 62 63  1  0  0  0  0
 62170  1  0  0  0  0
 62171  1  0  0  0  0
 63 64  1  0  0  0  0
 63172  1  0  0  0  0
 63173  1  0  0  0  0
 64 65  1  0  0  0  0
 64174  1  0  0  0  0
 64175  1  0  0  0  0
 65 66  1  0  0  0  0
 65176  1  0  0  0  0
 65177  1  0  0  0  0
 66 67  1  0  0  0  0
 67 68  1  0  0  0  0
 67178  1  0  0  0  0
 67179  1  0  0  0  0
 68 69  1  0  0  0  0
 68 70  1  0  0  0  0
 68180  1  0  0  0  0
 69181  1  0  0  0  0
 69182  1  0  0  0  0
 69183  1  0  0  0  0
 70184  1  0  0  0  0
 70185  1  0  0  0  0
 70186  1  0  0  0  0
M  END
>  <IDENTIFIER>
CNP0516040.2

>  <Energy>
17323.6

$$$$
