
 OpenBabel09072508053D

 90 99  0  0  0  0  0  0  0  0999 V2000
    8.2118   -1.4635    1.0548 C   0  0  0  0  0  0  0  0  0  0  0  0
    7.9536   -0.1602    0.2795 C   0  0  0  0  0  0  0  0  0  0  0  0
    6.4696    0.3477    0.2006 C   0  0  1  0  0  0  0  0  0  0  0  0
    6.5174    1.7190   -0.5697 C   0  0  0  0  0  0  0  0  0  0  0  0
    5.3900    1.8724   -1.5920 C   0  0  0  0  0  0  0  0  0  0  0  0
    5.4830    0.7225   -2.6344 C   0  0  0  0  0  0  0  0  0  0  0  0
    5.7128   -0.6257   -2.0353 N   0  0  2  0  0  0  0  0  0  0  0  0
    4.9009   -1.7150   -2.6571 C   0  0  0  0  0  0  0  0  0  0  0  0
    3.3666   -1.5675   -2.4096 C   0  0  0  0  0  0  0  0  0  0  0  0
    3.1031   -0.9379   -1.0739 C   0  0  0  0  0  0  0  0  0  0  0  0
    4.1062   -0.4984   -0.2451 C   0  0  0  0  0  0  0  0  0  0  0  0
    5.5554   -0.6763   -0.5635 C   0  0  2  0  0  0  0  0  0  0  0  0
    3.6176    0.2054    0.7882 N   0  0  0  0  0  0  0  0  0  0  0  0
    4.4351    0.9386    1.7531 C   0  0  0  0  0  0  0  0  0  0  0  0
    5.9078    0.4953    1.6584 C   0  0  0  0  0  0  0  0  0  0  0  0
    2.2748    0.1529    0.6644 C   0  0  0  0  0  0  0  0  0  0  0  0
    1.3193    0.7061    1.5039 C   0  0  0  0  0  0  0  0  0  0  0  0
   -0.0295    0.5168    1.1733 C   0  0  0  0  0  0  0  0  0  0  0  0
   -0.4157   -0.1815   -0.0106 C   0  0  0  0  0  0  0  0  0  0  0  0
   -1.8925   -0.3902   -0.3464 C   0  0  1  0  0  0  0  0  0  0  0  0
   -2.5504   -1.2108    0.7716 C   0  0  0  0  0  0  0  0  0  0  0  0
   -4.0296   -1.6214    0.4958 C   0  0  2  0  0  0  0  0  0  0  0  0
   -4.4469   -2.5683    1.6962 C   0  0  0  0  0  0  0  0  0  0  0  0
   -4.4679   -1.9480    3.1005 C   0  0  0  0  0  0  0  0  0  0  0  0
   -4.1832   -2.4486   -0.8053 C   0  0  0  0  0  0  0  0  0  0  0  0
   -5.6549   -2.7892   -1.1379 C   0  0  0  0  0  0  0  0  0  0  0  0
   -6.6975   -1.8648   -0.4647 C   0  0  0  0  0  0  0  0  0  0  0  0
   -6.2385   -0.4821   -0.2781 N   0  0  2  0  0  0  0  0  0  0  0  0
   -6.3344    0.3364   -1.5022 C   0  0  0  0  0  0  0  0  0  0  0  0
   -4.9315    0.7633   -1.8532 C   0  0  0  0  0  0  0  0  0  0  0  0
   -4.2381    0.8696   -0.4994 C   0  0  2  0  0  0  0  0  0  0  0  0
   -4.5152    2.1819    0.2489 C   0  0  0  0  0  0  0  0  0  0  0  0
   -5.7211    2.7574    0.6936 C   0  0  0  0  0  0  0  0  0  0  0  0
   -5.6803    3.9676    1.4076 C   0  0  0  0  0  0  0  0  0  0  0  0
   -4.4518    4.5908    1.6822 C   0  0  0  0  0  0  0  0  0  0  0  0
   -3.2594    3.9988    1.2560 C   0  0  0  0  0  0  0  0  0  0  0  0
   -3.3290    2.7959    0.5572 C   0  0  0  0  0  0  0  0  0  0  0  0
   -2.2363    2.0827    0.0878 N   0  0  0  0  0  0  0  0  0  0  0  0
   -2.6597    0.9290   -0.6680 C   0  0  1  0  0  0  0  0  0  0  0  0
   -4.8842   -0.2950    0.3399 C   0  0  2  0  0  0  0  0  0  0  0  0
    0.5906   -0.7179   -0.8508 C   0  0  0  0  0  0  0  0  0  0  0  0
    1.9223   -0.5462   -0.4724 C   0  0  0  0  0  0  0  0  0  0  0  0
    9.2968   -1.6950    1.0179 H   0  0  0  0  0  0  0  0  0  0  0  0
    7.6770   -2.3270    0.6148 H   0  0  0  0  0  0  0  0  0  0  0  0
    7.9414   -1.3638    2.1252 H   0  0  0  0  0  0  0  0  0  0  0  0
    8.3388   -0.3103   -0.7532 H   0  0  0  0  0  0  0  0  0  0  0  0
    8.5734    0.6269    0.7640 H   0  0  0  0  0  0  0  0  0  0  0  0
    7.4375    1.7764   -1.1957 H   0  0  0  0  0  0  0  0  0  0  0  0
    6.5827    2.5735    0.1374 H   0  0  0  0  0  0  0  0  0  0  0  0
    5.4652    2.8479   -2.1194 H   0  0  0  0  0  0  0  0  0  0  0  0
    4.4143    1.8750   -1.0716 H   0  0  0  0  0  0  0  0  0  0  0  0
    6.3521    0.9238   -3.2961 H   0  0  0  0  0  0  0  0  0  0  0  0
    4.5797    0.7609   -3.2789 H   0  0  0  0  0  0  0  0  0  0  0  0
    5.2221   -2.6739   -2.1931 H   0  0  0  0  0  0  0  0  0  0  0  0
    5.1125   -1.8159   -3.7431 H   0  0  0  0  0  0  0  0  0  0  0  0
    2.8561   -2.5463   -2.5332 H   0  0  0  0  0  0  0  0  0  0  0  0
    2.9477   -0.8641   -3.1588 H   0  0  0  0  0  0  0  0  0  0  0  0
    5.7728   -1.7011   -0.2040 H   0  0  0  0  0  0  0  0  0  0  0  0
    4.0825    0.7527    2.7900 H   0  0  0  0  0  0  0  0  0  0  0  0
    4.3343    2.0234    1.5345 H   0  0  0  0  0  0  0  0  0  0  0  0
    5.9278   -0.5096    2.1285 H   0  0  0  0  0  0  0  0  0  0  0  0
    6.5376    1.1725    2.2750 H   0  0  0  0  0  0  0  0  0  0  0  0
    1.5993    1.2512    2.3963 H   0  0  0  0  0  0  0  0  0  0  0  0
   -0.7742    0.9238    1.8435 H   0  0  0  0  0  0  0  0  0  0  0  0
   -1.9372   -1.0109   -1.2617 H   0  0  0  0  0  0  0  0  0  0  0  0
   -2.5008   -0.6145    1.7039 H   0  0  0  0  0  0  0  0  0  0  0  0
   -1.9434   -2.1340    0.9130 H   0  0  0  0  0  0  0  0  0  0  0  0
   -3.7350   -3.4234    1.7240 H   0  0  0  0  0  0  0  0  0  0  0  0
   -5.4248   -3.0447    1.5636 H   0  0  0  0  0  0  0  0  0  0  0  0
   -3.4777   -1.5555    3.4011 H   0  0  0  0  0  0  0  0  0  0  0  0
   -4.7409   -2.7355    3.8348 H   0  0  0  0  0  0  0  0  0  0  0  0
   -5.2310   -1.1488    3.1781 H   0  0  0  0  0  0  0  0  0  0  0  0
   -3.5611   -3.3698   -0.8214 H   0  0  0  0  0  0  0  0  0  0  0  0
   -3.8163   -1.8550   -1.6485 H   0  0  0  0  0  0  0  0  0  0  0  0
   -5.9031   -3.8255   -0.8221 H   0  0  0  0  0  0  0  0  0  0  0  0
   -5.7566   -2.7590   -2.2453 H   0  0  0  0  0  0  0  0  0  0  0  0
   -6.9708   -2.2349    0.5358 H   0  0  0  0  0  0  0  0  0  0  0  0
   -7.6660   -1.9157   -1.0088 H   0  0  0  0  0  0  0  0  0  0  0  0
   -6.9415    1.2280   -1.2696 H   0  0  0  0  0  0  0  0  0  0  0  0
   -6.8443   -0.1587   -2.3585 H   0  0  0  0  0  0  0  0  0  0  0  0
   -4.8703    1.6675   -2.4962 H   0  0  0  0  0  0  0  0  0  0  0  0
   -4.4807   -0.0608   -2.4293 H   0  0  0  0  0  0  0  0  0  0  0  0
   -6.6778    2.2958    0.5272 H   0  0  0  0  0  0  0  0  0  0  0  0
   -6.6000    4.4192    1.7568 H   0  0  0  0  0  0  0  0  0  0  0  0
   -4.4259    5.5220    2.2333 H   0  0  0  0  0  0  0  0  0  0  0  0
   -2.3041    4.4613    1.4712 H   0  0  0  0  0  0  0  0  0  0  0  0
   -1.2770    2.4572    0.1045 H   0  0  0  0  0  0  0  0  0  0  0  0
   -2.3909    1.2048   -1.7137 H   0  0  0  0  0  0  0  0  0  0  0  0
   -4.9875    0.0779    1.3781 H   0  0  0  0  0  0  0  0  0  0  0  0
    0.3437   -1.2620   -1.7539 H   0  0  0  0  0  0  0  0  0  0  0  0
  1  2  1  0  0  0  0
  1 43  1  0  0  0  0
  1 44  1  0  0  0  0
  1 45  1  0  0  0  0
  2 46  1  0  0  0  0
  2 47  1  0  0  0  0
  3  2  1  1  0  0  0
  3  4  1  0  0  0  0
  4  5  1  0  0  0  0
  4 48  1  0  0  0  0
  4 49  1  0  0  0  0
  5  6  1  0  0  0  0
  5 50  1  0  0  0  0
  5 51  1  0  0  0  0
  6 52  1  0  0  0  0
  6 53  1  0  0  0  0
  7  6  1  6  0  0  0
  7  8  1  0  0  0  0
  8  9  1  0  0  0  0
  8 54  1  0  0  0  0
  8 55  1  0  0  0  0
  9 10  1  0  0  0  0
  9 56  1  0  0  0  0
  9 57  1  0  0  0  0
 10 11  2  0  0  0  0
 11 12  1  0  0  0  0
 11 13  1  0  0  0  0
 12  3  1  0  0  0  0
 12  7  1  0  0  0  0
 12 58  1  1  0  0  0
 13 14  1  0  0  0  0
 13 16  1  0  0  0  0
 14 15  1  0  0  0  0
 14 59  1  0  0  0  0
 14 60  1  0  0  0  0
 15  3  1  0  0  0  0
 15 61  1  0  0  0  0
 15 62  1  0  0  0  0
 16 17  2  0  0  0  0
 17 18  1  0  0  0  0
 17 63  1  0  0  0  0
 18 19  2  0  0  0  0
 18 64  1  0  0  0  0
 19 41  1  0  0  0  0
 20 19  1  0  0  0  0
 20 21  1  0  0  0  0
 20 65  1  6  0  0  0
 21 22  1  0  0  0  0
 21 66  1  0  0  0  0
 21 67  1  0  0  0  0
 22 23  1  1  0  0  0
 22 25  1  0  0  0  0
 23 24  1  0  0  0  0
 23 68  1  0  0  0  0
 23 69  1  0  0  0  0
 24 70  1  0  0  0  0
 24 71  1  0  0  0  0
 24 72  1  0  0  0  0
 25 26  1  0  0  0  0
 25 73  1  0  0  0  0
 25 74  1  0  0  0  0
 26 27  1  0  0  0  0
 26 75  1  0  0  0  0
 26 76  1  0  0  0  0
 27 77  1  0  0  0  0
 27 78  1  0  0  0  0
 28 27  1  6  0  0  0
 28 29  1  0  0  0  0
 29 30  1  0  0  0  0
 29 79  1  0  0  0  0
 29 80  1  0  0  0  0
 30 81  1  0  0  0  0
 30 82  1  0  0  0  0
 31 30  1  0  0  0  0
 31 32  1  1  0  0  0
 31 40  1  0  0  0  0
 32 33  2  0  0  0  0
 33 34  1  0  0  0  0
 33 83  1  0  0  0  0
 34 35  2  0  0  0  0
 34 84  1  0  0  0  0
 35 36  1  0  0  0  0
 35 85  1  0  0  0  0
 36 37  2  0  0  0  0
 36 86  1  0  0  0  0
 37 38  1  0  0  0  0
 37 32  1  0  0  0  0
 38 87  1  0  0  0  0
 39 38  1  0  0  0  0
 39 20  1  0  0  0  0
 39 31  1  0  0  0  0
 39 88  1  6  0  0  0
 40 22  1  0  0  0  0
 40 28  1  0  0  0  0
 40 89  1  1  0  0  0
 41 42  2  0  0  0  0
 41 90  1  0  0  0  0
 42 16  1  0  0  0  0
 42 10  1  0  0  0  0
M  END
>  <IDENTIFIER>
CNP0573024.0

>  <Energy>
1408.24

$$$$
