
 OpenBabel09072520083D

 49 50  0  0  0  0  0  0  0  0999 V2000
    6.0398    0.2045   -1.2378 C   0  0  0  0  0  0  0  0  0  0  0  0
    4.9011    1.2099   -1.4104 C   0  0  0  0  0  0  0  0  0  0  0  0
    4.3731    1.7666   -0.0747 C   0  0  0  0  0  0  0  0  0  0  0  0
    3.7348    0.7014    0.8442 C   0  0  2  0  0  0  0  0  0  0  0  0
    2.6292    0.0567    0.1471 N   0  0  0  0  0  0  0  0  0  0  0  0
    2.5819   -1.2846   -0.1121 C   0  0  0  0  0  0  0  0  0  0  0  0
    3.4971   -2.0140    0.2447 O   0  0  0  0  0  0  0  0  0  0  0  0
    1.4013   -1.9133   -0.8277 C   0  0  2  0  0  0  0  0  0  0  0  0
    1.8552   -2.5770   -2.1271 C   0  0  0  0  0  0  0  0  0  0  0  0
    0.4467   -0.9535   -1.1302 O   0  0  0  0  0  0  0  0  0  0  0  0
   -0.8228   -0.8155   -0.6578 C   0  0  0  0  0  0  0  0  0  0  0  0
   -1.4137   -1.6844    0.2791 C   0  0  0  0  0  0  0  0  0  0  0  0
   -2.7180   -1.4643    0.7308 C   0  0  0  0  0  0  0  0  0  0  0  0
   -3.4758   -0.3658    0.2634 C   0  0  0  0  0  0  0  0  0  0  0  0
   -4.8066   -0.0748    0.6872 C   0  0  0  0  0  0  0  0  0  0  0  0
   -5.5543   -0.9290    1.6952 C   0  0  0  0  0  0  0  0  0  0  0  0
   -5.4545    1.0677    0.1410 C   0  0  0  0  0  0  0  0  0  0  0  0
   -6.8639    1.4819    0.5164 C   0  0  0  0  0  0  0  0  0  0  0  0
   -4.7587    1.8576   -0.7926 C   0  0  0  0  0  0  0  0  0  0  0  0
   -5.2839    2.8437   -1.2808 O   0  0  0  0  0  0  0  0  0  0  0  0
   -3.5251    1.5478   -1.1562 O   0  0  0  0  0  0  0  0  0  0  0  0
   -2.8713    0.4992   -0.6806 C   0  0  0  0  0  0  0  0  0  0  0  0
   -1.5669    0.2683   -1.1275 C   0  0  0  0  0  0  0  0  0  0  0  0
    3.2605    1.3468    2.1359 C   0  0  0  0  0  0  0  0  0  0  0  0
    4.0742    1.9218    2.8423 O   0  0  0  0  0  0  0  0  0  0  0  0
    1.9722    1.2947    2.5480 O   0  0  0  0  0  0  0  0  0  0  0  0
    6.4018   -0.1160   -2.2372 H   0  0  0  0  0  0  0  0  0  0  0  0
    5.6996   -0.6995   -0.6948 H   0  0  0  0  0  0  0  0  0  0  0  0
    6.8838    0.6696   -0.6858 H   0  0  0  0  0  0  0  0  0  0  0  0
    4.0738    0.7379   -1.9828 H   0  0  0  0  0  0  0  0  0  0  0  0
    5.2866    2.0632   -2.0093 H   0  0  0  0  0  0  0  0  0  0  0  0
    3.6077    2.5403   -0.3063 H   0  0  0  0  0  0  0  0  0  0  0  0
    5.2125    2.2666    0.4572 H   0  0  0  0  0  0  0  0  0  0  0  0
    4.5120   -0.0375    1.1306 H   0  0  0  0  0  0  0  0  0  0  0  0
    1.8566    0.6639   -0.1643 H   0  0  0  0  0  0  0  0  0  0  0  0
    1.0019   -2.7037   -0.1682 H   0  0  0  0  0  0  0  0  0  0  0  0
    2.2956   -1.8216   -2.8133 H   0  0  0  0  0  0  0  0  0  0  0  0
    0.9862   -3.0533   -2.6291 H   0  0  0  0  0  0  0  0  0  0  0  0
    2.6134   -3.3625   -1.9203 H   0  0  0  0  0  0  0  0  0  0  0  0
   -0.8939   -2.5368    0.6845 H   0  0  0  0  0  0  0  0  0  0  0  0
   -3.0921   -2.1732    1.4477 H   0  0  0  0  0  0  0  0  0  0  0  0
   -5.0084   -1.7999    2.0859 H   0  0  0  0  0  0  0  0  0  0  0  0
   -6.4789   -1.3276    1.2273 H   0  0  0  0  0  0  0  0  0  0  0  0
   -5.8218   -0.3099    2.5772 H   0  0  0  0  0  0  0  0  0  0  0  0
   -7.3537    0.8203    1.2544 H   0  0  0  0  0  0  0  0  0  0  0  0
   -7.5006    1.4916   -0.3933 H   0  0  0  0  0  0  0  0  0  0  0  0
   -6.8438    2.5036    0.9513 H   0  0  0  0  0  0  0  0  0  0  0  0
   -1.1228    0.9467   -1.8464 H   0  0  0  0  0  0  0  0  0  0  0  0
    1.2697    0.8437    2.0615 H   0  0  0  0  0  0  0  0  0  0  0  0
  1  2  1  0  0  0  0
  1 27  1  0  0  0  0
  1 28  1  0  0  0  0
  1 29  1  0  0  0  0
  2  3  1  0  0  0  0
  2 30  1  0  0  0  0
  2 31  1  0  0  0  0
  3 32  1  0  0  0  0
  3 33  1  0  0  0  0
  4  3  1  0  0  0  0
  4  5  1  0  0  0  0
  4 24  1  0  0  0  0
  4 34  1  1  0  0  0
  5  6  1  0  0  0  0
  5 35  1  0  0  0  0
  6  7  2  0  0  0  0
  6  8  1  0  0  0  0
  8  9  1  0  0  0  0
  8 10  1  0  0  0  0
  8 36  1  1  0  0  0
  9 37  1  0  0  0  0
  9 38  1  0  0  0  0
  9 39  1  0  0  0  0
 10 11  1  0  0  0  0
 11 12  2  0  0  0  0
 12 13  1  0  0  0  0
 12 40  1  0  0  0  0
 13 14  2  0  0  0  0
 13 41  1  0  0  0  0
 14 15  1  0  0  0  0
 15 16  1  0  0  0  0
 15 17  2  0  0  0  0
 16 42  1  0  0  0  0
 16 43  1  0  0  0  0
 16 44  1  0  0  0  0
 17 18  1  0  0  0  0
 17 19  1  0  0  0  0
 18 45  1  0  0  0  0
 18 46  1  0  0  0  0
 18 47  1  0  0  0  0
 19 20  2  0  0  0  0
 19 21  1  0  0  0  0
 21 22  1  0  0  0  0
 22 23  2  0  0  0  0
 22 14  1  0  0  0  0
 23 11  1  0  0  0  0
 23 48  1  0  0  0  0
 24 25  2  0  0  0  0
 24 26  1  0  0  0  0
 26 49  1  0  0  0  0
M  END
>  <IDENTIFIER>
CNP0135391.1

>  <Energy>
235.926

$$$$
