
 OpenBabel09112518083D

 62 63  0  0  0  0  0  0  0  0999 V2000
   -5.0054    3.3678   -0.8430 C   0  0  0  0  0  0  0  0  0  0  0  0
   -4.1872    2.7385    0.1157 O   0  0  0  0  0  0  0  0  0  0  0  0
   -2.9807    2.2892   -0.4793 C   0  0  1  0  0  0  0  0  0  0  0  0
   -1.8901    2.9824    0.1005 O   0  0  0  0  0  0  0  0  0  0  0  0
   -0.9397    2.0009    0.5110 C   0  0  2  0  0  0  0  0  0  0  0  0
    0.3671    2.4403    0.2049 O   0  0  0  0  0  0  0  0  0  0  0  0
    0.7124    3.6117    0.9155 C   0  0  0  0  0  0  0  0  0  0  0  0
   -1.2478    0.7329   -0.2902 C   0  0  2  0  0  0  0  0  0  0  0  0
   -2.7262    0.8416   -0.2079 C   0  0  0  0  0  0  0  0  0  0  0  0
   -3.7033   -0.0293    0.2010 C   0  0  0  0  0  0  0  0  0  0  0  0
   -3.7990   -1.4866    0.7178 C   0  0  0  0  0  0  0  0  0  0  0  0
   -3.1069   -2.8731    0.7125 C   0  0  0  0  0  0  0  0  0  0  0  0
   -2.0325   -3.5388    0.1654 C   0  0  0  0  0  0  0  0  0  0  0  0
   -1.8641   -5.0082    0.5066 C   0  0  0  0  0  0  0  0  0  0  0  0
   -0.9569   -3.0581   -0.7867 C   0  0  0  0  0  0  0  0  0  0  0  0
   -1.0224   -1.5965   -1.1542 C   0  0  1  0  0  0  0  0  0  0  0  0
   -2.2797   -1.3467   -1.7424 O   0  0  0  0  0  0  0  0  0  0  0  0
   -0.7219   -0.6695    0.0914 C   0  0  1  0  0  0  0  0  0  0  0  0
    0.7645   -0.8002    0.6227 C   0  0  2  0  0  0  0  0  0  0  0  0
    0.9344   -0.1479    2.0168 C   0  0  0  0  0  0  0  0  0  0  0  0
    1.8626   -0.3653   -0.3897 C   0  0  0  0  0  0  0  0  0  0  0  0
    3.2915   -0.5895    0.1398 C   0  0  0  0  0  0  0  0  0  0  0  0
    4.3170   -0.2240   -0.9062 C   0  0  0  0  0  0  0  0  0  0  0  0
    5.2804    0.7309   -0.8035 C   0  0  0  0  0  0  0  0  0  0  0  0
    6.2322    0.9333   -1.9560 C   0  0  0  0  0  0  0  0  0  0  0  0
    5.4931    1.6374    0.3888 C   0  0  0  0  0  0  0  0  0  0  0  0
   -5.9529    3.6701   -0.3522 H   0  0  0  0  0  0  0  0  0  0  0  0
   -5.2739    2.6661   -1.6642 H   0  0  0  0  0  0  0  0  0  0  0  0
   -4.5217    4.2905   -1.2335 H   0  0  0  0  0  0  0  0  0  0  0  0
   -2.9157    2.4441   -1.5859 H   0  0  0  0  0  0  0  0  0  0  0  0
   -1.0820    1.8064    1.6014 H   0  0  0  0  0  0  0  0  0  0  0  0
    0.9210    4.4227    0.1888 H   0  0  0  0  0  0  0  0  0  0  0  0
    1.6316    3.4136    1.5049 H   0  0  0  0  0  0  0  0  0  0  0  0
   -0.0683    3.9773    1.6244 H   0  0  0  0  0  0  0  0  0  0  0  0
   -0.9175    0.9577   -1.3345 H   0  0  0  0  0  0  0  0  0  0  0  0
   -4.6897    0.4234    0.2462 H   0  0  0  0  0  0  0  0  0  0  0  0
   -4.7967   -1.7798    0.3198 H   0  0  0  0  0  0  0  0  0  0  0  0
   -3.9806   -1.3080    1.7998 H   0  0  0  0  0  0  0  0  0  0  0  0
   -3.7129   -3.5196    1.3445 H   0  0  0  0  0  0  0  0  0  0  0  0
   -2.6437   -5.4027    1.1900 H   0  0  0  0  0  0  0  0  0  0  0  0
   -0.8775   -5.1699    0.9872 H   0  0  0  0  0  0  0  0  0  0  0  0
   -1.9072   -5.6097   -0.4291 H   0  0  0  0  0  0  0  0  0  0  0  0
   -1.0544   -3.6566   -1.7221 H   0  0  0  0  0  0  0  0  0  0  0  0
    0.0388   -3.3121   -0.3862 H   0  0  0  0  0  0  0  0  0  0  0  0
   -0.2692   -1.3740   -1.9370 H   0  0  0  0  0  0  0  0  0  0  0  0
   -2.4088   -1.9722   -2.5009 H   0  0  0  0  0  0  0  0  0  0  0  0
   -1.3206   -0.9925    0.9633 H   0  0  0  0  0  0  0  0  0  0  0  0
    0.9318   -1.8715    0.8423 H   0  0  0  0  0  0  0  0  0  0  0  0
    0.9637    0.9496    1.9873 H   0  0  0  0  0  0  0  0  0  0  0  0
    1.8760   -0.4782    2.4987 H   0  0  0  0  0  0  0  0  0  0  0  0
    0.1207   -0.4724    2.6993 H   0  0  0  0  0  0  0  0  0  0  0  0
    1.7480    0.7009   -0.6555 H   0  0  0  0  0  0  0  0  0  0  0  0
    1.7611   -0.9597   -1.3190 H   0  0  0  0  0  0  0  0  0  0  0  0
    3.4259   -1.6633    0.3941 H   0  0  0  0  0  0  0  0  0  0  0  0
    3.4296   -0.0140    1.0613 H   0  0  0  0  0  0  0  0  0  0  0  0
    4.2630   -0.8065   -1.8231 H   0  0  0  0  0  0  0  0  0  0  0  0
    6.0339    0.2406   -2.8022 H   0  0  0  0  0  0  0  0  0  0  0  0
    7.2726    0.7629   -1.6076 H   0  0  0  0  0  0  0  0  0  0  0  0
    6.1441    1.9744   -2.3316 H   0  0  0  0  0  0  0  0  0  0  0  0
    4.7936    1.5052    1.2279 H   0  0  0  0  0  0  0  0  0  0  0  0
    5.4009    2.6932    0.0596 H   0  0  0  0  0  0  0  0  0  0  0  0
    6.5168    1.4806    0.7867 H   0  0  0  0  0  0  0  0  0  0  0  0
  1  2  1  0  0  0  0
  1 27  1  0  0  0  0
  1 28  1  0  0  0  0
  1 29  1  0  0  0  0
  3  2  1  0  0  0  0
  3  4  1  0  0  0  0
  3 30  1  6  0  0  0
  4  5  1  0  0  0  0
  5  6  1  0  0  0  0
  5  8  1  0  0  0  0
  5 31  1  1  0  0  0
  6  7  1  0  0  0  0
  7 32  1  0  0  0  0
  7 33  1  0  0  0  0
  7 34  1  0  0  0  0
  8  9  1  0  0  0  0
  8 35  1  6  0  0  0
  9 10  2  0  0  0  0
  9  3  1  0  0  0  0
 10 11  1  0  0  0  0
 10 36  1  0  0  0  0
 11 12  1  0  0  0  0
 11 37  1  0  0  0  0
 11 38  1  0  0  0  0
 12 13  2  0  0  0  0
 12 39  1  0  0  0  0
 13 14  1  0  0  0  0
 13 15  1  0  0  0  0
 14 40  1  0  0  0  0
 14 41  1  0  0  0  0
 14 42  1  0  0  0  0
 15 16  1  0  0  0  0
 15 43  1  0  0  0  0
 15 44  1  0  0  0  0
 16 17  1  0  0  0  0
 16 18  1  0  0  0  0
 16 45  1  6  0  0  0
 17 46  1  0  0  0  0
 18 19  1  0  0  0  0
 18  8  1  0  0  0  0
 18 47  1  1  0  0  0
 19 20  1  0  0  0  0
 19 21  1  0  0  0  0
 19 48  1  1  0  0  0
 20 49  1  0  0  0  0
 20 50  1  0  0  0  0
 20 51  1  0  0  0  0
 21 22  1  0  0  0  0
 21 52  1  0  0  0  0
 21 53  1  0  0  0  0
 22 23  1  0  0  0  0
 22 54  1  0  0  0  0
 22 55  1  0  0  0  0
 23 24  2  0  0  0  0
 23 56  1  0  0  0  0
 24 25  1  0  0  0  0
 24 26  1  0  0  0  0
 25 57  1  0  0  0  0
 25 58  1  0  0  0  0
 25 59  1  0  0  0  0
 26 60  1  0  0  0  0
 26 61  1  0  0  0  0
 26 62  1  0  0  0  0
M  END
>  <IDENTIFIER>
CNP0196201.1

>  <Energy>
910.639

$$$$
