
 OpenBabel09072515102D

 54 59  0  0  0  0  0  0  0  0999 V2000
   -4.1369    0.0290   -1.8224 C   0  0  0  0  0  0  0  0  0  0  0  0
   -3.0184   -0.3090   -1.1597 C   0  0  0  0  0  0  0  0  0  0  0  0
   -2.0147    0.5040   -0.6845 C   0  0  1  0  0  0  0  0  0  0  0  0
   -2.1659    0.4937    0.9581 C   0  0  0  0  0  0  0  0  0  0  0  0
   -2.0978   -1.0414    1.6512 C   0  0  1  0  0  0  0  0  0  0  0  0
   -3.3997   -1.3804    2.0695 O   0  0  0  0  0  0  0  0  0  0  0  0
   -1.4787   -2.3188    0.6706 C   0  0  1  0  0  0  0  0  0  0  0  0
   -0.6819   -3.4507   -0.3091 C   0  0  2  0  0  0  0  0  0  0  0  0
   -1.5679   -4.6817   -0.6668 C   0  0  0  0  0  0  0  0  0  0  0  0
   -0.7967   -5.9989   -0.7847 C   0  0  0  0  0  0  0  0  0  0  0  0
    0.6476   -5.7799   -1.2277 C   0  0  0  0  0  0  0  0  0  0  0  0
    1.5000   -5.1962    0.0000 C   0  0  0  0  0  0  0  0  0  0  0  0
    2.6491   -4.2320    0.0000 C   0  0  0  0  0  0  0  0  0  0  0  0
    2.6491   -6.1603    0.0000 C   0  0  0  0  0  0  0  0  0  0  0  0
    0.4965   -3.9703    0.6743 C   0  0  1  0  0  0  0  0  0  0  0  0
    1.0044   -2.4704    1.2060 C   0  0  2  0  0  0  0  0  0  0  0  0
    0.4115   -2.1034    2.4272 O   0  0  0  0  0  0  0  0  0  0  0  0
    0.7500   -1.2990    0.0000 C   0  0  1  0  0  0  0  0  0  0  0  0
    2.2500   -1.2990    0.0000 O   0  0  0  0  0  0  0  0  0  0  0  0
    1.0392   -2.0299   -1.2312 O   0  0  0  0  0  0  0  0  0  0  0  0
   -0.0405   -2.6424   -1.7683 C   0  0  3  0  0  0  0  0  0  0  0  0
   -0.6768   -1.3690   -2.2819 O   0  0  0  0  0  0  0  0  0  0  0  0
   -0.7731   -0.3689   -1.1579 C   0  0  2  0  0  0  0  0  0  0  0  0
   -0.7500   -1.2990    0.0000 C   0  0  1  0  0  0  0  0  0  0  0  0
   -2.5234   -1.6044   -0.7920 C   0  0  2  0  0  0  0  0  0  0  0  0
   -2.6806   -2.4312   -1.9439 O   0  0  0  0  0  0  0  0  0  0  0  0
   -4.3601    1.0688   -2.0367 H   0  0  0  0  0  0  0  0  0  0  0  0
   -4.8360   -0.7335   -2.1513 H   0  0  0  0  0  0  0  0  0  0  0  0
   -2.0721    1.5196   -1.1349 H   0  0  0  0  0  0  0  0  0  0  0  0
   -1.2781    1.0572    1.3179 H   0  0  0  0  0  0  0  0  0  0  0  0
   -3.0614    1.0455    1.3176 H   0  0  0  0  0  0  0  0  0  0  0  0
   -1.5297   -0.8760    2.5905 H   0  0  0  0  0  0  0  0  0  0  0  0
   -3.3217   -2.1595    2.6798 H   0  0  0  0  0  0  0  0  0  0  0  0
   -1.5315   -2.9822    1.5599 H   0  0  0  0  0  0  0  0  0  0  0  0
   -2.3786   -4.8445    0.0758 H   0  0  0  0  0  0  0  0  0  0  0  0
   -2.0327   -4.5319   -1.6523 H   0  0  0  0  0  0  0  0  0  0  0  0
   -0.7539   -6.5105    0.2035 H   0  0  0  0  0  0  0  0  0  0  0  0
   -1.3552   -6.6735   -1.4714 H   0  0  0  0  0  0  0  0  0  0  0  0
    0.7261   -5.2021   -2.1541 H   0  0  0  0  0  0  0  0  0  0  0  0
    0.9595   -6.8028   -1.5514 H   0  0  0  0  0  0  0  0  0  0  0  0
    3.0111   -4.1865    1.0739 H   0  0  0  0  0  0  0  0  0  0  0  0
    2.5106   -3.7126   -0.9653 H   0  0  0  0  0  0  0  0  0  0  0  0
    3.4688   -3.5442    0.0000 H   0  0  0  0  0  0  0  0  0  0  0  0
    2.0913   -7.0278    0.4238 H   0  0  0  0  0  0  0  0  0  0  0  0
    2.9428   -6.2790   -1.0896 H   0  0  0  0  0  0  0  0  0  0  0  0
    3.4688   -6.8480    0.0000 H   0  0  0  0  0  0  0  0  0  0  0  0
    0.0695   -4.4859    1.5635 H   0  0  0  0  0  0  0  0  0  0  0  0
    2.0204   -2.5875    1.6443 H   0  0  0  0  0  0  0  0  0  0  0  0
    0.7681   -1.2053    2.6652 H   0  0  0  0  0  0  0  0  0  0  0  0
    2.5033   -0.3482    0.1281 H   0  0  0  0  0  0  0  0  0  0  0  0
    0.2982   -3.2662   -2.6060 H   0  0  0  0  0  0  0  0  0  0  0  0
    0.0295    0.4183   -1.2753 H   0  0  0  0  0  0  0  0  0  0  0  0
   -3.4570   -1.8730   -0.1731 H   0  0  0  0  0  0  0  0  0  0  0  0
   -3.5901   -2.8358   -1.9575 H   0  0  0  0  0  0  0  0  0  0  0  0
  1  2  2  0  0  0  0
  1 27  1  0  0  0  0
  1 28  1  0  0  0  0
  2  3  1  0  0  0  0
  3  4  1  0  0  0  0
  3 29  1  6  0  0  0
  4  5  1  0  0  0  0
  4 30  1  0  0  0  0
  4 31  1  0  0  0  0
  5  6  1  0  0  0  0
  5 32  1  1  0  0  0
  6 33  1  0  0  0  0
  7  5  1  0  0  0  0
  7  8  1  0  0  0  0
  7 34  1  1  0  0  0
  8  9  1  6  0  0  0
  9 10  1  0  0  0  0
  9 35  1  0  0  0  0
  9 36  1  0  0  0  0
 10 11  1  0  0  0  0
 10 37  1  0  0  0  0
 10 38  1  0  0  0  0
 11 12  1  0  0  0  0
 11 39  1  0  0  0  0
 11 40  1  0  0  0  0
 12 13  1  0  0  0  0
 12 14  1  0  0  0  0
 13 41  1  0  0  0  0
 13 42  1  0  0  0  0
 13 43  1  0  0  0  0
 14 44  1  0  0  0  0
 14 45  1  0  0  0  0
 14 46  1  0  0  0  0
 15 12  1  0  0  0  0
 15 16  1  0  0  0  0
 15  8  1  0  0  0  0
 15 47  1  1  0  0  0
 16 17  1  0  0  0  0
 16 18  1  0  0  0  0
 16 48  1  1  0  0  0
 17 49  1  0  0  0  0
 18 19  1  1  0  0  0
 18 20  1  0  0  0  0
 19 50  1  0  0  0  0
 20 21  1  0  0  0  0
 21 22  1  0  0  0  0
 21  8  1  0  0  0  0
 21 51  1  0  0  0  0
 23 22  1  0  0  0  0
 23 24  1  0  0  0  0
 23  3  1  0  0  0  0
 23 52  1  1  0  0  0
 24 25  1  0  0  0  0
 24  7  1  0  0  0  0
 24 18  1  0  0  0  0
 25 26  1  0  0  0  0
 25  2  1  0  0  0  0
 25 53  1  0  0  0  0
 26 54  1  0  0  0  0
M  END
>  <IDENTIFIER>
CNP0291559.1

>  <Energy>
6234.45

$$$$
