
 OpenBabel09122507303D

109113  0  0  0  0  0  0  0  0999 V2000
   -3.5238    5.7683   -0.2420 C   0  0  0  0  0  0  0  0  0  0  0  0
   -3.8779    5.0648    1.0931 C   0  0  0  0  0  0  0  0  0  0  0  0
   -5.1006    5.7506    1.7364 C   0  0  0  0  0  0  0  0  0  0  0  0
   -4.2238    3.5917    0.9108 C   0  0  0  0  0  0  0  0  0  0  0  0
   -4.2846    2.9395   -0.2670 C   0  0  0  0  0  0  0  0  0  0  0  0
   -4.5519    1.4491   -0.3464 C   0  0  0  0  0  0  0  0  0  0  0  0
   -3.3579    0.6717   -1.0253 C   0  0  2  0  0  0  0  0  0  0  0  0
   -3.3131    1.1827   -2.4857 C   0  0  0  0  0  0  0  0  0  0  0  0
   -3.6309   -0.7236   -1.1941 O   0  0  0  0  0  0  0  0  0  0  0  0
   -3.9092   -1.5292   -0.0627 C   0  0  2  0  0  0  0  0  0  0  0  0
   -2.7221   -2.2837    0.2183 O   0  0  0  0  0  0  0  0  0  0  0  0
   -2.9715   -3.6244    0.5960 C   0  0  2  0  0  0  0  0  0  0  0  0
   -1.6516   -4.2836    1.0200 C   0  0  0  0  0  0  0  0  0  0  0  0
   -1.8525   -5.6052    1.4436 O   0  0  0  0  0  0  0  0  0  0  0  0
   -3.6543   -4.4215   -0.5617 C   0  0  1  0  0  0  0  0  0  0  0  0
   -4.2190   -5.6082   -0.0590 O   0  0  0  0  0  0  0  0  0  0  0  0
   -4.7214   -3.5597   -1.3096 C   0  0  2  0  0  0  0  0  0  0  0  0
   -4.2294   -3.0628   -2.5365 O   0  0  0  0  0  0  0  0  0  0  0  0
   -5.1666   -2.3928   -0.4147 C   0  0  1  0  0  0  0  0  0  0  0  0
   -5.7727   -2.9066    0.7455 O   0  0  0  0  0  0  0  0  0  0  0  0
   -1.9792    0.9765   -0.2726 C   0  0  1  0  0  0  0  0  0  0  0  0
   -2.0439    0.8603    1.2916 C   0  0  0  0  0  0  0  0  0  0  0  0
   -0.7644    0.1426    1.7214 C   0  0  0  0  0  0  0  0  0  0  0  0
    0.2655    0.5108    0.6423 C   0  0  2  0  0  0  0  0  0  0  0  0
    0.6248    2.0421    0.8627 C   0  0  0  0  0  0  0  0  0  0  0  0
   -0.6161    0.2807   -0.6356 C   0  0  2  0  0  0  0  0  0  0  0  0
    0.2072    0.6855   -1.8924 C   0  0  2  0  0  0  0  0  0  0  0  0
   -0.4916    0.4956   -3.0864 O   0  0  0  0  0  0  0  0  0  0  0  0
    1.5282   -0.1238   -1.9730 C   0  0  0  0  0  0  0  0  0  0  0  0
    2.4257    0.0028   -0.7038 C   0  0  2  0  0  0  0  0  0  0  0  0
    3.8964   -0.6185   -0.8546 C   0  0  1  0  0  0  0  0  0  0  0  0
    3.8409   -2.1353   -1.2346 C   0  0  0  0  0  0  0  0  0  0  0  0
    4.6275    0.1122   -2.0319 C   0  0  0  0  0  0  0  0  0  0  0  0
    6.1209   -0.2408   -2.1454 C   0  0  0  0  0  0  0  0  0  0  0  0
    6.8582    0.1125   -0.8472 C   0  0  2  0  0  0  0  0  0  0  0  0
    8.2428   -0.1066   -0.9893 O   0  0  0  0  0  0  0  0  0  0  0  0
    6.2773   -0.5840    0.4349 C   0  0  0  0  0  0  0  0  0  0  0  0
    6.6227   -2.0947    0.5015 C   0  0  0  0  0  0  0  0  0  0  0  0
    7.0280    0.0692    1.6338 C   0  0  0  0  0  0  0  0  0  0  0  0
    4.7037   -0.2817    0.4870 C   0  0  2  0  0  0  0  0  0  0  0  0
    3.9162   -0.8123    1.7444 C   0  0  1  0  0  0  0  0  0  0  0  0
    4.5728   -0.5304    2.9520 O   0  0  0  0  0  0  0  0  0  0  0  0
    2.5089   -0.1583    1.8259 C   0  0  0  0  0  0  0  0  0  0  0  0
    1.6009   -0.4063    0.5912 C   0  0  1  0  0  0  0  0  0  0  0  0
    1.1981   -1.9205    0.6211 C   0  0  0  0  0  0  0  0  0  0  0  0
   -2.7624    5.0928    1.9683 O   0  0  0  0  0  0  0  0  0  0  0  0
   -2.4702    6.3534    2.2404 O   0  0  0  0  0  0  0  0  0  0  0  0
   -4.3803    5.7373   -0.9488 H   0  0  0  0  0  0  0  0  0  0  0  0
   -2.6412    5.2802   -0.7102 H   0  0  0  0  0  0  0  0  0  0  0  0
   -3.2726    6.8371   -0.0767 H   0  0  0  0  0  0  0  0  0  0  0  0
   -5.9832    5.6726    1.0647 H   0  0  0  0  0  0  0  0  0  0  0  0
   -4.9054    6.8292    1.9174 H   0  0  0  0  0  0  0  0  0  0  0  0
   -5.3499    5.2728    2.7078 H   0  0  0  0  0  0  0  0  0  0  0  0
   -4.4100    3.0286    1.8222 H   0  0  0  0  0  0  0  0  0  0  0  0
   -4.1167    3.4682   -1.1936 H   0  0  0  0  0  0  0  0  0  0  0  0
   -5.4884    1.2833   -0.9223 H   0  0  0  0  0  0  0  0  0  0  0  0
   -4.7543    1.0788    0.6745 H   0  0  0  0  0  0  0  0  0  0  0  0
   -4.3249    1.1298   -2.9435 H   0  0  0  0  0  0  0  0  0  0  0  0
   -2.7214    0.5231   -3.1275 H   0  0  0  0  0  0  0  0  0  0  0  0
   -2.9371    2.2218   -2.5748 H   0  0  0  0  0  0  0  0  0  0  0  0
   -4.2038   -0.9422    0.8130 H   0  0  0  0  0  0  0  0  0  0  0  0
   -3.6170   -3.6080    1.5019 H   0  0  0  0  0  0  0  0  0  0  0  0
   -1.1717   -3.6949    1.8336 H   0  0  0  0  0  0  0  0  0  0  0  0
   -0.9432   -4.2909    0.1638 H   0  0  0  0  0  0  0  0  0  0  0  0
   -2.2264   -5.5552    2.3624 H   0  0  0  0  0  0  0  0  0  0  0  0
   -2.9016   -4.7310   -1.3199 H   0  0  0  0  0  0  0  0  0  0  0  0
   -4.9462   -5.3569    0.5679 H   0  0  0  0  0  0  0  0  0  0  0  0
   -5.5856   -4.2073   -1.5743 H   0  0  0  0  0  0  0  0  0  0  0  0
   -3.2711   -2.8265   -2.4367 H   0  0  0  0  0  0  0  0  0  0  0  0
   -5.9245   -1.7715   -0.9486 H   0  0  0  0  0  0  0  0  0  0  0  0
   -6.2390   -2.1496    1.1874 H   0  0  0  0  0  0  0  0  0  0  0  0
   -1.7899    2.0549   -0.4553 H   0  0  0  0  0  0  0  0  0  0  0  0
   -2.9038    0.3583    1.7559 H   0  0  0  0  0  0  0  0  0  0  0  0
   -2.0645    1.8878    1.7134 H   0  0  0  0  0  0  0  0  0  0  0  0
   -1.0232   -0.9292    1.6461 H   0  0  0  0  0  0  0  0  0  0  0  0
   -0.4640    0.3396    2.7728 H   0  0  0  0  0  0  0  0  0  0  0  0
   -0.2391    2.7270    0.8514 H   0  0  0  0  0  0  0  0  0  0  0  0
    1.3058    2.4745    0.1133 H   0  0  0  0  0  0  0  0  0  0  0  0
    1.0617    2.2107    1.8655 H   0  0  0  0  0  0  0  0  0  0  0  0
   -0.8654   -0.7932   -0.7243 H   0  0  0  0  0  0  0  0  0  0  0  0
    0.4560    1.7646   -1.8314 H   0  0  0  0  0  0  0  0  0  0  0  0
   -0.6807   -0.4761   -3.1716 H   0  0  0  0  0  0  0  0  0  0  0  0
    2.0589    0.2493   -2.8687 H   0  0  0  0  0  0  0  0  0  0  0  0
    1.2729   -1.1861   -2.1490 H   0  0  0  0  0  0  0  0  0  0  0  0
    2.6419    1.0801   -0.6093 H   0  0  0  0  0  0  0  0  0  0  0  0
    3.1170   -2.3228   -2.0484 H   0  0  0  0  0  0  0  0  0  0  0  0
    3.6544   -2.8152   -0.4020 H   0  0  0  0  0  0  0  0  0  0  0  0
    4.7610   -2.5276   -1.6712 H   0  0  0  0  0  0  0  0  0  0  0  0
    4.5615    1.2131   -1.8807 H   0  0  0  0  0  0  0  0  0  0  0  0
    4.1599   -0.1230   -3.0089 H   0  0  0  0  0  0  0  0  0  0  0  0
    6.5579    0.3519   -2.9787 H   0  0  0  0  0  0  0  0  0  0  0  0
    6.2842   -1.3023   -2.4053 H   0  0  0  0  0  0  0  0  0  0  0  0
    6.7191    1.2113   -0.7258 H   0  0  0  0  0  0  0  0  0  0  0  0
    8.3759   -1.0285   -1.3320 H   0  0  0  0  0  0  0  0  0  0  0  0
    7.7222   -2.2425    0.5573 H   0  0  0  0  0  0  0  0  0  0  0  0
    6.3033   -2.6823   -0.3606 H   0  0  0  0  0  0  0  0  0  0  0  0
    6.1877   -2.5505    1.4156 H   0  0  0  0  0  0  0  0  0  0  0  0
    8.1282   -0.0329    1.5136 H   0  0  0  0  0  0  0  0  0  0  0  0
    6.8194   -0.4173    2.6029 H   0  0  0  0  0  0  0  0  0  0  0  0
    6.7988    1.1540    1.7067 H   0  0  0  0  0  0  0  0  0  0  0  0
    4.6673    0.8292    0.5768 H   0  0  0  0  0  0  0  0  0  0  0  0
    3.8359   -1.9128    1.6899 H   0  0  0  0  0  0  0  0  0  0  0  0
    4.6453    0.4566    3.0419 H   0  0  0  0  0  0  0  0  0  0  0  0
    2.7151    0.9218    1.9295 H   0  0  0  0  0  0  0  0  0  0  0  0
    1.9863   -0.4885    2.7504 H   0  0  0  0  0  0  0  0  0  0  0  0
    2.0234   -2.6178    0.7126 H   0  0  0  0  0  0  0  0  0  0  0  0
    0.6067   -2.2463   -0.2517 H   0  0  0  0  0  0  0  0  0  0  0  0
    0.6433   -2.1651    1.5433 H   0  0  0  0  0  0  0  0  0  0  0  0
   -1.5673    6.4906    1.8547 H   0  0  0  0  0  0  0  0  0  0  0  0
  1  2  1  0  0  0  0
  1 48  1  0  0  0  0
  1 49  1  0  0  0  0
  1 50  1  0  0  0  0
  2  3  1  0  0  0  0
  2  4  1  0  0  0  0
  2 46  1  0  0  0  0
  3 51  1  0  0  0  0
  3 52  1  0  0  0  0
  3 53  1  0  0  0  0
  4  5  2  0  0  0  0
  4 54  1  0  0  0  0
  5  6  1  0  0  0  0
  5 55  1  0  0  0  0
  6  7  1  0  0  0  0
  6 56  1  0  0  0  0
  6 57  1  0  0  0  0
  7  8  1  0  0  0  0
  7  9  1  1  0  0  0
  7 21  1  0  0  0  0
  8 58  1  0  0  0  0
  8 59  1  0  0  0  0
  8 60  1  0  0  0  0
 10  9  1  0  0  0  0
 10 11  1  0  0  0  0
 10 61  1  1  0  0  0
 11 12  1  0  0  0  0
 12 13  1  0  0  0  0
 12 15  1  0  0  0  0
 12 62  1  1  0  0  0
 13 14  1  0  0  0  0
 13 63  1  0  0  0  0
 13 64  1  0  0  0  0
 14 65  1  0  0  0  0
 15 16  1  0  0  0  0
 15 17  1  0  0  0  0
 15 66  1  6  0  0  0
 16 67  1  0  0  0  0
 17 18  1  0  0  0  0
 17 19  1  0  0  0  0
 17 68  1  6  0  0  0
 18 69  1  0  0  0  0
 19 20  1  0  0  0  0
 19 10  1  0  0  0  0
 19 70  1  6  0  0  0
 20 71  1  0  0  0  0
 21 22  1  0  0  0  0
 21 72  1  6  0  0  0
 22 23  1  0  0  0  0
 22 73  1  0  0  0  0
 22 74  1  0  0  0  0
 23 24  1  0  0  0  0
 23 75  1  0  0  0  0
 23 76  1  0  0  0  0
 24 25  1  1  0  0  0
 24 26  1  0  0  0  0
 25 77  1  0  0  0  0
 25 78  1  0  0  0  0
 25 79  1  0  0  0  0
 26 27  1  0  0  0  0
 26 21  1  0  0  0  0
 26 80  1  6  0  0  0
 27 28  1  0  0  0  0
 27 29  1  0  0  0  0
 27 81  1  1  0  0  0
 28 82  1  0  0  0  0
 29 83  1  0  0  0  0
 29 84  1  0  0  0  0
 30 29  1  0  0  0  0
 30 31  1  0  0  0  0
 30 85  1  1  0  0  0
 31 32  1  6  0  0  0
 31 33  1  0  0  0  0
 32 86  1  0  0  0  0
 32 87  1  0  0  0  0
 32 88  1  0  0  0  0
 33 34  1  0  0  0  0
 33 89  1  0  0  0  0
 33 90  1  0  0  0  0
 34 35  1  0  0  0  0
 34 91  1  0  0  0  0
 34 92  1  0  0  0  0
 35 36  1  0  0  0  0
 35 37  1  0  0  0  0
 35 93  1  1  0  0  0
 36 94  1  0  0  0  0
 37 38  1  0  0  0  0
 37 39  1  0  0  0  0
 38 95  1  0  0  0  0
 38 96  1  0  0  0  0
 38 97  1  0  0  0  0
 39 98  1  0  0  0  0
 39 99  1  0  0  0  0
 39100  1  0  0  0  0
 40 37  1  0  0  0  0
 40 41  1  0  0  0  0
 40 31  1  0  0  0  0
 40101  1  1  0  0  0
 41 42  1  0  0  0  0
 41 43  1  0  0  0  0
 41102  1  6  0  0  0
 42103  1  0  0  0  0
 43 44  1  0  0  0  0
 43104  1  0  0  0  0
 43105  1  0  0  0  0
 44 45  1  6  0  0  0
 44 30  1  0  0  0  0
 44 24  1  0  0  0  0
 45106  1  0  0  0  0
 45107  1  0  0  0  0
 45108  1  0  0  0  0
 46 47  1  0  0  0  0
 47109  1  0  0  0  0
M  END
>  <IDENTIFIER>
CNP0166337.4

>  <Energy>
1343.38

$$$$
