
 OpenBabel09092506303D

 72 76  0  0  0  0  0  0  0  0999 V2000
    6.0002    0.0278   -2.3042 C   0  0  0  0  0  0  0  0  0  0  0  0
    5.9611    0.6099   -0.9181 C   0  0  0  0  0  0  0  0  0  0  0  0
    4.9584    0.4258   -0.0222 C   0  0  0  0  0  0  0  0  0  0  0  0
    5.0633    1.0790    1.3329 C   0  0  0  0  0  0  0  0  0  0  0  0
    3.7367   -0.3885   -0.2941 C   0  0  0  0  0  0  0  0  0  0  0  0
    3.5743   -0.9255   -1.3798 O   0  0  0  0  0  0  0  0  0  0  0  0
    2.7957   -0.5250    0.6830 O   0  0  0  0  0  0  0  0  0  0  0  0
    1.5911   -1.1930    0.5219 C   0  0  1  0  0  0  0  0  0  0  0  0
    1.3903   -2.3207    1.4790 C   0  0  0  0  0  0  0  0  0  0  0  0
    2.4620   -3.2343    1.9901 C   0  0  0  0  0  0  0  0  0  0  0  0
    0.0927   -2.4620    1.7542 C   0  0  0  0  0  0  0  0  0  0  0  0
   -0.7450   -1.4141    1.0334 C   0  0  1  0  0  0  0  0  0  0  0  0
   -1.7877   -0.8426    1.9548 C   0  0  0  0  0  0  0  0  0  0  0  0
   -1.8977   -1.2725    3.0971 O   0  0  0  0  0  0  0  0  0  0  0  0
   -2.7903    0.1430    1.4791 C   0  0  1  0  0  0  0  0  0  0  0  0
   -2.4039    1.2074    0.4687 C   0  0  0  0  0  0  0  0  0  0  0  0
   -1.2451    1.4931   -0.1905 C   0  0  0  0  0  0  0  0  0  0  0  0
   -1.2757    2.6763   -1.1227 C   0  0  0  0  0  0  0  0  0  0  0  0
   -0.0286    2.8740   -1.7632 O   0  0  0  0  0  0  0  0  0  0  0  0
    1.0632    2.9161   -0.8424 C   0  0  0  0  0  0  0  0  0  0  0  0
    1.0483    4.2242   -0.0268 C   0  0  0  0  0  0  0  0  0  0  0  0
    2.3521    2.8730   -1.6695 C   0  0  0  0  0  0  0  0  0  0  0  0
    1.1043    1.8180    0.0668 O   0  0  0  0  0  0  0  0  0  0  0  0
    0.1217    0.8232   -0.1697 C   0  0  1  0  0  0  0  0  0  0  0  0
    0.3616   -0.3198    0.8494 C   0  0  2  0  0  0  0  0  0  0  0  0
    0.5503    0.2826    2.1302 O   0  0  0  0  0  0  0  0  0  0  0  0
   -4.1437   -0.5956    1.3056 C   0  0  2  0  0  0  0  0  0  0  0  0
   -4.1857   -1.8933    0.4158 C   0  0  2  0  0  0  0  0  0  0  0  0
   -2.8741   -2.6912    0.0723 C   0  0  0  0  0  0  0  0  0  0  0  0
   -1.4300   -2.1483   -0.2124 C   0  0  1  0  0  0  0  0  0  0  0  0
   -1.2560   -1.5659   -1.6254 C   0  0  0  0  0  0  0  0  0  0  0  0
   -4.9207   -0.6448   -0.0330 C   0  0  0  0  0  0  0  0  0  0  0  0
   -6.4393   -0.6197    0.2157 C   0  0  0  0  0  0  0  0  0  0  0  0
   -4.5323   -0.0003   -1.3577 C   0  0  0  0  0  0  0  0  0  0  0  0
    6.9360    0.3373   -2.8143 H   0  0  0  0  0  0  0  0  0  0  0  0
    5.1404    0.3987   -2.9014 H   0  0  0  0  0  0  0  0  0  0  0  0
    5.9816   -1.0812   -2.2558 H   0  0  0  0  0  0  0  0  0  0  0  0
    6.8156    1.2203   -0.6376 H   0  0  0  0  0  0  0  0  0  0  0  0
    6.0001    1.6656    1.4502 H   0  0  0  0  0  0  0  0  0  0  0  0
    5.0425    0.2997    2.1234 H   0  0  0  0  0  0  0  0  0  0  0  0
    4.2046    1.7678    1.4784 H   0  0  0  0  0  0  0  0  0  0  0  0
    1.4960   -1.6241   -0.4957 H   0  0  0  0  0  0  0  0  0  0  0  0
    3.4528   -2.9355    1.5893 H   0  0  0  0  0  0  0  0  0  0  0  0
    2.2483   -4.2773    1.6764 H   0  0  0  0  0  0  0  0  0  0  0  0
    2.4949   -3.1839    3.0989 H   0  0  0  0  0  0  0  0  0  0  0  0
   -0.3050   -3.2696    2.3572 H   0  0  0  0  0  0  0  0  0  0  0  0
   -2.9834    0.7948    2.3609 H   0  0  0  0  0  0  0  0  0  0  0  0
   -3.2312    1.8872    0.2734 H   0  0  0  0  0  0  0  0  0  0  0  0
   -1.5880    3.6010   -0.5928 H   0  0  0  0  0  0  0  0  0  0  0  0
   -2.0349    2.4810   -1.9102 H   0  0  0  0  0  0  0  0  0  0  0  0
    1.0422    5.1073   -0.7009 H   0  0  0  0  0  0  0  0  0  0  0  0
    1.9451    4.2796    0.6283 H   0  0  0  0  0  0  0  0  0  0  0  0
    0.1609    4.2740    0.6366 H   0  0  0  0  0  0  0  0  0  0  0  0
    2.3915    3.7327   -2.3731 H   0  0  0  0  0  0  0  0  0  0  0  0
    2.3945    1.9315   -2.2572 H   0  0  0  0  0  0  0  0  0  0  0  0
    3.2444    2.9126   -1.0069 H   0  0  0  0  0  0  0  0  0  0  0  0
    0.3104    0.4248   -1.1837 H   0  0  0  0  0  0  0  0  0  0  0  0
    1.4371    0.7243    2.1790 H   0  0  0  0  0  0  0  0  0  0  0  0
   -4.5561   -0.9830    2.2643 H   0  0  0  0  0  0  0  0  0  0  0  0
   -4.9781   -2.6200    0.7064 H   0  0  0  0  0  0  0  0  0  0  0  0
   -3.1488   -3.3500   -0.7798 H   0  0  0  0  0  0  0  0  0  0  0  0
   -2.7477   -3.3727    0.9425 H   0  0  0  0  0  0  0  0  0  0  0  0
   -0.8527   -3.0914   -0.3703 H   0  0  0  0  0  0  0  0  0  0  0  0
   -1.5875   -0.5417   -1.7518 H   0  0  0  0  0  0  0  0  0  0  0  0
   -1.7781   -2.2032   -2.3708 H   0  0  0  0  0  0  0  0  0  0  0  0
   -0.1898   -1.5839   -1.9220 H   0  0  0  0  0  0  0  0  0  0  0  0
   -6.9632   -1.1549   -0.6041 H   0  0  0  0  0  0  0  0  0  0  0  0
   -6.7924    0.4332    0.2371 H   0  0  0  0  0  0  0  0  0  0  0  0
   -6.7250   -1.0963    1.1786 H   0  0  0  0  0  0  0  0  0  0  0  0
   -5.0211   -0.5476   -2.1914 H   0  0  0  0  0  0  0  0  0  0  0  0
   -3.4757   -0.0016   -1.5391 H   0  0  0  0  0  0  0  0  0  0  0  0
   -4.8761    1.0545   -1.3778 H   0  0  0  0  0  0  0  0  0  0  0  0
  1  2  1  0  0  0  0
  1 35  1  0  0  0  0
  1 36  1  0  0  0  0
  1 37  1  0  0  0  0
  2  3  2  0  0  0  0
  2 38  1  0  0  0  0
  3  4  1  0  0  0  0
  3  5  1  0  0  0  0
  4 39  1  0  0  0  0
  4 40  1  0  0  0  0
  4 41  1  0  0  0  0
  5  6  2  0  0  0  0
  5  7  1  0  0  0  0
  8  7  1  0  0  0  0
  8  9  1  0  0  0  0
  8 42  1  6  0  0  0
  9 10  1  0  0  0  0
  9 11  2  0  0  0  0
 10 43  1  0  0  0  0
 10 44  1  0  0  0  0
 10 45  1  0  0  0  0
 11 46  1  0  0  0  0
 12 11  1  1  0  0  0
 12 13  1  0  0  0  0
 13 14  2  0  0  0  0
 13 15  1  0  0  0  0
 15 16  1  0  0  0  0
 15 27  1  0  0  0  0
 15 47  1  1  0  0  0
 16 17  2  0  0  0  0
 16 48  1  0  0  0  0
 17 18  1  0  0  0  0
 18 19  1  0  0  0  0
 18 49  1  0  0  0  0
 18 50  1  0  0  0  0
 19 20  1  0  0  0  0
 20 21  1  0  0  0  0
 20 22  1  0  0  0  0
 20 23  1  0  0  0  0
 21 51  1  0  0  0  0
 21 52  1  0  0  0  0
 21 53  1  0  0  0  0
 22 54  1  0  0  0  0
 22 55  1  0  0  0  0
 22 56  1  0  0  0  0
 24 23  1  0  0  0  0
 24 25  1  0  0  0  0
 24 17  1  0  0  0  0
 24 57  1  6  0  0  0
 25 26  1  1  0  0  0
 25  8  1  0  0  0  0
 25 12  1  0  0  0  0
 26 58  1  0  0  0  0
 27 28  1  0  0  0  0
 27 32  1  0  0  0  0
 27 59  1  1  0  0  0
 28 29  1  0  0  0  0
 28 32  1  0  0  0  0
 28 60  1  1  0  0  0
 29 30  1  0  0  0  0
 29 61  1  0  0  0  0
 29 62  1  0  0  0  0
 30 31  1  0  0  0  0
 30 12  1  0  0  0  0
 30 63  1  6  0  0  0
 31 64  1  0  0  0  0
 31 65  1  0  0  0  0
 31 66  1  0  0  0  0
 32 33  1  0  0  0  0
 32 34  1  0  0  0  0
 33 67  1  0  0  0  0
 33 68  1  0  0  0  0
 33 69  1  0  0  0  0
 34 70  1  0  0  0  0
 34 71  1  0  0  0  0
 34 72  1  0  0  0  0
M  END
>  <IDENTIFIER>
CNP0008052.3

>  <Energy>
2389.26

$$$$
