
 OpenBabel09062505093D

 55 56  0  0  0  0  0  0  0  0999 V2000
    5.5645   -1.4946    1.5896 C   0  0  0  0  0  0  0  0  0  0  0  0
    4.4535   -0.8099    1.2911 C   0  0  0  0  0  0  0  0  0  0  0  0
    4.3484    0.1073    0.0764 C   0  0  2  0  0  0  0  0  0  0  0  0
    4.6131   -0.6691   -1.2344 C   0  0  0  0  0  0  0  0  0  0  0  0
    5.2891    1.1503    0.2024 O   0  0  0  0  0  0  0  0  0  0  0  0
    2.9482    0.7813    0.0190 C   0  0  0  0  0  0  0  0  0  0  0  0
    1.7334   -0.1773   -0.1280 C   0  0  0  0  0  0  0  0  0  0  0  0
    0.3807    0.6043   -0.1183 C   0  0  1  0  0  0  0  0  0  0  0  0
    0.1610    1.5042   -1.3401 C   0  0  0  0  0  0  0  0  0  0  0  0
    0.9051    1.4833   -2.4643 C   0  0  0  0  0  0  0  0  0  0  0  0
   -1.0128    2.4379   -1.2447 C   0  0  0  0  0  0  0  0  0  0  0  0
   -2.2885    1.6246   -1.0262 C   0  0  0  0  0  0  0  0  0  0  0  0
   -2.1654    0.7032    0.2216 C   0  0  2  0  0  0  0  0  0  0  0  0
   -0.9190   -0.2833    0.0866 C   0  0  1  0  0  0  0  0  0  0  0  0
   -1.0533   -1.2779   -1.1051 C   0  0  0  0  0  0  0  0  0  0  0  0
   -0.7996   -1.0880    1.4187 C   0  0  0  0  0  0  0  0  0  0  0  0
   -2.0915   -1.8105    1.8089 C   0  0  0  0  0  0  0  0  0  0  0  0
   -3.2328   -0.8013    1.9679 C   0  0  0  0  0  0  0  0  0  0  0  0
   -3.5257    0.0088    0.6663 C   0  0  1  0  0  0  0  0  0  0  0  0
   -4.5806    1.0769    1.0564 C   0  0  0  0  0  0  0  0  0  0  0  0
   -4.1713   -0.8808   -0.4118 C   0  0  0  0  0  0  0  0  0  0  0  0
   -4.3492   -2.0720   -0.2063 O   0  0  0  0  0  0  0  0  0  0  0  0
   -4.6366   -0.3710   -1.5748 O   0  0  0  0  0  0  0  0  0  0  0  0
    5.5878   -2.1296    2.4695 H   0  0  0  0  0  0  0  0  0  0  0  0
    6.4545   -1.4342    0.9726 H   0  0  0  0  0  0  0  0  0  0  0  0
    3.6101   -0.9211    1.9643 H   0  0  0  0  0  0  0  0  0  0  0  0
    5.6399   -1.0909   -1.2450 H   0  0  0  0  0  0  0  0  0  0  0  0
    4.5180    0.0102   -2.1084 H   0  0  0  0  0  0  0  0  0  0  0  0
    3.9074   -1.5162   -1.3555 H   0  0  0  0  0  0  0  0  0  0  0  0
    6.2024    0.7673    0.1351 H   0  0  0  0  0  0  0  0  0  0  0  0
    2.9595    1.5115   -0.8142 H   0  0  0  0  0  0  0  0  0  0  0  0
    2.8152    1.3688    0.9549 H   0  0  0  0  0  0  0  0  0  0  0  0
    1.7705   -0.8501    0.7422 H   0  0  0  0  0  0  0  0  0  0  0  0
    1.8062   -0.8050   -1.0367 H   0  0  0  0  0  0  0  0  0  0  0  0
    0.4477    1.2753    0.7682 H   0  0  0  0  0  0  0  0  0  0  0  0
    1.7427    0.8125   -2.6026 H   0  0  0  0  0  0  0  0  0  0  0  0
    0.6749    2.1446   -3.2936 H   0  0  0  0  0  0  0  0  0  0  0  0
   -1.1305    3.0626   -2.1575 H   0  0  0  0  0  0  0  0  0  0  0  0
   -0.8532    3.1221   -0.3832 H   0  0  0  0  0  0  0  0  0  0  0  0
   -2.4811    1.0248   -1.9369 H   0  0  0  0  0  0  0  0  0  0  0  0
   -3.1129    2.3543   -0.9072 H   0  0  0  0  0  0  0  0  0  0  0  0
   -1.9162    1.3828    1.0703 H   0  0  0  0  0  0  0  0  0  0  0  0
   -1.9349   -1.9320   -1.0296 H   0  0  0  0  0  0  0  0  0  0  0  0
   -0.1768   -1.9562   -1.1459 H   0  0  0  0  0  0  0  0  0  0  0  0
   -1.1111   -0.7557   -2.0802 H   0  0  0  0  0  0  0  0  0  0  0  0
   -0.5435   -0.3877    2.2449 H   0  0  0  0  0  0  0  0  0  0  0  0
   -0.0012   -1.8549    1.3602 H   0  0  0  0  0  0  0  0  0  0  0  0
   -1.9327   -2.3270    2.7804 H   0  0  0  0  0  0  0  0  0  0  0  0
   -2.3408   -2.5940    1.0688 H   0  0  0  0  0  0  0  0  0  0  0  0
   -2.9373   -0.0995    2.7810 H   0  0  0  0  0  0  0  0  0  0  0  0
   -4.1499   -1.3290    2.3120 H   0  0  0  0  0  0  0  0  0  0  0  0
   -5.5010    0.5892    1.4460 H   0  0  0  0  0  0  0  0  0  0  0  0
   -4.8897    1.7096    0.2025 H   0  0  0  0  0  0  0  0  0  0  0  0
   -4.1882    1.7493    1.8498 H   0  0  0  0  0  0  0  0  0  0  0  0
   -4.6401    0.5712   -1.7819 H   0  0  0  0  0  0  0  0  0  0  0  0
  1  2  2  0  0  0  0
  1 24  1  0  0  0  0
  1 25  1  0  0  0  0
  2 26  1  0  0  0  0
  3  2  1  1  0  0  0
  3  4  1  0  0  0  0
  3  5  1  0  0  0  0
  3  6  1  0  0  0  0
  4 27  1  0  0  0  0
  4 28  1  0  0  0  0
  4 29  1  0  0  0  0
  5 30  1  0  0  0  0
  6  7  1  0  0  0  0
  6 31  1  0  0  0  0
  6 32  1  0  0  0  0
  7 33  1  0  0  0  0
  7 34  1  0  0  0  0
  8  7  1  0  0  0  0
  8  9  1  0  0  0  0
  8 35  1  1  0  0  0
  9 10  2  0  0  0  0
  9 11  1  0  0  0  0
 10 36  1  0  0  0  0
 10 37  1  0  0  0  0
 11 12  1  0  0  0  0
 11 38  1  0  0  0  0
 11 39  1  0  0  0  0
 12 40  1  0  0  0  0
 12 41  1  0  0  0  0
 13 12  1  0  0  0  0
 13 14  1  0  0  0  0
 13 42  1  1  0  0  0
 14 15  1  6  0  0  0
 14 16  1  0  0  0  0
 14  8  1  0  0  0  0
 15 43  1  0  0  0  0
 15 44  1  0  0  0  0
 15 45  1  0  0  0  0
 16 17  1  0  0  0  0
 16 46  1  0  0  0  0
 16 47  1  0  0  0  0
 17 18  1  0  0  0  0
 17 48  1  0  0  0  0
 17 49  1  0  0  0  0
 18 19  1  0  0  0  0
 18 50  1  0  0  0  0
 18 51  1  0  0  0  0
 19 20  1  0  0  0  0
 19 21  1  6  0  0  0
 19 13  1  0  0  0  0
 20 52  1  0  0  0  0
 20 53  1  0  0  0  0
 20 54  1  0  0  0  0
 21 22  2  0  0  0  0
 21 23  1  0  0  0  0
 23 55  1  0  0  0  0
M  END
>  <IDENTIFIER>
CNP0182946.3

>  <Energy>
310.975

$$$$
