
 OpenBabel09112523533D

174176  0  0  0  0  0  0  0  0999 V2000
   -7.2065   -7.6679   -2.2259 C   0  0  0  0  0  0  0  0  0  0  0  0
   -6.4320   -6.4630   -1.6848 C   0  0  0  0  0  0  0  0  0  0  0  0
   -6.1642   -6.5249   -0.1549 C   0  0  2  0  0  0  0  0  0  0  0  0
   -7.4978   -6.5722    0.6207 C   0  0  0  0  0  0  0  0  0  0  0  0
   -5.2454   -5.3663    0.4017 C   0  0  1  0  0  0  0  0  0  0  0  0
   -3.7835   -5.4411   -0.0583 C   0  0  0  0  0  0  0  0  0  0  0  0
   -3.4495   -6.2683   -0.8957 O   0  0  0  0  0  0  0  0  0  0  0  0
   -2.8425   -4.6192    0.4875 N   0  0  0  0  0  0  0  0  0  0  0  0
   -1.4333   -4.6956    0.0938 C   0  0  0  0  0  0  0  0  0  0  0  0
   -0.5109   -3.8762    0.9947 C   0  0  0  0  0  0  0  0  0  0  0  0
   -1.0266   -3.2394    1.9052 O   0  0  0  0  0  0  0  0  0  0  0  0
    0.8706   -3.9156    0.8752 N   0  0  0  0  0  0  0  0  0  0  0  0
    1.4722   -4.6904   -0.2062 C   0  0  0  0  0  0  0  0  0  0  0  0
    1.7022   -3.3231    1.9527 C   0  0  1  0  0  0  0  0  0  0  0  0
    2.1105   -4.4519    2.9740 C   0  0  0  0  0  0  0  0  0  0  0  0
    2.5889   -3.8930    4.3283 C   0  0  0  0  0  0  0  0  0  0  0  0
    3.1582   -5.4496    2.4518 C   0  0  0  0  0  0  0  0  0  0  0  0
    2.8605   -2.3819    1.5631 C   0  0  0  0  0  0  0  0  0  0  0  0
    3.4141   -1.8290    2.4983 O   0  0  0  0  0  0  0  0  0  0  0  0
    3.2974   -2.1093    0.2915 N   0  0  0  0  0  0  0  0  0  0  0  0
    4.4687   -1.2437    0.0668 C   0  0  1  0  0  0  0  0  0  0  0  0
    5.6359   -2.0648   -0.5420 C   0  0  0  0  0  0  0  0  0  0  0  0
    6.9743   -1.3595   -0.3910 C   0  0  0  0  0  0  0  0  0  0  0  0
    7.7313   -0.9647   -1.5067 C   0  0  0  0  0  0  0  0  0  0  0  0
    8.9568   -0.3013   -1.3352 C   0  0  0  0  0  0  0  0  0  0  0  0
    9.4459   -0.0307   -0.0395 C   0  0  0  0  0  0  0  0  0  0  0  0
   10.6121    0.6275    0.1910 O   0  0  0  0  0  0  0  0  0  0  0  0
   11.4292    1.1934   -0.7648 C   0  0  0  0  0  0  0  0  0  0  0  0
    8.6996   -0.4453    1.0662 C   0  0  0  0  0  0  0  0  0  0  0  0
    7.4799   -1.1009    0.8962 C   0  0  0  0  0  0  0  0  0  0  0  0
    4.1339   -0.0251   -0.7707 C   0  0  0  0  0  0  0  0  0  0  0  0
    3.0028    0.1525   -1.2005 O   0  0  0  0  0  0  0  0  0  0  0  0
    5.1209    0.8781   -1.0129 O   0  0  0  0  0  0  0  0  0  0  0  0
    5.0155    2.1258   -1.6219 C   0  0  2  0  0  0  0  0  0  0  0  0
    6.4467    2.3689   -2.2200 C   0  0  0  0  0  0  0  0  0  0  0  0
    7.4709    2.7098   -1.1316 C   0  0  0  0  0  0  0  0  0  0  0  0
    6.5802    3.3409   -3.3948 C   0  0  0  0  0  0  0  0  0  0  0  0
    4.4733    3.1216   -0.5646 C   0  0  0  0  0  0  0  0  0  0  0  0
    4.3437    2.6732    0.5702 O   0  0  0  0  0  0  0  0  0  0  0  0
    4.0932    4.4338   -0.7779 N   0  0  0  0  0  0  0  0  0  0  0  0
    4.1360    5.1036   -2.0656 C   0  0  0  0  0  0  0  0  0  0  0  0
    4.9717    6.4089   -1.9714 C   0  0  0  0  0  0  0  0  0  0  0  0
    4.7941    7.1268   -0.6135 C   0  0  0  0  0  0  0  0  0  0  0  0
    3.4564    6.7410    0.0149 C   0  0  0  0  0  0  0  0  0  0  0  0
    3.5181    5.2168    0.3388 C   0  0  1  0  0  0  0  0  0  0  0  0
    2.1010    4.7144    0.6026 C   0  0  0  0  0  0  0  0  0  0  0  0
    1.3817    4.6635   -0.3852 O   0  0  0  0  0  0  0  0  0  0  0  0
    1.6011    4.2866    1.8169 N   0  0  0  0  0  0  0  0  0  0  0  0
    2.3960    4.2519    3.0445 C   0  0  0  0  0  0  0  0  0  0  0  0
    0.2249    3.7525    1.9119 C   0  0  1  0  0  0  0  0  0  0  0  0
   -0.8727    4.8866    1.9016 C   0  0  0  0  0  0  0  0  0  0  0  0
   -0.7169    5.7885    3.1421 C   0  0  0  0  0  0  0  0  0  0  0  0
   -0.9063    5.8181    0.6699 C   0  0  0  0  0  0  0  0  0  0  0  0
    0.1433    2.4536    1.0735 C   0  0  0  0  0  0  0  0  0  0  0  0
    1.0744    1.6848    1.2786 O   0  0  0  0  0  0  0  0  0  0  0  0
   -0.8290    1.9960    0.2088 N   0  0  0  0  0  0  0  0  0  0  0  0
   -2.0701    2.5970   -0.2632 C   0  0  1  0  0  0  0  0  0  0  0  0
   -1.8951    2.8257   -1.8181 C   0  0  0  0  0  0  0  0  0  0  0  0
   -3.0169    3.6537   -2.4793 C   0  0  0  0  0  0  0  0  0  0  0  0
   -1.6881    1.5241   -2.6166 C   0  0  0  0  0  0  0  0  0  0  0  0
   -3.3517    1.7892    0.1215 C   0  0  0  0  0  0  0  0  0  0  0  0
   -4.3365    2.0159   -0.5626 O   0  0  0  0  0  0  0  0  0  0  0  0
   -3.5161    0.9106    1.1890 N   0  0  0  0  0  0  0  0  0  0  0  0
   -2.5060    0.5833    2.1914 C   0  0  0  0  0  0  0  0  0  0  0  0
   -4.8251    0.2670    1.4323 C   0  0  1  0  0  0  0  0  0  0  0  0
   -5.8158    1.3803    1.9226 C   0  0  0  0  0  0  0  0  0  0  0  0
   -7.0361    0.9356    2.6948 C   0  0  0  0  0  0  0  0  0  0  0  0
   -8.1371    1.3609    2.3791 O   0  0  0  0  0  0  0  0  0  0  0  0
   -6.9294    0.1500    3.7872 O   0  0  0  0  0  0  0  0  0  0  0  0
   -5.1005   -0.7644    0.3054 C   0  0  0  0  0  0  0  0  0  0  0  0
   -4.1642   -1.5256    0.1060 O   0  0  0  0  0  0  0  0  0  0  0  0
   -6.2548   -0.9304   -0.4476 N   0  0  0  0  0  0  0  0  0  0  0  0
   -7.4272   -0.0952   -0.2532 C   0  0  0  0  0  0  0  0  0  0  0  0
   -6.4183   -2.0497   -1.4103 C   0  0  1  0  0  0  0  0  0  0  0  0
   -6.0899   -1.6030   -2.8790 C   0  0  0  0  0  0  0  0  0  0  0  0
   -4.6498   -1.0890   -3.0164 C   0  0  0  0  0  0  0  0  0  0  0  0
   -7.0585   -0.5405   -3.4144 C   0  0  0  0  0  0  0  0  0  0  0  0
   -5.7250   -3.3841   -1.0360 C   0  0  0  0  0  0  0  0  0  0  0  0
   -5.0479   -3.9075   -1.9102 O   0  0  0  0  0  0  0  0  0  0  0  0
   -5.8425   -4.0299    0.1864 N   0  0  0  0  0  0  0  0  0  0  0  0
   -6.5330   -3.4411    1.3336 C   0  0  0  0  0  0  0  0  0  0  0  0
   -7.3087   -7.5726   -3.3274 H   0  0  0  0  0  0  0  0  0  0  0  0
   -8.2314   -7.7181   -1.8063 H   0  0  0  0  0  0  0  0  0  0  0  0
   -6.6645   -8.6097   -1.9981 H   0  0  0  0  0  0  0  0  0  0  0  0
   -7.0103   -5.5494   -1.9368 H   0  0  0  0  0  0  0  0  0  0  0  0
   -5.4699   -6.4374   -2.2317 H   0  0  0  0  0  0  0  0  0  0  0  0
   -5.6356   -7.4786    0.0698 H   0  0  0  0  0  0  0  0  0  0  0  0
   -8.1282   -5.6913    0.3792 H   0  0  0  0  0  0  0  0  0  0  0  0
   -7.3115   -6.6080    1.7154 H   0  0  0  0  0  0  0  0  0  0  0  0
   -8.0790   -7.4827    0.3767 H   0  0  0  0  0  0  0  0  0  0  0  0
   -5.1959   -5.5668    1.4972 H   0  0  0  0  0  0  0  0  0  0  0  0
   -3.1489   -3.9663    1.2236 H   0  0  0  0  0  0  0  0  0  0  0  0
   -1.3233   -4.3898   -0.9686 H   0  0  0  0  0  0  0  0  0  0  0  0
   -1.1141   -5.7550    0.1998 H   0  0  0  0  0  0  0  0  0  0  0  0
    1.1452   -5.7496   -0.1586 H   0  0  0  0  0  0  0  0  0  0  0  0
    2.5793   -4.6850   -0.1603 H   0  0  0  0  0  0  0  0  0  0  0  0
    1.1742   -4.2626   -1.1871 H   0  0  0  0  0  0  0  0  0  0  0  0
    1.0504   -2.6519    2.5516 H   0  0  0  0  0  0  0  0  0  0  0  0
    1.1838   -5.0234    3.2066 H   0  0  0  0  0  0  0  0  0  0  0  0
    3.5707   -3.3865    4.2533 H   0  0  0  0  0  0  0  0  0  0  0  0
    2.7109   -4.7236    5.0559 H   0  0  0  0  0  0  0  0  0  0  0  0
    1.8371   -3.1888    4.7436 H   0  0  0  0  0  0  0  0  0  0  0  0
    4.0991   -4.9263    2.1788 H   0  0  0  0  0  0  0  0  0  0  0  0
    2.7863   -6.0263    1.5876 H   0  0  0  0  0  0  0  0  0  0  0  0
    3.3873   -6.2030    3.2356 H   0  0  0  0  0  0  0  0  0  0  0  0
    2.8456   -2.5284   -0.5298 H   0  0  0  0  0  0  0  0  0  0  0  0
    4.8281   -0.8454    1.0351 H   0  0  0  0  0  0  0  0  0  0  0  0
    5.4053   -2.3044   -1.6032 H   0  0  0  0  0  0  0  0  0  0  0  0
    5.7316   -3.0278    0.0061 H   0  0  0  0  0  0  0  0  0  0  0  0
    7.3702   -1.1571   -2.5088 H   0  0  0  0  0  0  0  0  0  0  0  0
    9.5109    0.0049   -2.2124 H   0  0  0  0  0  0  0  0  0  0  0  0
   12.2987    1.6650   -0.2613 H   0  0  0  0  0  0  0  0  0  0  0  0
   10.8779    1.9809   -1.3204 H   0  0  0  0  0  0  0  0  0  0  0  0
   11.8021    0.4175   -1.4651 H   0  0  0  0  0  0  0  0  0  0  0  0
    9.0640   -0.2499    2.0675 H   0  0  0  0  0  0  0  0  0  0  0  0
    6.9287   -1.4067    1.7765 H   0  0  0  0  0  0  0  0  0  0  0  0
    4.2958    2.0319   -2.4636 H   0  0  0  0  0  0  0  0  0  0  0  0
    6.7319    1.3970   -2.6830 H   0  0  0  0  0  0  0  0  0  0  0  0
    7.2454    3.7029   -0.6885 H   0  0  0  0  0  0  0  0  0  0  0  0
    8.4929    2.7397   -1.5655 H   0  0  0  0  0  0  0  0  0  0  0  0
    7.4504    1.9499   -0.3253 H   0  0  0  0  0  0  0  0  0  0  0  0
    6.5091    4.3882   -3.0833 H   0  0  0  0  0  0  0  0  0  0  0  0
    5.8332    3.1021   -4.1828 H   0  0  0  0  0  0  0  0  0  0  0  0
    7.5883    3.2355   -3.8496 H   0  0  0  0  0  0  0  0  0  0  0  0
    3.0893    5.3957   -2.2991 H   0  0  0  0  0  0  0  0  0  0  0  0
    4.3962    4.4614   -2.9140 H   0  0  0  0  0  0  0  0  0  0  0  0
    4.6254    7.0584   -2.8041 H   0  0  0  0  0  0  0  0  0  0  0  0
    6.0609    6.2543   -2.0998 H   0  0  0  0  0  0  0  0  0  0  0  0
    4.9235    8.2225   -0.7429 H   0  0  0  0  0  0  0  0  0  0  0  0
    5.5870    6.7857    0.0917 H   0  0  0  0  0  0  0  0  0  0  0  0
    2.6457    7.0017   -0.6996 H   0  0  0  0  0  0  0  0  0  0  0  0
    3.2748    7.3046    0.9567 H   0  0  0  0  0  0  0  0  0  0  0  0
    4.2293    5.1506    1.1787 H   0  0  0  0  0  0  0  0  0  0  0  0
    3.4137    4.6505    2.9596 H   0  0  0  0  0  0  0  0  0  0  0  0
    2.4837    3.2018    3.3969 H   0  0  0  0  0  0  0  0  0  0  0  0
    1.8957    4.8433    3.8376 H   0  0  0  0  0  0  0  0  0  0  0  0
    0.1010    3.3304    2.9369 H   0  0  0  0  0  0  0  0  0  0  0  0
   -1.8587    4.3972    2.0324 H   0  0  0  0  0  0  0  0  0  0  0  0
    0.2419    6.3483    3.1105 H   0  0  0  0  0  0  0  0  0  0  0  0
   -0.7526    5.1855    4.0743 H   0  0  0  0  0  0  0  0  0  0  0  0
   -1.5453    6.5280    3.1910 H   0  0  0  0  0  0  0  0  0  0  0  0
    0.0085    6.4458    0.6215 H   0  0  0  0  0  0  0  0  0  0  0  0
   -1.7676    6.5155    0.7509 H   0  0  0  0  0  0  0  0  0  0  0  0
   -1.0099    5.2778   -0.2869 H   0  0  0  0  0  0  0  0  0  0  0  0
   -0.6564    1.0509   -0.1634 H   0  0  0  0  0  0  0  0  0  0  0  0
   -2.2319    3.5864    0.1516 H   0  0  0  0  0  0  0  0  0  0  0  0
   -0.9728    3.4360   -1.9444 H   0  0  0  0  0  0  0  0  0  0  0  0
   -3.9788    3.1113   -2.5510 H   0  0  0  0  0  0  0  0  0  0  0  0
   -2.7300    3.8964   -3.5255 H   0  0  0  0  0  0  0  0  0  0  0  0
   -3.1678    4.6096   -1.9368 H   0  0  0  0  0  0  0  0  0  0  0  0
   -2.5565    0.8533   -2.4982 H   0  0  0  0  0  0  0  0  0  0  0  0
   -0.7749    0.9828   -2.3025 H   0  0  0  0  0  0  0  0  0  0  0  0
   -1.5585    1.7487   -3.6966 H   0  0  0  0  0  0  0  0  0  0  0  0
   -1.5953    1.1556    2.1623 H   0  0  0  0  0  0  0  0  0  0  0  0
   -2.2579   -0.4981    2.1320 H   0  0  0  0  0  0  0  0  0  0  0  0
   -2.9093    0.8002    3.2035 H   0  0  0  0  0  0  0  0  0  0  0  0
   -4.7165   -0.3895    2.3244 H   0  0  0  0  0  0  0  0  0  0  0  0
   -6.0946    2.0809    1.1119 H   0  0  0  0  0  0  0  0  0  0  0  0
   -5.2520    1.9876    2.6645 H   0  0  0  0  0  0  0  0  0  0  0  0
   -6.0775   -0.1669    4.1148 H   0  0  0  0  0  0  0  0  0  0  0  0
   -7.1895    0.9695   -0.4362 H   0  0  0  0  0  0  0  0  0  0  0  0
   -7.8548   -0.3016    0.7340 H   0  0  0  0  0  0  0  0  0  0  0  0
   -8.2514   -0.3526   -0.9503 H   0  0  0  0  0  0  0  0  0  0  0  0
   -7.4875   -2.3606   -1.4032 H   0  0  0  0  0  0  0  0  0  0  0  0
   -6.2180   -2.4864   -3.5441 H   0  0  0  0  0  0  0  0  0  0  0  0
   -4.5254   -0.1757   -2.4028 H   0  0  0  0  0  0  0  0  0  0  0  0
   -4.4284   -0.8368   -4.0752 H   0  0  0  0  0  0  0  0  0  0  0  0
   -3.9087   -1.8448   -2.6870 H   0  0  0  0  0  0  0  0  0  0  0  0
   -6.9684    0.4120   -2.8547 H   0  0  0  0  0  0  0  0  0  0  0  0
   -8.1035   -0.9122   -3.3561 H   0  0  0  0  0  0  0  0  0  0  0  0
   -6.8325   -0.3288   -4.4816 H   0  0  0  0  0  0  0  0  0  0  0  0
   -7.0443   -2.4973    1.1204 H   0  0  0  0  0  0  0  0  0  0  0  0
   -5.8064   -3.2716    2.1568 H   0  0  0  0  0  0  0  0  0  0  0  0
   -7.3225   -4.1141    1.7125 H   0  0  0  0  0  0  0  0  0  0  0  0
  1  2  1  0  0  0  0
  1 82  1  0  0  0  0
  1 83  1  0  0  0  0
  1 84  1  0  0  0  0
  2  3  1  0  0  0  0
  2 85  1  0  0  0  0
  2 86  1  0  0  0  0
  3  4  1  0  0  0  0
  3  5  1  0  0  0  0
  3 87  1  1  0  0  0
  4 88  1  0  0  0  0
  4 89  1  0  0  0  0
  4 90  1  0  0  0  0
  5  6  1  0  0  0  0
  5 80  1  0  0  0  0
  5 91  1  1  0  0  0
  6  7  2  0  0  0  0
  6  8  1  0  0  0  0
  8  9  1  0  0  0  0
  8 92  1  0  0  0  0
  9 10  1  0  0  0  0
  9 93  1  0  0  0  0
  9 94  1  0  0  0  0
 10 11  2  0  0  0  0
 10 12  1  0  0  0  0
 12 13  1  0  0  0  0
 12 14  1  0  0  0  0
 13 95  1  0  0  0  0
 13 96  1  0  0  0  0
 13 97  1  0  0  0  0
 14 15  1  0  0  0  0
 14 18  1  0  0  0  0
 14 98  1  1  0  0  0
 15 16  1  0  0  0  0
 15 17  1  0  0  0  0
 15 99  1  0  0  0  0
 16100  1  0  0  0  0
 16101  1  0  0  0  0
 16102  1  0  0  0  0
 17103  1  0  0  0  0
 17104  1  0  0  0  0
 17105  1  0  0  0  0
 18 19  2  0  0  0  0
 18 20  1  0  0  0  0
 20 21  1  0  0  0  0
 20106  1  0  0  0  0
 21 22  1  0  0  0  0
 21 31  1  0  0  0  0
 21107  1  1  0  0  0
 22 23  1  0  0  0  0
 22108  1  0  0  0  0
 22109  1  0  0  0  0
 23 24  2  0  0  0  0
 24 25  1  0  0  0  0
 24110  1  0  0  0  0
 25 26  2  0  0  0  0
 25111  1  0  0  0  0
 26 27  1  0  0  0  0
 26 29  1  0  0  0  0
 27 28  1  0  0  0  0
 28112  1  0  0  0  0
 28113  1  0  0  0  0
 28114  1  0  0  0  0
 29 30  2  0  0  0  0
 29115  1  0  0  0  0
 30 23  1  0  0  0  0
 30116  1  0  0  0  0
 31 32  2  0  0  0  0
 31 33  1  0  0  0  0
 33 34  1  0  0  0  0
 34 35  1  0  0  0  0
 34 38  1  0  0  0  0
 34117  1  6  0  0  0
 35 36  1  0  0  0  0
 35 37  1  0  0  0  0
 35118  1  0  0  0  0
 36119  1  0  0  0  0
 36120  1  0  0  0  0
 36121  1  0  0  0  0
 37122  1  0  0  0  0
 37123  1  0  0  0  0
 37124  1  0  0  0  0
 38 39  2  0  0  0  0
 38 40  1  0  0  0  0
 40 41  1  0  0  0  0
 41 42  1  0  0  0  0
 41125  1  0  0  0  0
 41126  1  0  0  0  0
 42 43  1  0  0  0  0
 42127  1  0  0  0  0
 42128  1  0  0  0  0
 43 44  1  0  0  0  0
 43129  1  0  0  0  0
 43130  1  0  0  0  0
 44131  1  0  0  0  0
 44132  1  0  0  0  0
 45 44  1  0  0  0  0
 45 46  1  0  0  0  0
 45 40  1  0  0  0  0
 45133  1  1  0  0  0
 46 47  2  0  0  0  0
 46 48  1  0  0  0  0
 48 49  1  0  0  0  0
 48 50  1  0  0  0  0
 49134  1  0  0  0  0
 49135  1  0  0  0  0
 49136  1  0  0  0  0
 50 51  1  0  0  0  0
 50 54  1  0  0  0  0
 50137  1  1  0  0  0
 51 52  1  0  0  0  0
 51 53  1  0  0  0  0
 51138  1  0  0  0  0
 52139  1  0  0  0  0
 52140  1  0  0  0  0
 52141  1  0  0  0  0
 53142  1  0  0  0  0
 53143  1  0  0  0  0
 53144  1  0  0  0  0
 54 55  2  0  0  0  0
 54 56  1  0  0  0  0
 56 57  1  0  0  0  0
 56145  1  0  0  0  0
 57 58  1  0  0  0  0
 57 61  1  0  0  0  0
 57146  1  1  0  0  0
 58 59  1  0  0  0  0
 58 60  1  0  0  0  0
 58147  1  0  0  0  0
 59148  1  0  0  0  0
 59149  1  0  0  0  0
 59150  1  0  0  0  0
 60151  1  0  0  0  0
 60152  1  0  0  0  0
 60153  1  0  0  0  0
 61 62  2  0  0  0  0
 61 63  1  0  0  0  0
 63 64  1  0  0  0  0
 63 65  1  0  0  0  0
 64154  1  0  0  0  0
 64155  1  0  0  0  0
 64156  1  0  0  0  0
 65 66  1  0  0  0  0
 65 70  1  0  0  0  0
 65157  1  1  0  0  0
 66 67  1  0  0  0  0
 66158  1  0  0  0  0
 66159  1  0  0  0  0
 67 68  2  0  0  0  0
 67 69  1  0  0  0  0
 69160  1  0  0  0  0
 70 71  2  0  0  0  0
 70 72  1  0  0  0  0
 72 73  1  0  0  0  0
 72 74  1  0  0  0  0
 73161  1  0  0  0  0
 73162  1  0  0  0  0
 73163  1  0  0  0  0
 74 75  1  0  0  0  0
 74 78  1  0  0  0  0
 74164  1  6  0  0  0
 75 76  1  0  0  0  0
 75 77  1  0  0  0  0
 75165  1  0  0  0  0
 76166  1  0  0  0  0
 76167  1  0  0  0  0
 76168  1  0  0  0  0
 77169  1  0  0  0  0
 77170  1  0  0  0  0
 77171  1  0  0  0  0
 78 79  2  0  0  0  0
 78 80  1  0  0  0  0
 80 81  1  0  0  0  0
 81172  1  0  0  0  0
 81173  1  0  0  0  0
 81174  1  0  0  0  0
M  END
>  <IDENTIFIER>
CNP0170749.1

>  <Energy>
1490.15

$$$$
