
 OpenBabel09092522353D

216218  0  0  0  0  0  0  0  0999 V2000
    5.5352    5.2703   -0.6291 C   0  0  0  0  0  0  0  0  0  0  0  0
    6.9227    5.2471    0.0092 C   0  0  0  0  0  0  0  0  0  0  0  0
    7.1198    4.2276    1.1684 C   0  0  2  0  0  0  0  0  0  0  0  0
    8.4754    4.5591    1.8312 C   0  0  0  0  0  0  0  0  0  0  0  0
    7.0971    2.7304    0.7132 C   0  0  2  0  0  0  0  0  0  0  0  0
    5.7966    2.3466    0.1768 N   0  0  0  0  0  0  0  0  0  0  0  0
    5.6403    1.7455   -1.0418 C   0  0  0  0  0  0  0  0  0  0  0  0
    6.6306    1.4656   -1.7002 O   0  0  0  0  0  0  0  0  0  0  0  0
    4.2600    1.3765   -1.5965 C   0  0  2  0  0  0  0  0  0  0  0  0
    3.9997    2.0225   -2.9807 C   0  0  0  0  0  0  0  0  0  0  0  0
    4.8210    1.3727   -4.1153 C   0  0  0  0  0  0  0  0  0  0  0  0
    4.6220    2.0835   -5.4630 C   0  0  0  0  0  0  0  0  0  0  0  0
    5.1229    3.4474   -5.4229 N   0  0  0  0  0  0  0  0  0  0  0  0
    6.5044    3.8060   -5.2847 C   0  0  0  0  0  0  0  0  0  0  0  0
    7.4483    2.9288   -5.3188 N   0  0  0  0  0  0  0  0  0  0  0  0
    6.8529    5.1718   -5.1375 N   0  0  0  0  0  0  0  0  0  0  0  0
    3.1971    1.7882   -0.6819 N   0  0  0  0  0  0  0  0  0  0  0  0
    2.3719    0.8960   -0.0602 C   0  0  0  0  0  0  0  0  0  0  0  0
    2.5071   -0.3043   -0.2594 O   0  0  0  0  0  0  0  0  0  0  0  0
    1.2653    1.3686    0.8719 C   0  0  2  0  0  0  0  0  0  0  0  0
    1.8054    2.1986    2.0606 C   0  0  0  0  0  0  0  0  0  0  0  0
    2.8432    1.5162    2.9281 C   0  0  0  0  0  0  0  0  0  0  0  0
    3.3849    2.1875    3.9700 N   0  0  0  0  0  0  0  0  0  0  0  0
    3.2129    0.3752    2.6937 O   0  0  0  0  0  0  0  0  0  0  0  0
    0.4930    0.2160    1.3414 N   0  0  0  0  0  0  0  0  0  0  0  0
   -0.7937   -0.0231    0.9484 C   0  0  0  0  0  0  0  0  0  0  0  0
   -1.3718    0.8082    0.2609 O   0  0  0  0  0  0  0  0  0  0  0  0
   -1.5054   -1.3453    1.3028 C   0  0  2  0  0  0  0  0  0  0  0  0
   -0.7228   -2.5296    0.6659 C   0  0  0  0  0  0  0  0  0  0  0  0
    0.5673   -2.6532    1.2014 O   0  0  0  0  0  0  0  0  0  0  0  0
   -2.8806   -1.3559    0.7850 N   0  0  0  0  0  0  0  0  0  0  0  0
   -3.7523   -2.4054    0.9317 C   0  0  0  0  0  0  0  0  0  0  0  0
   -3.4344   -3.3651    1.6181 O   0  0  0  0  0  0  0  0  0  0  0  0
   -5.1106   -2.4518    0.2122 C   0  0  1  0  0  0  0  0  0  0  0  0
   -5.4827   -1.1513   -0.3431 N   0  0  0  0  0  0  0  0  0  0  0  0
   -6.6762   -0.5352   -0.1095 C   0  0  0  0  0  0  0  0  0  0  0  0
   -7.5505   -1.0977    0.5338 O   0  0  0  0  0  0  0  0  0  0  0  0
   -6.9052    0.8487   -0.6916 C   0  0  2  0  0  0  0  0  0  0  0  0
   -6.0777    1.8861    0.1015 C   0  0  0  0  0  0  0  0  0  0  0  0
   -6.1461    3.2688   -0.4917 C   0  0  0  0  0  0  0  0  0  0  0  0
   -5.6995    3.5080   -1.7469 N   0  0  0  0  0  0  0  0  0  0  0  0
   -6.5882    4.1897    0.1784 O   0  0  0  0  0  0  0  0  0  0  0  0
   -8.3186    1.2096   -0.7911 N   0  0  0  0  0  0  0  0  0  0  0  0
   -9.2036    1.3146    0.2433 C   0  0  0  0  0  0  0  0  0  0  0  0
   -8.8528    1.1042    1.3951 O   0  0  0  0  0  0  0  0  0  0  0  0
  -10.6529    1.6820   -0.0467 C   0  0  2  0  0  0  0  0  0  0  0  0
  -11.0646    2.9652    0.7130 C   0  0  0  0  0  0  0  0  0  0  0  0
  -10.2852    4.2009    0.3168 C   0  0  0  0  0  0  0  0  0  0  0  0
   -9.4181    4.1523   -0.5412 O   0  0  0  0  0  0  0  0  0  0  0  0
  -10.5588    5.3845    0.9035 O   0  0  0  0  0  0  0  0  0  0  0  0
  -11.5453    0.5754    0.2946 N   0  0  0  0  0  0  0  0  0  0  0  0
  -11.4843   -0.6349   -0.3366 C   0  0  0  0  0  0  0  0  0  0  0  0
  -10.6282   -0.8382   -1.1880 O   0  0  0  0  0  0  0  0  0  0  0  0
  -12.4985   -1.7238   -0.0071 C   0  0  2  0  0  0  0  0  0  0  0  0
  -12.2401   -3.0167   -0.8162 C   0  0  0  0  0  0  0  0  0  0  0  0
  -13.2641   -4.1374   -0.5523 C   0  0  0  0  0  0  0  0  0  0  0  0
  -13.1950   -4.6934    0.8800 C   0  0  0  0  0  0  0  0  0  0  0  0
  -14.2357   -5.7914    1.1466 C   0  0  0  0  0  0  0  0  0  0  0  0
  -14.0248   -6.9618    0.2977 N   0  0  0  0  0  0  0  0  0  0  0  0
  -13.8310   -1.2353   -0.3289 N   0  0  0  0  0  0  0  0  0  0  0  0
  -14.8282   -1.0784    0.5856 C   0  0  0  0  0  0  0  0  0  0  0  0
  -14.6371   -1.3289    1.7681 O   0  0  0  0  0  0  0  0  0  0  0  0
  -16.1517   -0.4933    0.1465 C   0  0  2  0  0  0  0  0  0  0  0  0
  -16.1550    0.9986    0.5062 C   0  0  0  0  0  0  0  0  0  0  0  0
  -17.3842    1.6803   -0.0261 C   0  0  0  0  0  0  0  0  0  0  0  0
  -18.4735    1.9311    0.8214 C   0  0  0  0  0  0  0  0  0  0  0  0
  -19.6181    2.5598    0.3262 C   0  0  0  0  0  0  0  0  0  0  0  0
  -19.6769    2.9555   -1.0131 C   0  0  0  0  0  0  0  0  0  0  0  0
  -18.5938    2.7140   -1.8627 C   0  0  0  0  0  0  0  0  0  0  0  0
  -17.4524    2.0702   -1.3749 C   0  0  0  0  0  0  0  0  0  0  0  0
  -17.2695   -1.1536    0.8157 N   0  0  0  0  0  0  0  0  0  0  0  0
  -18.2988   -1.7667    0.1674 C   0  0  0  0  0  0  0  0  0  0  0  0
  -18.3050   -1.8409   -1.0562 O   0  0  0  0  0  0  0  0  0  0  0  0
  -19.4480   -2.3315    0.9685 C   0  0  0  0  0  0  0  0  0  0  0  0
  -20.4627   -2.9440    0.1118 N   0  0  0  0  0  0  0  0  0  0  0  0
   -5.1341   -3.5135   -0.9319 C   0  0  0  0  0  0  0  0  0  0  0  0
   -4.9609   -4.9513   -0.4172 C   0  0  0  0  0  0  0  0  0  0  0  0
   -4.0892   -3.2281   -2.0276 C   0  0  0  0  0  0  0  0  0  0  0  0
    7.4486    1.7814    1.8489 C   0  0  0  0  0  0  0  0  0  0  0  0
    6.5744    1.4296    2.6255 O   0  0  0  0  0  0  0  0  0  0  0  0
    8.7489    1.3748    1.9958 N   0  0  0  0  0  0  0  0  0  0  0  0
    9.3206    0.4631    2.9887 C   0  0  1  0  0  0  0  0  0  0  0  0
    8.3048   -0.2534    3.8938 C   0  0  0  0  0  0  0  0  0  0  0  0
   10.1710   -0.5618    2.2608 C   0  0  0  0  0  0  0  0  0  0  0  0
    9.6271   -1.3457    1.4930 O   0  0  0  0  0  0  0  0  0  0  0  0
   11.5248   -0.5956    2.4492 N   0  0  0  0  0  0  0  0  0  0  0  0
   12.4194   -1.5380    1.7644 C   0  0  1  0  0  0  0  0  0  0  0  0
   12.3767   -1.4079    0.2246 C   0  0  0  0  0  0  0  0  0  0  0  0
   12.6222   -0.0198   -0.2860 C   0  0  0  0  0  0  0  0  0  0  0  0
   13.8266    0.5333   -0.6486 C   0  0  0  0  0  0  0  0  0  0  0  0
   13.6169    1.7867   -1.0974 N   0  0  0  0  0  0  0  0  0  0  0  0
   12.2829    1.9665   -1.0078 C   0  0  0  0  0  0  0  0  0  0  0  0
   11.6546    0.8801   -0.5252 N   0  0  0  0  0  0  0  0  0  0  0  0
   13.8522   -1.5273    2.3130 C   0  0  0  0  0  0  0  0  0  0  0  0
   14.4371   -2.5991    2.3676 O   0  0  0  0  0  0  0  0  0  0  0  0
   14.4519   -0.4143    2.8397 N   0  0  0  0  0  0  0  0  0  0  0  0
   15.6895   -0.4952    3.6079 C   0  0  0  0  0  0  0  0  0  0  0  0
   16.9533   -0.8278    2.8368 C   0  0  0  0  0  0  0  0  0  0  0  0
   17.9664   -1.0089    3.4978 O   0  0  0  0  0  0  0  0  0  0  0  0
   17.0181   -0.8709    1.4730 N   0  0  0  0  0  0  0  0  0  0  0  0
   18.2812   -1.1449    0.7753 C   0  0  1  0  0  0  0  0  0  0  0  0
   18.6628   -2.6417    0.9333 C   0  0  0  0  0  0  0  0  0  0  0  0
   17.6852   -3.5789    0.2546 C   0  0  0  0  0  0  0  0  0  0  0  0
   16.7664   -4.3202    1.0170 C   0  0  0  0  0  0  0  0  0  0  0  0
   15.8610   -5.1830    0.3904 C   0  0  0  0  0  0  0  0  0  0  0  0
   15.8746   -5.3260   -0.9996 C   0  0  0  0  0  0  0  0  0  0  0  0
   16.7928   -4.6061   -1.7655 C   0  0  0  0  0  0  0  0  0  0  0  0
   17.6918   -3.7353   -1.1446 C   0  0  0  0  0  0  0  0  0  0  0  0
   18.2594   -0.7099   -0.6829 C   0  0  0  0  0  0  0  0  0  0  0  0
   19.3884   -0.7800   -1.4282 N   0  0  0  0  0  0  0  0  0  0  0  0
   17.2379   -0.2753   -1.1920 O   0  0  0  0  0  0  0  0  0  0  0  0
    5.4914    6.0986   -1.3680 H   0  0  0  0  0  0  0  0  0  0  0  0
    4.7574    5.4440    0.1439 H   0  0  0  0  0  0  0  0  0  0  0  0
    5.3171    4.3445   -1.1814 H   0  0  0  0  0  0  0  0  0  0  0  0
    7.0714    6.2693    0.4234 H   0  0  0  0  0  0  0  0  0  0  0  0
    7.6913    5.0858   -0.7787 H   0  0  0  0  0  0  0  0  0  0  0  0
    6.3291    4.3953    1.9332 H   0  0  0  0  0  0  0  0  0  0  0  0
    9.3109    4.3963    1.1155 H   0  0  0  0  0  0  0  0  0  0  0  0
    8.6480    3.9375    2.7333 H   0  0  0  0  0  0  0  0  0  0  0  0
    8.4988    5.6172    2.1676 H   0  0  0  0  0  0  0  0  0  0  0  0
    7.8909    2.6233   -0.0587 H   0  0  0  0  0  0  0  0  0  0  0  0
    4.9778    2.5222    0.7761 H   0  0  0  0  0  0  0  0  0  0  0  0
    4.2392    0.2735   -1.7306 H   0  0  0  0  0  0  0  0  0  0  0  0
    4.1927    3.1143   -2.9129 H   0  0  0  0  0  0  0  0  0  0  0  0
    2.9282    1.8827   -3.2476 H   0  0  0  0  0  0  0  0  0  0  0  0
    4.4981    0.3136   -4.2157 H   0  0  0  0  0  0  0  0  0  0  0  0
    5.8930    1.3667   -3.8819 H   0  0  0  0  0  0  0  0  0  0  0  0
    3.5343    2.0930   -5.6942 H   0  0  0  0  0  0  0  0  0  0  0  0
    5.1318    1.5266   -6.2781 H   0  0  0  0  0  0  0  0  0  0  0  0
    4.4341    4.2090   -5.5103 H   0  0  0  0  0  0  0  0  0  0  0  0
    7.2898    1.9223   -5.4554 H   0  0  0  0  0  0  0  0  0  0  0  0
    6.1242    5.8989   -5.1219 H   0  0  0  0  0  0  0  0  0  0  0  0
    7.8402    5.4524   -5.0447 H   0  0  0  0  0  0  0  0  0  0  0  0
    3.0643    2.7966   -0.5098 H   0  0  0  0  0  0  0  0  0  0  0  0
    0.6193    2.0459    0.2728 H   0  0  0  0  0  0  0  0  0  0  0  0
    0.9465    2.5025    2.6978 H   0  0  0  0  0  0  0  0  0  0  0  0
    2.2687    3.1259    1.6613 H   0  0  0  0  0  0  0  0  0  0  0  0
    3.0944    3.1537    4.1801 H   0  0  0  0  0  0  0  0  0  0  0  0
    4.1011    1.7436    4.5638 H   0  0  0  0  0  0  0  0  0  0  0  0
    0.9714   -0.4722    1.9363 H   0  0  0  0  0  0  0  0  0  0  0  0
   -1.5370   -1.4581    2.4093 H   0  0  0  0  0  0  0  0  0  0  0  0
   -0.6951   -2.3880   -0.4416 H   0  0  0  0  0  0  0  0  0  0  0  0
   -1.2233   -3.4997    0.8395 H   0  0  0  0  0  0  0  0  0  0  0  0
    1.2096   -2.5668    0.4502 H   0  0  0  0  0  0  0  0  0  0  0  0
   -3.1878   -0.5498    0.2362 H   0  0  0  0  0  0  0  0  0  0  0  0
   -5.8743   -2.7490    0.9647 H   0  0  0  0  0  0  0  0  0  0  0  0
   -4.8377   -0.6812   -0.9931 H   0  0  0  0  0  0  0  0  0  0  0  0
   -6.5188    0.8152   -1.7349 H   0  0  0  0  0  0  0  0  0  0  0  0
   -5.0086    1.5789    0.1156 H   0  0  0  0  0  0  0  0  0  0  0  0
   -6.4291    1.9145    1.1559 H   0  0  0  0  0  0  0  0  0  0  0  0
   -5.3057    2.7496   -2.3221 H   0  0  0  0  0  0  0  0  0  0  0  0
   -5.7381    4.4590   -2.1426 H   0  0  0  0  0  0  0  0  0  0  0  0
   -8.6713    1.3869   -1.7439 H   0  0  0  0  0  0  0  0  0  0  0  0
  -10.7862    1.8882   -1.1327 H   0  0  0  0  0  0  0  0  0  0  0  0
  -10.9504    2.8016    1.8063 H   0  0  0  0  0  0  0  0  0  0  0  0
  -12.1361    3.1723    0.5020 H   0  0  0  0  0  0  0  0  0  0  0  0
  -11.2463    5.4672    1.5797 H   0  0  0  0  0  0  0  0  0  0  0  0
  -12.2815    0.7238    1.0023 H   0  0  0  0  0  0  0  0  0  0  0  0
  -12.3948   -1.9481    1.0754 H   0  0  0  0  0  0  0  0  0  0  0  0
  -11.2172   -3.3993   -0.6072 H   0  0  0  0  0  0  0  0  0  0  0  0
  -12.2984   -2.7645   -1.8989 H   0  0  0  0  0  0  0  0  0  0  0  0
  -13.0388   -4.9555   -1.2673 H   0  0  0  0  0  0  0  0  0  0  0  0
  -14.2906   -3.7675   -0.7668 H   0  0  0  0  0  0  0  0  0  0  0  0
  -13.3936   -3.8795    1.6062 H   0  0  0  0  0  0  0  0  0  0  0  0
  -12.1766   -5.0961    1.0723 H   0  0  0  0  0  0  0  0  0  0  0  0
  -15.2641   -5.3923    0.9986 H   0  0  0  0  0  0  0  0  0  0  0  0
  -14.1358   -6.1025    2.2095 H   0  0  0  0  0  0  0  0  0  0  0  0
  -14.2890   -6.7297   -0.6862 H   0  0  0  0  0  0  0  0  0  0  0  0
  -14.6790   -7.7145    0.6119 H   0  0  0  0  0  0  0  0  0  0  0  0
  -14.0143   -0.9751   -1.3107 H   0  0  0  0  0  0  0  0  0  0  0  0
  -16.2310   -0.5735   -0.9611 H   0  0  0  0  0  0  0  0  0  0  0  0
  -15.2571    1.5083    0.0875 H   0  0  0  0  0  0  0  0  0  0  0  0
  -16.0988    1.0987    1.6122 H   0  0  0  0  0  0  0  0  0  0  0  0
  -18.4397    1.6254    1.8595 H   0  0  0  0  0  0  0  0  0  0  0  0
  -20.4587    2.7405    0.9827 H   0  0  0  0  0  0  0  0  0  0  0  0
  -20.5620    3.4496   -1.3917 H   0  0  0  0  0  0  0  0  0  0  0  0
  -18.6388    3.0251   -2.8986 H   0  0  0  0  0  0  0  0  0  0  0  0
  -16.6182    1.8893   -2.0427 H   0  0  0  0  0  0  0  0  0  0  0  0
  -17.3052   -1.1105    1.8489 H   0  0  0  0  0  0  0  0  0  0  0  0
  -19.9168   -1.5114    1.5609 H   0  0  0  0  0  0  0  0  0  0  0  0
  -19.0619   -3.0967    1.6759 H   0  0  0  0  0  0  0  0  0  0  0  0
  -20.8881   -2.2072   -0.4970 H   0  0  0  0  0  0  0  0  0  0  0  0
  -21.2250   -3.3239    0.7200 H   0  0  0  0  0  0  0  0  0  0  0  0
   -6.1428   -3.4664   -1.4005 H   0  0  0  0  0  0  0  0  0  0  0  0
   -3.9518   -5.1182    0.0099 H   0  0  0  0  0  0  0  0  0  0  0  0
   -5.0896   -5.6684   -1.2565 H   0  0  0  0  0  0  0  0  0  0  0  0
   -5.7293   -5.1803    0.3509 H   0  0  0  0  0  0  0  0  0  0  0  0
   -3.0598   -3.2666   -1.6124 H   0  0  0  0  0  0  0  0  0  0  0  0
   -4.2516   -2.2340   -2.4901 H   0  0  0  0  0  0  0  0  0  0  0  0
   -4.1702   -3.9821   -2.8389 H   0  0  0  0  0  0  0  0  0  0  0  0
    9.4371    1.7879    1.3484 H   0  0  0  0  0  0  0  0  0  0  0  0
    9.9823    1.0677    3.6468 H   0  0  0  0  0  0  0  0  0  0  0  0
    7.6023   -0.8685    3.2896 H   0  0  0  0  0  0  0  0  0  0  0  0
    7.7372    0.4748    4.5094 H   0  0  0  0  0  0  0  0  0  0  0  0
    8.8389   -0.9269    4.5979 H   0  0  0  0  0  0  0  0  0  0  0  0
   11.9178    0.0662    3.1304 H   0  0  0  0  0  0  0  0  0  0  0  0
   12.0426   -2.5594    1.9975 H   0  0  0  0  0  0  0  0  0  0  0  0
   11.3765   -1.7108   -0.1451 H   0  0  0  0  0  0  0  0  0  0  0  0
   13.0829   -2.1253   -0.2479 H   0  0  0  0  0  0  0  0  0  0  0  0
   14.7870    0.0551   -0.6093 H   0  0  0  0  0  0  0  0  0  0  0  0
   11.7761    2.8755   -1.3031 H   0  0  0  0  0  0  0  0  0  0  0  0
   10.6286    0.7620   -0.3787 H   0  0  0  0  0  0  0  0  0  0  0  0
   13.9710    0.4952    2.8161 H   0  0  0  0  0  0  0  0  0  0  0  0
   15.5483   -1.2613    4.4023 H   0  0  0  0  0  0  0  0  0  0  0  0
   15.8691    0.4751    4.1202 H   0  0  0  0  0  0  0  0  0  0  0  0
   16.1750   -0.6402    0.9377 H   0  0  0  0  0  0  0  0  0  0  0  0
   19.0706   -0.5167    1.2457 H   0  0  0  0  0  0  0  0  0  0  0  0
   18.7010   -2.8714    2.0182 H   0  0  0  0  0  0  0  0  0  0  0  0
   19.6842   -2.8471    0.5474 H   0  0  0  0  0  0  0  0  0  0  0  0
   16.7414   -4.2209    2.0948 H   0  0  0  0  0  0  0  0  0  0  0  0
   15.1483   -5.7416    0.9824 H   0  0  0  0  0  0  0  0  0  0  0  0
   15.1767   -5.9973   -1.4830 H   0  0  0  0  0  0  0  0  0  0  0  0
   16.8107   -4.7237   -2.8417 H   0  0  0  0  0  0  0  0  0  0  0  0
   18.3998   -3.1981   -1.7594 H   0  0  0  0  0  0  0  0  0  0  0  0
   20.2692   -1.1282   -1.0232 H   0  0  0  0  0  0  0  0  0  0  0  0
   19.3834   -0.4802   -2.4145 H   0  0  0  0  0  0  0  0  0  0  0  0
  1  2  1  0  0  0  0
  1112  1  0  0  0  0
  1113  1  0  0  0  0
  1114  1  0  0  0  0
  2  3  1  0  0  0  0
  2115  1  0  0  0  0
  2116  1  0  0  0  0
  3  4  1  0  0  0  0
  3  5  1  0  0  0  0
  3117  1  1  0  0  0
  4118  1  0  0  0  0
  4119  1  0  0  0  0
  4120  1  0  0  0  0
  5  6  1  0  0  0  0
  5 79  1  0  0  0  0
  5121  1  6  0  0  0
  6  7  1  0  0  0  0
  6122  1  0  0  0  0
  7  8  2  0  0  0  0
  7  9  1  0  0  0  0
  9 10  1  0  0  0  0
  9 17  1  0  0  0  0
  9123  1  6  0  0  0
 10 11  1  0  0  0  0
 10124  1  0  0  0  0
 10125  1  0  0  0  0
 11 12  1  0  0  0  0
 11126  1  0  0  0  0
 11127  1  0  0  0  0
 12 13  1  0  0  0  0
 12128  1  0  0  0  0
 12129  1  0  0  0  0
 13 14  1  0  0  0  0
 13130  1  0  0  0  0
 14 15  2  0  0  0  0
 14 16  1  0  0  0  0
 15131  1  0  0  0  0
 16132  1  0  0  0  0
 16133  1  0  0  0  0
 17 18  1  0  0  0  0
 17134  1  0  0  0  0
 18 19  2  0  0  0  0
 18 20  1  0  0  0  0
 20 21  1  0  0  0  0
 20 25  1  0  0  0  0
 20135  1  6  0  0  0
 21 22  1  0  0  0  0
 21136  1  0  0  0  0
 21137  1  0  0  0  0
 22 23  1  0  0  0  0
 22 24  2  0  0  0  0
 23138  1  0  0  0  0
 23139  1  0  0  0  0
 25 26  1  0  0  0  0
 25140  1  0  0  0  0
 26 27  2  0  0  0  0
 26 28  1  0  0  0  0
 28 29  1  0  0  0  0
 28 31  1  0  0  0  0
 28141  1  1  0  0  0
 29 30  1  0  0  0  0
 29142  1  0  0  0  0
 29143  1  0  0  0  0
 30144  1  0  0  0  0
 31 32  1  0  0  0  0
 31145  1  0  0  0  0
 32 33  2  0  0  0  0
 32 34  1  0  0  0  0
 34 35  1  0  0  0  0
 34 76  1  0  0  0  0
 34146  1  1  0  0  0
 35 36  1  0  0  0  0
 35147  1  0  0  0  0
 36 37  2  0  0  0  0
 36 38  1  0  0  0  0
 38 39  1  0  0  0  0
 38 43  1  0  0  0  0
 38148  1  6  0  0  0
 39 40  1  0  0  0  0
 39149  1  0  0  0  0
 39150  1  0  0  0  0
 40 41  1  0  0  0  0
 40 42  2  0  0  0  0
 41151  1  0  0  0  0
 41152  1  0  0  0  0
 43 44  1  0  0  0  0
 43153  1  0  0  0  0
 44 45  2  0  0  0  0
 44 46  1  0  0  0  0
 46 47  1  0  0  0  0
 46 51  1  0  0  0  0
 46154  1  6  0  0  0
 47 48  1  0  0  0  0
 47155  1  0  0  0  0
 47156  1  0  0  0  0
 48 49  2  0  0  0  0
 48 50  1  0  0  0  0
 50157  1  0  0  0  0
 51 52  1  0  0  0  0
 51158  1  0  0  0  0
 52 53  2  0  0  0  0
 52 54  1  0  0  0  0
 54 55  1  0  0  0  0
 54 60  1  0  0  0  0
 54159  1  1  0  0  0
 55 56  1  0  0  0  0
 55160  1  0  0  0  0
 55161  1  0  0  0  0
 56 57  1  0  0  0  0
 56162  1  0  0  0  0
 56163  1  0  0  0  0
 57 58  1  0  0  0  0
 57164  1  0  0  0  0
 57165  1  0  0  0  0
 58 59  1  0  0  0  0
 58166  1  0  0  0  0
 58167  1  0  0  0  0
 59168  1  0  0  0  0
 59169  1  0  0  0  0
 60 61  1  0  0  0  0
 60170  1  0  0  0  0
 61 62  2  0  0  0  0
 61 63  1  0  0  0  0
 63 64  1  0  0  0  0
 63 71  1  0  0  0  0
 63171  1  6  0  0  0
 64 65  1  0  0  0  0
 64172  1  0  0  0  0
 64173  1  0  0  0  0
 65 66  2  0  0  0  0
 66 67  1  0  0  0  0
 66174  1  0  0  0  0
 67 68  2  0  0  0  0
 67175  1  0  0  0  0
 68 69  1  0  0  0  0
 68176  1  0  0  0  0
 69 70  2  0  0  0  0
 69177  1  0  0  0  0
 70 65  1  0  0  0  0
 70178  1  0  0  0  0
 71 72  1  0  0  0  0
 71179  1  0  0  0  0
 72 73  2  0  0  0  0
 72 74  1  0  0  0  0
 74 75  1  0  0  0  0
 74180  1  0  0  0  0
 74181  1  0  0  0  0
 75182  1  0  0  0  0
 75183  1  0  0  0  0
 76 77  1  0  0  0  0
 76 78  1  0  0  0  0
 76184  1  0  0  0  0
 77185  1  0  0  0  0
 77186  1  0  0  0  0
 77187  1  0  0  0  0
 78188  1  0  0  0  0
 78189  1  0  0  0  0
 78190  1  0  0  0  0
 79 80  2  0  0  0  0
 79 81  1  0  0  0  0
 81 82  1  0  0  0  0
 81191  1  0  0  0  0
 82 83  1  0  0  0  0
 82 84  1  0  0  0  0
 82192  1  1  0  0  0
 83193  1  0  0  0  0
 83194  1  0  0  0  0
 83195  1  0  0  0  0
 84 85  2  0  0  0  0
 84 86  1  0  0  0  0
 86 87  1  0  0  0  0
 86196  1  0  0  0  0
 87 88  1  0  0  0  0
 87 94  1  0  0  0  0
 87197  1  1  0  0  0
 88 89  1  0  0  0  0
 88198  1  0  0  0  0
 88199  1  0  0  0  0
 89 90  2  0  0  0  0
 90 91  1  0  0  0  0
 90200  1  0  0  0  0
 91 92  2  0  0  0  0
 92 93  1  0  0  0  0
 92201  1  0  0  0  0
 93 89  1  0  0  0  0
 93202  1  0  0  0  0
 94 95  2  0  0  0  0
 94 96  1  0  0  0  0
 96 97  1  0  0  0  0
 96203  1  0  0  0  0
 97 98  1  0  0  0  0
 97204  1  0  0  0  0
 97205  1  0  0  0  0
 98 99  2  0  0  0  0
 98100  1  0  0  0  0
100101  1  0  0  0  0
100206  1  0  0  0  0
101102  1  0  0  0  0
101109  1  0  0  0  0
101207  1  1  0  0  0
102103  1  0  0  0  0
102208  1  0  0  0  0
102209  1  0  0  0  0
103104  2  0  0  0  0
104105  1  0  0  0  0
104210  1  0  0  0  0
105106  2  0  0  0  0
105211  1  0  0  0  0
106107  1  0  0  0  0
106212  1  0  0  0  0
107108  2  0  0  0  0
107213  1  0  0  0  0
108103  1  0  0  0  0
108214  1  0  0  0  0
109110  1  0  0  0  0
109111  2  0  0  0  0
110215  1  0  0  0  0
110216  1  0  0  0  0
M  END
>  <IDENTIFIER>
CNP0552666.1

>  <Energy>
1196.29

$$$$
