
 OpenBabel09132509543D

 61 64  0  0  0  0  0  0  0  0999 V2000
    3.2048   -1.1173    2.7613 C   0  0  0  0  0  0  0  0  0  0  0  0
    2.4429   -0.8702    1.6922 C   0  0  0  0  0  0  0  0  0  0  0  0
    1.2377    0.0339    1.6735 C   0  0  0  0  0  0  0  0  0  0  0  0
    0.7192   -0.0768    0.1990 C   0  0  2  0  0  0  0  0  0  0  0  0
   -0.0004    1.2322   -0.2622 C   0  0  0  0  0  0  0  0  0  0  0  0
   -0.9694    0.9471   -1.3939 C   0  0  0  0  0  0  0  0  0  0  0  0
   -2.1836    0.0404   -0.9522 C   0  0  2  0  0  0  0  0  0  0  0  0
   -3.4479    0.8094   -0.3732 C   0  0  0  0  0  0  0  0  0  0  0  0
   -4.7222   -0.0816   -0.4995 C   0  0  0  0  0  0  0  0  0  0  0  0
   -3.7969    2.0747   -1.2028 C   0  0  0  0  0  0  0  0  0  0  0  0
   -3.2466    1.2390    1.1162 C   0  0  0  0  0  0  0  0  0  0  0  0
   -2.3978    0.2847    1.9906 C   0  0  0  0  0  0  0  0  0  0  0  0
   -2.2912   -1.1287    1.4309 C   0  0  0  0  0  0  0  0  0  0  0  0
   -1.7356   -1.2135   -0.0438 C   0  0  1  0  0  0  0  0  0  0  0  0
   -2.3541   -2.5089   -0.6603 C   0  0  0  0  0  0  0  0  0  0  0  0
   -0.1571   -1.3736   -0.1307 C   0  0  2  0  0  0  0  0  0  0  0  0
    0.4653   -2.6321    0.5341 C   0  0  0  0  0  0  0  0  0  0  0  0
    1.9524   -2.7506    0.1414 C   0  0  0  0  0  0  0  0  0  0  0  0
    2.7013   -1.4139    0.3250 C   0  0  1  0  0  0  0  0  0  0  0  0
    2.0667   -0.3129   -0.5401 C   0  0  2  0  0  0  0  0  0  0  0  0
    2.8663    0.8215   -0.4689 O   0  0  0  0  0  0  0  0  0  0  0  0
    3.5174    1.4094   -1.5062 C   0  0  0  0  0  0  0  0  0  0  0  0
    3.5068    0.9104   -2.6245 O   0  0  0  0  0  0  0  0  0  0  0  0
    4.2760    2.6730   -1.2546 C   0  0  0  0  0  0  0  0  0  0  0  0
    5.7515    2.4597   -1.4595 C   0  0  0  0  0  0  0  0  0  0  0  0
    6.1767    2.1457   -2.5603 O   0  0  0  0  0  0  0  0  0  0  0  0
    6.6168    2.6072   -0.4335 O   0  0  0  0  0  0  0  0  0  0  0  0
    2.9727   -0.6698    3.7212 H   0  0  0  0  0  0  0  0  0  0  0  0
    4.0717   -1.7670    2.6770 H   0  0  0  0  0  0  0  0  0  0  0  0
    1.6094    1.0577    1.9014 H   0  0  0  0  0  0  0  0  0  0  0  0
    0.4848   -0.2667    2.4248 H   0  0  0  0  0  0  0  0  0  0  0  0
    0.7462    1.9991   -0.5544 H   0  0  0  0  0  0  0  0  0  0  0  0
   -0.5721    1.7236    0.5338 H   0  0  0  0  0  0  0  0  0  0  0  0
   -0.3799    0.4345   -2.1851 H   0  0  0  0  0  0  0  0  0  0  0  0
   -1.2996    1.8813   -1.8795 H   0  0  0  0  0  0  0  0  0  0  0  0
   -2.5082   -0.3269   -1.9529 H   0  0  0  0  0  0  0  0  0  0  0  0
   -4.8771   -0.3900   -1.5569 H   0  0  0  0  0  0  0  0  0  0  0  0
   -5.6274    0.4806   -0.1840 H   0  0  0  0  0  0  0  0  0  0  0  0
   -4.7372   -0.9859    0.1161 H   0  0  0  0  0  0  0  0  0  0  0  0
   -3.9321    1.8186   -2.2765 H   0  0  0  0  0  0  0  0  0  0  0  0
   -3.0224    2.8618   -1.1137 H   0  0  0  0  0  0  0  0  0  0  0  0
   -4.7368    2.5429   -0.8365 H   0  0  0  0  0  0  0  0  0  0  0  0
   -4.2522    1.3846    1.5700 H   0  0  0  0  0  0  0  0  0  0  0  0
   -2.7559    2.2339    1.1942 H   0  0  0  0  0  0  0  0  0  0  0  0
   -2.7930    0.2880    3.0296 H   0  0  0  0  0  0  0  0  0  0  0  0
   -1.3881    0.6806    2.0955 H   0  0  0  0  0  0  0  0  0  0  0  0
   -3.3166   -1.5291    1.4963 H   0  0  0  0  0  0  0  0  0  0  0  0
   -1.7140   -1.7884    2.1088 H   0  0  0  0  0  0  0  0  0  0  0  0
   -2.1433   -3.4047   -0.0440 H   0  0  0  0  0  0  0  0  0  0  0  0
   -1.9700   -2.6843   -1.6880 H   0  0  0  0  0  0  0  0  0  0  0  0
   -3.4520   -2.4634   -0.7441 H   0  0  0  0  0  0  0  0  0  0  0  0
   -0.0263   -1.5520   -1.2222 H   0  0  0  0  0  0  0  0  0  0  0  0
   -0.0251   -3.5770    0.2346 H   0  0  0  0  0  0  0  0  0  0  0  0
    0.3772   -2.5506    1.6372 H   0  0  0  0  0  0  0  0  0  0  0  0
    2.0302   -3.0408   -0.9295 H   0  0  0  0  0  0  0  0  0  0  0  0
    2.4241   -3.5528    0.7481 H   0  0  0  0  0  0  0  0  0  0  0  0
    3.7786   -1.5264    0.0702 H   0  0  0  0  0  0  0  0  0  0  0  0
    1.9511   -0.6253   -1.6035 H   0  0  0  0  0  0  0  0  0  0  0  0
    4.0943    2.9920   -0.2059 H   0  0  0  0  0  0  0  0  0  0  0  0
    3.9069    3.4769   -1.9274 H   0  0  0  0  0  0  0  0  0  0  0  0
    6.3167    2.8380    0.4571 H   0  0  0  0  0  0  0  0  0  0  0  0
  1  2  2  0  0  0  0
  1 28  1  0  0  0  0
  1 29  1  0  0  0  0
  2  3  1  0  0  0  0
  3 30  1  0  0  0  0
  3 31  1  0  0  0  0
  4  3  1  1  0  0  0
  4  5  1  0  0  0  0
  5  6  1  0  0  0  0
  5 32  1  0  0  0  0
  5 33  1  0  0  0  0
  6 34  1  0  0  0  0
  6 35  1  0  0  0  0
  7  6  1  0  0  0  0
  7  8  1  0  0  0  0
  7 36  1  6  0  0  0
  8  9  1  0  0  0  0
  8 10  1  0  0  0  0
  8 11  1  0  0  0  0
  9 37  1  0  0  0  0
  9 38  1  0  0  0  0
  9 39  1  0  0  0  0
 10 40  1  0  0  0  0
 10 41  1  0  0  0  0
 10 42  1  0  0  0  0
 11 12  1  0  0  0  0
 11 43  1  0  0  0  0
 11 44  1  0  0  0  0
 12 13  1  0  0  0  0
 12 45  1  0  0  0  0
 12 46  1  0  0  0  0
 13 14  1  0  0  0  0
 13 47  1  0  0  0  0
 13 48  1  0  0  0  0
 14 15  1  6  0  0  0
 14 16  1  0  0  0  0
 14  7  1  0  0  0  0
 15 49  1  0  0  0  0
 15 50  1  0  0  0  0
 15 51  1  0  0  0  0
 16 17  1  0  0  0  0
 16  4  1  0  0  0  0
 16 52  1  6  0  0  0
 17 18  1  0  0  0  0
 17 53  1  0  0  0  0
 17 54  1  0  0  0  0
 18 55  1  0  0  0  0
 18 56  1  0  0  0  0
 19 18  1  0  0  0  0
 19 20  1  0  0  0  0
 19  2  1  0  0  0  0
 19 57  1  6  0  0  0
 20 21  1  0  0  0  0
 20  4  1  0  0  0  0
 20 58  1  6  0  0  0
 21 22  1  0  0  0  0
 22 23  2  0  0  0  0
 22 24  1  0  0  0  0
 24 25  1  0  0  0  0
 24 59  1  0  0  0  0
 24 60  1  0  0  0  0
 25 26  2  0  0  0  0
 25 27  1  0  0  0  0
 27 61  1  0  0  0  0
M  END
>  <IDENTIFIER>
CNP0331628.0

>  <Energy>
801.354

$$$$
