
 OpenBabel09102512143D

 74 76  0  0  0  0  0  0  0  0999 V2000
   -0.0063   -3.0295   -0.0885 C   0  0  0  0  0  0  0  0  0  0  0  0
   -0.8181   -2.3689    1.0066 C   0  0  0  0  0  0  0  0  0  0  0  0
   -2.1198   -2.7291    1.1481 C   0  0  0  0  0  0  0  0  0  0  0  0
   -3.1076   -2.1874    2.1519 C   0  0  0  0  0  0  0  0  0  0  0  0
   -4.3536   -1.7064    1.4468 C   0  0  0  0  0  0  0  0  0  0  0  0
   -4.8412   -0.4551    1.5665 C   0  0  0  0  0  0  0  0  0  0  0  0
   -6.1661   -0.0744    0.9539 C   0  0  0  0  0  0  0  0  0  0  0  0
   -6.3427    1.1058   -0.0167 C   0  0  0  0  0  0  0  0  0  0  0  0
   -7.8090    1.4102   -0.3190 C   0  0  0  0  0  0  0  0  0  0  0  0
   -8.4831    0.2491   -1.0013 C   0  0  0  0  0  0  0  0  0  0  0  0
   -9.4313   -0.3038   -0.4671 O   0  0  0  0  0  0  0  0  0  0  0  0
   -8.0548   -0.1858   -2.2054 O   0  0  0  0  0  0  0  0  0  0  0  0
   -5.4226    1.9075   -0.6351 C   0  0  0  0  0  0  0  0  0  0  0  0
   -3.9383    1.9139   -0.6403 C   0  0  0  0  0  0  0  0  0  0  0  0
   -3.3851    2.7462   -1.3397 O   0  0  0  0  0  0  0  0  0  0  0  0
   -3.2178    1.0155    0.0643 O   0  0  0  0  0  0  0  0  0  0  0  0
   -1.8750    0.6585    0.0156 C   0  0  2  0  0  0  0  0  0  0  0  0
   -1.2035    0.8580    1.3564 C   0  0  0  0  0  0  0  0  0  0  0  0
    0.1233    0.0406    1.3434 C   0  0  1  0  0  0  0  0  0  0  0  0
   -0.0932   -1.3817    1.9170 C   0  0  0  0  0  0  0  0  0  0  0  0
    0.7239   -0.0764    0.0468 O   0  0  0  0  0  0  0  0  0  0  0  0
    0.5446    1.0751   -0.7706 C   0  0  1  0  0  0  0  0  0  0  0  0
    1.0979    2.2083   -0.1315 O   0  0  0  0  0  0  0  0  0  0  0  0
    1.2462    0.8599   -2.1384 C   0  0  0  0  0  0  0  0  0  0  0  0
    2.6662    0.2645   -2.0896 C   0  0  0  0  0  0  0  0  0  0  0  0
    3.7038    1.1075   -1.3820 C   0  0  0  0  0  0  0  0  0  0  0  0
    4.0244    2.4829   -1.9102 C   0  0  0  0  0  0  0  0  0  0  0  0
    4.3412    0.5822   -0.3112 C   0  0  0  0  0  0  0  0  0  0  0  0
    5.4208    1.2596    0.4924 C   0  0  0  0  0  0  0  0  0  0  0  0
    6.6830    0.4424    0.4026 C   0  0  0  0  0  0  0  0  0  0  0  0
    7.1840   -0.2291    1.5311 C   0  0  0  0  0  0  0  0  0  0  0  0
    8.3471   -1.0000    1.4338 C   0  0  0  0  0  0  0  0  0  0  0  0
    9.0230   -1.0990    0.2144 C   0  0  0  0  0  0  0  0  0  0  0  0
    8.5359   -0.4294   -0.9111 C   0  0  0  0  0  0  0  0  0  0  0  0
    7.3689    0.3355   -0.8207 C   0  0  0  0  0  0  0  0  0  0  0  0
   -0.9808    1.3342   -1.0523 C   0  0  0  0  0  0  0  0  0  0  0  0
   -0.5987   -3.7646   -0.6730 H   0  0  0  0  0  0  0  0  0  0  0  0
    0.8531   -3.5677    0.3634 H   0  0  0  0  0  0  0  0  0  0  0  0
    0.3795   -2.2821   -0.8070 H   0  0  0  0  0  0  0  0  0  0  0  0
   -2.5211   -3.4815    0.4736 H   0  0  0  0  0  0  0  0  0  0  0  0
   -2.6930   -1.3944    2.7949 H   0  0  0  0  0  0  0  0  0  0  0  0
   -3.4086   -3.0237    2.8167 H   0  0  0  0  0  0  0  0  0  0  0  0
   -4.8967   -2.4373    0.8528 H   0  0  0  0  0  0  0  0  0  0  0  0
   -4.3241    0.2761    2.1804 H   0  0  0  0  0  0  0  0  0  0  0  0
   -6.8044    0.1558    1.8334 H   0  0  0  0  0  0  0  0  0  0  0  0
   -6.6081   -0.9674    0.4610 H   0  0  0  0  0  0  0  0  0  0  0  0
   -7.9367    2.2939   -0.9808 H   0  0  0  0  0  0  0  0  0  0  0  0
   -8.3274    1.6453    0.6361 H   0  0  0  0  0  0  0  0  0  0  0  0
   -7.3108    0.2336   -2.6598 H   0  0  0  0  0  0  0  0  0  0  0  0
   -5.8206    2.6879   -1.2802 H   0  0  0  0  0  0  0  0  0  0  0  0
   -1.8839   -0.4219   -0.2100 H   0  0  0  0  0  0  0  0  0  0  0  0
   -1.8281    0.5738    2.2252 H   0  0  0  0  0  0  0  0  0  0  0  0
   -1.0064    1.9479    1.4674 H   0  0  0  0  0  0  0  0  0  0  0  0
    0.8171    0.5355    2.0599 H   0  0  0  0  0  0  0  0  0  0  0  0
   -0.5629   -1.3090    2.9177 H   0  0  0  0  0  0  0  0  0  0  0  0
    0.9015   -1.8290    2.1331 H   0  0  0  0  0  0  0  0  0  0  0  0
    1.9073    1.9272    0.3667 H   0  0  0  0  0  0  0  0  0  0  0  0
    1.2270    1.8063   -2.7203 H   0  0  0  0  0  0  0  0  0  0  0  0
    0.6605    0.1069   -2.7119 H   0  0  0  0  0  0  0  0  0  0  0  0
    3.0127    0.1073   -3.1337 H   0  0  0  0  0  0  0  0  0  0  0  0
    2.5912   -0.7443   -1.6251 H   0  0  0  0  0  0  0  0  0  0  0  0
    3.4163    2.7180   -2.8080 H   0  0  0  0  0  0  0  0  0  0  0  0
    5.0937    2.5338   -2.2043 H   0  0  0  0  0  0  0  0  0  0  0  0
    3.8138    3.2481   -1.1344 H   0  0  0  0  0  0  0  0  0  0  0  0
    4.0802   -0.4211    0.0175 H   0  0  0  0  0  0  0  0  0  0  0  0
    5.0600    1.3153    1.5417 H   0  0  0  0  0  0  0  0  0  0  0  0
    5.6379    2.2952    0.1594 H   0  0  0  0  0  0  0  0  0  0  0  0
    6.6697   -0.1667    2.4820 H   0  0  0  0  0  0  0  0  0  0  0  0
    8.7236   -1.5226    2.3035 H   0  0  0  0  0  0  0  0  0  0  0  0
    9.9236   -1.6950    0.1416 H   0  0  0  0  0  0  0  0  0  0  0  0
    9.0613   -0.5049   -1.8546 H   0  0  0  0  0  0  0  0  0  0  0  0
    7.0010    0.8473   -1.7014 H   0  0  0  0  0  0  0  0  0  0  0  0
   -1.3260    0.9235   -2.0268 H   0  0  0  0  0  0  0  0  0  0  0  0
   -1.0944    2.4374   -1.0920 H   0  0  0  0  0  0  0  0  0  0  0  0
  1  2  1  0  0  0  0
  1 37  1  0  0  0  0
  1 38  1  0  0  0  0
  1 39  1  0  0  0  0
  2  3  2  0  0  0  0
  3  4  1  0  0  0  0
  3 40  1  0  0  0  0
  4  5  1  0  0  0  0
  4 41  1  0  0  0  0
  4 42  1  0  0  0  0
  5  6  2  0  0  0  0
  5 43  1  0  0  0  0
  6  7  1  0  0  0  0
  6 44  1  0  0  0  0
  7  8  1  0  0  0  0
  7 45  1  0  0  0  0
  7 46  1  0  0  0  0
  8  9  1  0  0  0  0
  8 13  2  0  0  0  0
  9 10  1  0  0  0  0
  9 47  1  0  0  0  0
  9 48  1  0  0  0  0
 10 11  2  0  0  0  0
 10 12  1  0  0  0  0
 12 49  1  0  0  0  0
 13 14  1  0  0  0  0
 13 50  1  0  0  0  0
 14 15  2  0  0  0  0
 14 16  1  0  0  0  0
 16 17  1  0  0  0  0
 17 18  1  0  0  0  0
 17 36  1  0  0  0  0
 17 51  1  6  0  0  0
 18 19  1  0  0  0  0
 18 52  1  0  0  0  0
 18 53  1  0  0  0  0
 19 20  1  0  0  0  0
 19 21  1  0  0  0  0
 19 54  1  1  0  0  0
 20  2  1  0  0  0  0
 20 55  1  0  0  0  0
 20 56  1  0  0  0  0
 21 22  1  0  0  0  0
 22 23  1  1  0  0  0
 22 24  1  0  0  0  0
 22 36  1  0  0  0  0
 23 57  1  0  0  0  0
 24 25  1  0  0  0  0
 24 58  1  0  0  0  0
 24 59  1  0  0  0  0
 25 26  1  0  0  0  0
 25 60  1  0  0  0  0
 25 61  1  0  0  0  0
 26 27  1  0  0  0  0
 26 28  2  0  0  0  0
 27 62  1  0  0  0  0
 27 63  1  0  0  0  0
 27 64  1  0  0  0  0
 28 29  1  0  0  0  0
 28 65  1  0  0  0  0
 29 30  1  0  0  0  0
 29 66  1  0  0  0  0
 29 67  1  0  0  0  0
 30 31  2  0  0  0  0
 31 32  1  0  0  0  0
 31 68  1  0  0  0  0
 32 33  2  0  0  0  0
 32 69  1  0  0  0  0
 33 34  1  0  0  0  0
 33 70  1  0  0  0  0
 34 35  2  0  0  0  0
 34 71  1  0  0  0  0
 35 30  1  0  0  0  0
 35 72  1  0  0  0  0
 36 73  1  0  0  0  0
 36 74  1  0  0  0  0
M  END
>  <IDENTIFIER>
CNP0256004.1

>  <Energy>
634.199

$$$$
