
 OpenBabel09112517063D

 53 56  0  0  0  0  0  0  0  0999 V2000
    5.4759   -2.0286    0.5290 O   0  0  0  0  0  0  0  0  0  0  0  0
    4.2796   -1.7863    0.5929 C   0  0  0  0  0  0  0  0  0  0  0  0
    3.5946   -2.1852    1.6889 O   0  0  0  0  0  0  0  0  0  0  0  0
    3.5982   -1.1155   -0.5851 C   0  0  1  0  0  0  0  0  0  0  0  0
    2.1939   -0.9549   -0.3535 O   0  0  0  0  0  0  0  0  0  0  0  0
    1.7461    0.3636   -0.0074 C   0  0  1  0  0  0  0  0  0  0  0  0
    0.5890    0.2160    0.7371 O   0  0  0  0  0  0  0  0  0  0  0  0
   -0.6332    0.6308    0.3308 C   0  0  0  0  0  0  0  0  0  0  0  0
   -1.6672   -0.3072    0.0883 C   0  0  0  0  0  0  0  0  0  0  0  0
   -1.5299   -1.7919    0.2802 C   0  0  0  0  0  0  0  0  0  0  0  0
   -0.5166   -2.3963    1.0590 C   0  0  0  0  0  0  0  0  0  0  0  0
   -0.4398   -3.7843    1.1861 C   0  0  0  0  0  0  0  0  0  0  0  0
   -1.3669   -4.6094    0.5420 C   0  0  0  0  0  0  0  0  0  0  0  0
   -1.2836   -5.9510    0.6628 O   0  0  0  0  0  0  0  0  0  0  0  0
   -2.3882   -4.0316   -0.2284 C   0  0  0  0  0  0  0  0  0  0  0  0
   -3.3004   -4.7955   -0.8661 O   0  0  0  0  0  0  0  0  0  0  0  0
   -2.4681   -2.6389   -0.3476 C   0  0  0  0  0  0  0  0  0  0  0  0
   -2.8322    0.1335   -0.3826 O   0  0  0  0  0  0  0  0  0  0  0  0
   -3.1130    1.4106   -0.6154 C   0  0  0  0  0  0  0  0  0  0  0  0
   -4.3857    1.7585   -1.1068 C   0  0  0  0  0  0  0  0  0  0  0  0
   -5.3163    0.8089   -1.3483 O   0  0  0  0  0  0  0  0  0  0  0  0
   -4.6959    3.1070   -1.3502 C   0  0  0  0  0  0  0  0  0  0  0  0
   -5.9065    3.4733   -1.8226 O   0  0  0  0  0  0  0  0  0  0  0  0
   -3.7423    4.0963   -1.1034 C   0  0  0  0  0  0  0  0  0  0  0  0
   -2.4701    3.7650   -0.6179 C   0  0  0  0  0  0  0  0  0  0  0  0
   -1.5700    4.7464   -0.3908 O   0  0  0  0  0  0  0  0  0  0  0  0
   -2.1440    2.4089   -0.3718 C   0  0  0  0  0  0  0  0  0  0  0  0
   -0.8831    1.9953    0.1021 C   0  0  0  0  0  0  0  0  0  0  0  0
   -0.0020    2.8106    0.3179 O   0  0  0  0  0  0  0  0  0  0  0  0
    2.7817    1.1638    0.8073 C   0  0  1  0  0  0  0  0  0  0  0  0
    3.0476    0.4632    1.9957 O   0  0  0  0  0  0  0  0  0  0  0  0
    4.0682    1.3525   -0.0320 C   0  0  1  0  0  0  0  0  0  0  0  0
    5.1841    1.5781    0.7941 O   0  0  0  0  0  0  0  0  0  0  0  0
    4.2946    0.1988   -1.0450 C   0  0  2  0  0  0  0  0  0  0  0  0
    3.8241    0.6009   -2.3189 O   0  0  0  0  0  0  0  0  0  0  0  0
    2.6396   -2.0764    1.7806 H   0  0  0  0  0  0  0  0  0  0  0  0
    3.7161   -1.8284   -1.4306 H   0  0  0  0  0  0  0  0  0  0  0  0
    1.5171    0.9188   -0.9448 H   0  0  0  0  0  0  0  0  0  0  0  0
    0.2180   -1.8305    1.6000 H   0  0  0  0  0  0  0  0  0  0  0  0
    0.3464   -4.2186    1.7916 H   0  0  0  0  0  0  0  0  0  0  0  0
   -0.5913   -6.3792    1.1865 H   0  0  0  0  0  0  0  0  0  0  0  0
   -3.2903   -5.7623   -0.8294 H   0  0  0  0  0  0  0  0  0  0  0  0
   -3.2636   -2.2235   -0.9540 H   0  0  0  0  0  0  0  0  0  0  0  0
   -5.1562   -0.1342   -1.2030 H   0  0  0  0  0  0  0  0  0  0  0  0
   -6.6082    2.8363   -2.0177 H   0  0  0  0  0  0  0  0  0  0  0  0
   -3.9937    5.1332   -1.2926 H   0  0  0  0  0  0  0  0  0  0  0  0
   -1.7712    5.6806   -0.5456 H   0  0  0  0  0  0  0  0  0  0  0  0
    2.3760    2.1669    1.0755 H   0  0  0  0  0  0  0  0  0  0  0  0
    3.3796    1.1232    2.6593 H   0  0  0  0  0  0  0  0  0  0  0  0
    3.9567    2.2691   -0.6535 H   0  0  0  0  0  0  0  0  0  0  0  0
    5.4575    0.7069    1.1809 H   0  0  0  0  0  0  0  0  0  0  0  0
    5.3837    0.0254   -1.1891 H   0  0  0  0  0  0  0  0  0  0  0  0
    2.9498    0.1814   -2.5236 H   0  0  0  0  0  0  0  0  0  0  0  0
  1  2  2  0  0  0  0
  2  3  1  0  0  0  0
  3 36  1  0  0  0  0
  4  2  1  0  0  0  0
  4  5  1  0  0  0  0
  4 37  1  6  0  0  0
  5  6  1  0  0  0  0
  6  7  1  0  0  0  0
  6 30  1  0  0  0  0
  6 38  1  6  0  0  0
  7  8  1  0  0  0  0
  8  9  2  0  0  0  0
  9 10  1  0  0  0  0
  9 18  1  0  0  0  0
 10 11  2  0  0  0  0
 11 12  1  0  0  0  0
 11 39  1  0  0  0  0
 12 13  2  0  0  0  0
 12 40  1  0  0  0  0
 13 14  1  0  0  0  0
 13 15  1  0  0  0  0
 14 41  1  0  0  0  0
 15 16  1  0  0  0  0
 15 17  2  0  0  0  0
 16 42  1  0  0  0  0
 17 10  1  0  0  0  0
 17 43  1  0  0  0  0
 18 19  1  0  0  0  0
 19 20  2  0  0  0  0
 20 21  1  0  0  0  0
 20 22  1  0  0  0  0
 21 44  1  0  0  0  0
 22 23  1  0  0  0  0
 22 24  2  0  0  0  0
 23 45  1  0  0  0  0
 24 25  1  0  0  0  0
 24 46  1  0  0  0  0
 25 26  1  0  0  0  0
 25 27  2  0  0  0  0
 26 47  1  0  0  0  0
 27 28  1  0  0  0  0
 27 19  1  0  0  0  0
 28 29  2  0  0  0  0
 28  8  1  0  0  0  0
 30 31  1  0  0  0  0
 30 32  1  0  0  0  0
 30 48  1  1  0  0  0
 31 49  1  0  0  0  0
 32 33  1  0  0  0  0
 32 34  1  0  0  0  0
 32 50  1  6  0  0  0
 33 51  1  0  0  0  0
 34 35  1  0  0  0  0
 34  4  1  0  0  0  0
 34 52  1  6  0  0  0
 35 53  1  0  0  0  0
M  END
>  <IDENTIFIER>
CNP0426443.2

>  <Energy>
617.64

$$$$
