
 OpenBabel09052510533D

 70 75  0  0  0  0  0  0  0  0999 V2000
    7.7848    1.0206    0.5307 C   0  0  0  0  0  0  0  0  0  0  0  0
    7.0303   -0.1420   -0.1226 C   0  0  2  0  0  0  0  0  0  0  0  0
    6.2927    0.3683   -1.3922 C   0  0  0  0  0  0  0  0  0  0  0  0
    5.0451   -0.4682   -1.6357 C   0  0  0  0  0  0  0  0  0  0  0  0
    4.0524   -0.2413   -0.4455 C   0  0  2  0  0  0  0  0  0  0  0  0
    2.9697   -1.3289   -0.4830 C   0  0  0  0  0  0  0  0  0  0  0  0
    1.8509   -0.6702    0.2972 C   0  0  1  0  0  0  0  0  0  0  0  0
    2.1738    0.8269    0.1522 C   0  0  2  0  0  0  0  0  0  0  0  0
    0.8960    1.5010   -0.3759 C   0  0  0  0  0  0  0  0  0  0  0  0
   -0.1604    0.5746    0.2422 C   0  0  1  0  0  0  0  0  0  0  0  0
   -1.6570    0.7706   -0.0812 C   0  0  2  0  0  0  0  0  0  0  0  0
   -2.1293    2.1822    0.3515 C   0  0  0  0  0  0  0  0  0  0  0  0
   -3.5853    2.2867    0.7518 C   0  0  0  0  0  0  0  0  0  0  0  0
   -4.4360    1.2364    0.7874 C   0  0  0  0  0  0  0  0  0  0  0  0
   -5.7646    1.4080    1.5233 C   0  0  0  0  0  0  0  0  0  0  0  0
   -6.8439    0.5693    0.8377 C   0  0  1  0  0  0  0  0  0  0  0  0
   -7.0212    1.0377   -0.4750 O   0  0  0  0  0  0  0  0  0  0  0  0
   -6.4385   -0.9350    0.8211 C   0  0  0  0  0  0  0  0  0  0  0  0
   -4.9150   -1.1931    1.0117 C   0  0  0  0  0  0  0  0  0  0  0  0
   -4.0138   -0.1534    0.2936 C   0  0  1  0  0  0  0  0  0  0  0  0
   -4.2565   -0.2699   -1.2452 C   0  0  0  0  0  0  0  0  0  0  0  0
   -2.4906   -0.3409    0.6528 C   0  0  1  0  0  0  0  0  0  0  0  0
   -1.9422   -1.7747    0.3646 C   0  0  0  0  0  0  0  0  0  0  0  0
   -0.4298   -1.8788    0.6674 C   0  0  0  0  0  0  0  0  0  0  0  0
    0.3619   -0.8261   -0.1418 C   0  0  2  0  0  0  0  0  0  0  0  0
    0.2285   -1.1396   -1.6767 C   0  0  0  0  0  0  0  0  0  0  0  0
    3.3432    0.9783   -0.6325 O   0  0  0  0  0  0  0  0  0  0  0  0
    4.7651   -0.1631    0.8709 N   0  0  0  0  0  0  0  0  0  0  0  0
    6.0596   -0.8422    0.8637 C   0  0  0  0  0  0  0  0  0  0  0  0
    8.5076    1.4584   -0.1909 H   0  0  0  0  0  0  0  0  0  0  0  0
    8.3512    0.6614    1.4159 H   0  0  0  0  0  0  0  0  0  0  0  0
    7.0764    1.8117    0.8584 H   0  0  0  0  0  0  0  0  0  0  0  0
    7.7783   -0.9182   -0.4021 H   0  0  0  0  0  0  0  0  0  0  0  0
    6.9928    0.3651   -2.2558 H   0  0  0  0  0  0  0  0  0  0  0  0
    5.9351    1.4131   -1.2534 H   0  0  0  0  0  0  0  0  0  0  0  0
    5.3616   -1.5333   -1.7056 H   0  0  0  0  0  0  0  0  0  0  0  0
    4.5507   -0.2028   -2.5958 H   0  0  0  0  0  0  0  0  0  0  0  0
    3.2591   -2.3435   -0.1364 H   0  0  0  0  0  0  0  0  0  0  0  0
    2.6933   -1.4048   -1.5501 H   0  0  0  0  0  0  0  0  0  0  0  0
    1.9598   -0.8799    1.3862 H   0  0  0  0  0  0  0  0  0  0  0  0
    2.3594    1.2376    1.1739 H   0  0  0  0  0  0  0  0  0  0  0  0
    0.8411    1.4621   -1.4797 H   0  0  0  0  0  0  0  0  0  0  0  0
    0.8206    2.5688   -0.0794 H   0  0  0  0  0  0  0  0  0  0  0  0
   -0.0742    0.6909    1.3531 H   0  0  0  0  0  0  0  0  0  0  0  0
   -1.7895    0.6794   -1.1716 H   0  0  0  0  0  0  0  0  0  0  0  0
   -1.8480    2.9352   -0.4152 H   0  0  0  0  0  0  0  0  0  0  0  0
   -1.6021    2.4525    1.2923 H   0  0  0  0  0  0  0  0  0  0  0  0
   -3.9037    3.2438    1.1559 H   0  0  0  0  0  0  0  0  0  0  0  0
   -6.0679    2.4758    1.5917 H   0  0  0  0  0  0  0  0  0  0  0  0
   -5.6490    1.0332    2.5637 H   0  0  0  0  0  0  0  0  0  0  0  0
   -7.8260    0.6498    1.3576 H   0  0  0  0  0  0  0  0  0  0  0  0
   -7.4089    1.9498   -0.4092 H   0  0  0  0  0  0  0  0  0  0  0  0
   -6.8229   -1.3908   -0.1172 H   0  0  0  0  0  0  0  0  0  0  0  0
   -6.9383   -1.4747    1.6552 H   0  0  0  0  0  0  0  0  0  0  0  0
   -4.6914   -2.2427    0.7276 H   0  0  0  0  0  0  0  0  0  0  0  0
   -4.6938   -1.0985    2.0987 H   0  0  0  0  0  0  0  0  0  0  0  0
   -3.9237   -1.2505   -1.6366 H   0  0  0  0  0  0  0  0  0  0  0  0
   -3.7696    0.5373   -1.8230 H   0  0  0  0  0  0  0  0  0  0  0  0
   -5.3207   -0.1943   -1.5163 H   0  0  0  0  0  0  0  0  0  0  0  0
   -2.3669   -0.1869    1.7505 H   0  0  0  0  0  0  0  0  0  0  0  0
   -2.1242   -2.0683   -0.6830 H   0  0  0  0  0  0  0  0  0  0  0  0
   -2.4676   -2.5188    0.9978 H   0  0  0  0  0  0  0  0  0  0  0  0
   -0.0588   -2.9024    0.4442 H   0  0  0  0  0  0  0  0  0  0  0  0
   -0.2849   -1.6969    1.7556 H   0  0  0  0  0  0  0  0  0  0  0  0
    0.5862   -2.1718   -1.8782 H   0  0  0  0  0  0  0  0  0  0  0  0
    0.8152   -0.4634   -2.3254 H   0  0  0  0  0  0  0  0  0  0  0  0
   -0.8078   -1.0890   -2.0541 H   0  0  0  0  0  0  0  0  0  0  0  0
    4.1824   -0.5197    1.6612 H   0  0  0  0  0  0  0  0  0  0  0  0
    5.8857   -1.8932    0.5387 H   0  0  0  0  0  0  0  0  0  0  0  0
    6.5013   -0.9015    1.8825 H   0  0  0  0  0  0  0  0  0  0  0  0
  1 30  1  0  0  0  0
  1 31  1  0  0  0  0
  1 32  1  0  0  0  0
  2  1  1  0  0  0  0
  2  3  1  0  0  0  0
  2 33  1  6  0  0  0
  3  4  1  0  0  0  0
  3 34  1  0  0  0  0
  3 35  1  0  0  0  0
  4 36  1  0  0  0  0
  4 37  1  0  0  0  0
  5  4  1  0  0  0  0
  5  6  1  0  0  0  0
  5 28  1  0  0  0  0
  5 27  1  6  0  0  0
  6 38  1  0  0  0  0
  6 39  1  0  0  0  0
  7  6  1  0  0  0  0
  7  8  1  0  0  0  0
  7 40  1  1  0  0  0
  8  9  1  0  0  0  0
  8 27  1  0  0  0  0
  8 41  1  1  0  0  0
  9 42  1  0  0  0  0
  9 43  1  0  0  0  0
 10  9  1  0  0  0  0
 10 11  1  0  0  0  0
 10 44  1  1  0  0  0
 11 12  1  0  0  0  0
 11 45  1  6  0  0  0
 12 13  1  0  0  0  0
 12 46  1  0  0  0  0
 12 47  1  0  0  0  0
 13 14  2  0  0  0  0
 13 48  1  0  0  0  0
 14 15  1  0  0  0  0
 15 16  1  0  0  0  0
 15 49  1  0  0  0  0
 15 50  1  0  0  0  0
 16 17  1  0  0  0  0
 16 18  1  0  0  0  0
 16 51  1  1  0  0  0
 17 52  1  0  0  0  0
 18 19  1  0  0  0  0
 18 53  1  0  0  0  0
 18 54  1  0  0  0  0
 19 20  1  0  0  0  0
 19 55  1  0  0  0  0
 19 56  1  0  0  0  0
 20 21  1  6  0  0  0
 20 22  1  0  0  0  0
 20 14  1  0  0  0  0
 21 57  1  0  0  0  0
 21 58  1  0  0  0  0
 21 59  1  0  0  0  0
 22 23  1  0  0  0  0
 22 11  1  0  0  0  0
 22 60  1  1  0  0  0
 23 24  1  0  0  0  0
 23 61  1  0  0  0  0
 23 62  1  0  0  0  0
 24 25  1  0  0  0  0
 24 63  1  0  0  0  0
 24 64  1  0  0  0  0
 25 26  1  6  0  0  0
 25  7  1  0  0  0  0
 25 10  1  0  0  0  0
 26 65  1  0  0  0  0
 26 66  1  0  0  0  0
 26 67  1  0  0  0  0
 28 29  1  0  0  0  0
 28 68  1  0  0  0  0
 29  2  1  0  0  0  0
 29 69  1  0  0  0  0
 29 70  1  0  0  0  0
M  END
>  <IDENTIFIER>
CNP0227700.1

>  <Energy>
993.164

$$$$
