
 OpenBabel09052509563D

 34 35  0  0  0  0  0  0  0  0999 V2000
   -2.8752    1.7695    0.7248 C   0  0  0  0  0  0  0  0  0  0  0  0
   -3.9414    0.7268    0.8982 C   0  0  0  0  0  0  0  0  0  0  0  0
   -5.2010    0.8935    0.5203 C   0  0  0  0  0  0  0  0  0  0  0  0
   -5.8891   -0.3123    0.9026 C   0  0  0  0  0  0  0  0  0  0  0  0
   -7.0748   -0.5338    0.7202 O   0  0  0  0  0  0  0  0  0  0  0  0
   -5.0554   -1.1737    1.5070 O   0  0  0  0  0  0  0  0  0  0  0  0
   -3.7780   -0.6400    1.5460 C   0  0  1  0  0  0  0  0  0  0  0  0
   -2.8281   -1.5798    0.7906 C   0  0  0  0  0  0  0  0  0  0  0  0
   -1.5105   -1.1590    0.8688 O   0  0  0  0  0  0  0  0  0  0  0  0
   -0.7268   -0.8457   -0.1960 C   0  0  0  0  0  0  0  0  0  0  0  0
   -1.2076   -0.7422   -1.3176 O   0  0  0  0  0  0  0  0  0  0  0  0
    0.7232   -0.6295    0.0162 C   0  0  0  0  0  0  0  0  0  0  0  0
    1.5329   -0.2229   -0.9809 C   0  0  0  0  0  0  0  0  0  0  0  0
    3.0016   -0.0091   -0.8565 C   0  0  0  0  0  0  0  0  0  0  0  0
    3.6855    0.5406   -1.9556 C   0  0  0  0  0  0  0  0  0  0  0  0
    5.0650    0.7561   -1.9041 C   0  0  0  0  0  0  0  0  0  0  0  0
    5.7878    0.4180   -0.7532 C   0  0  0  0  0  0  0  0  0  0  0  0
    7.1205    0.6148   -0.6925 O   0  0  0  0  0  0  0  0  0  0  0  0
    5.1201   -0.1319    0.3447 C   0  0  0  0  0  0  0  0  0  0  0  0
    3.7378   -0.3430    0.3000 C   0  0  0  0  0  0  0  0  0  0  0  0
   -3.2898    2.6833    0.2472 H   0  0  0  0  0  0  0  0  0  0  0  0
   -2.0605    1.3945    0.0818 H   0  0  0  0  0  0  0  0  0  0  0  0
   -2.4638    2.0438    1.7176 H   0  0  0  0  0  0  0  0  0  0  0  0
   -5.6230    1.7650    0.0362 H   0  0  0  0  0  0  0  0  0  0  0  0
   -3.4526   -0.5305    2.6035 H   0  0  0  0  0  0  0  0  0  0  0  0
   -3.1750   -1.6881   -0.2615 H   0  0  0  0  0  0  0  0  0  0  0  0
   -2.8847   -2.5837    1.2623 H   0  0  0  0  0  0  0  0  0  0  0  0
    1.1052   -0.8135    1.0119 H   0  0  0  0  0  0  0  0  0  0  0  0
    1.0915   -0.0274   -1.9552 H   0  0  0  0  0  0  0  0  0  0  0  0
    3.1493    0.8084   -2.8580 H   0  0  0  0  0  0  0  0  0  0  0  0
    5.5703    1.1837   -2.7611 H   0  0  0  0  0  0  0  0  0  0  0  0
    7.6186    0.9913   -1.4321 H   0  0  0  0  0  0  0  0  0  0  0  0
    5.6745   -0.3993    1.2356 H   0  0  0  0  0  0  0  0  0  0  0  0
    3.2669   -0.7765    1.1692 H   0  0  0  0  0  0  0  0  0  0  0  0
  1  2  1  0  0  0  0
  1 21  1  0  0  0  0
  1 22  1  0  0  0  0
  1 23  1  0  0  0  0
  2  3  2  0  0  0  0
  3  4  1  0  0  0  0
  3 24  1  0  0  0  0
  4  5  2  0  0  0  0
  4  6  1  0  0  0  0
  6  7  1  0  0  0  0
  7  8  1  0  0  0  0
  7  2  1  0  0  0  0
  7 25  1  1  0  0  0
  8  9  1  0  0  0  0
  8 26  1  0  0  0  0
  8 27  1  0  0  0  0
  9 10  1  0  0  0  0
 10 11  2  0  0  0  0
 10 12  1  0  0  0  0
 12 13  2  0  0  0  0
 12 28  1  0  0  0  0
 13 14  1  0  0  0  0
 13 29  1  0  0  0  0
 14 15  2  0  0  0  0
 15 16  1  0  0  0  0
 15 30  1  0  0  0  0
 16 17  2  0  0  0  0
 16 31  1  0  0  0  0
 17 18  1  0  0  0  0
 17 19  1  0  0  0  0
 18 32  1  0  0  0  0
 19 20  2  0  0  0  0
 19 33  1  0  0  0  0
 20 14  1  0  0  0  0
 20 34  1  0  0  0  0
M  END
>  <IDENTIFIER>
CNP0293420.1

>  <Energy>
209.365

$$$$
