
 OpenBabel09112504103D

 42 43  0  0  0  0  0  0  0  0999 V2000
   -1.4818    3.5740    0.0899 C   0  0  0  0  0  0  0  0  0  0  0  0
   -0.7603    2.4444   -0.0086 C   0  0  0  0  0  0  0  0  0  0  0  0
    0.7427    2.5082   -0.1200 C   0  0  0  0  0  0  0  0  0  0  0  0
    1.2835    1.6136    1.0034 C   0  0  0  0  0  0  0  0  0  0  0  0
    0.9638    0.0917    0.7643 C   0  0  2  0  0  0  0  0  0  0  0  0
    2.2258   -0.6924    0.1565 C   0  0  0  0  0  0  0  0  0  0  0  0
    2.7606   -0.0329   -1.1382 C   0  0  0  0  0  0  0  0  0  0  0  0
    3.3793   -0.7285    1.1966 C   0  0  0  0  0  0  0  0  0  0  0  0
    1.9100   -2.1684   -0.1746 C   0  0  0  0  0  0  0  0  0  0  0  0
   -0.3791   -0.0629   -0.0630 C   0  0  1  0  0  0  0  0  0  0  0  0
   -1.0859   -1.3957    0.1387 C   0  0  0  0  0  0  0  0  0  0  0  0
   -2.3916   -1.5779   -0.1641 C   0  0  0  0  0  0  0  0  0  0  0  0
   -3.0529   -2.9057    0.0997 C   0  0  0  0  0  0  0  0  0  0  0  0
   -3.2668   -0.4493   -0.6738 C   0  0  0  0  0  0  0  0  0  0  0  0
   -2.5145    0.8619   -0.9437 C   0  0  0  0  0  0  0  0  0  0  0  0
   -1.4208    1.0834    0.1242 C   0  0  2  0  0  0  0  0  0  0  0  0
   -1.0068    4.5486    0.0408 H   0  0  0  0  0  0  0  0  0  0  0  0
   -2.5578    3.5428    0.2252 H   0  0  0  0  0  0  0  0  0  0  0  0
    1.1013    3.5528    0.0105 H   0  0  0  0  0  0  0  0  0  0  0  0
    1.0850    2.1508   -1.1111 H   0  0  0  0  0  0  0  0  0  0  0  0
    0.7814    1.9480    1.9410 H   0  0  0  0  0  0  0  0  0  0  0  0
    2.3561    1.8050    1.1730 H   0  0  0  0  0  0  0  0  0  0  0  0
    0.7816   -0.3337    1.7769 H   0  0  0  0  0  0  0  0  0  0  0  0
    3.1059    1.0044   -0.9508 H   0  0  0  0  0  0  0  0  0  0  0  0
    1.9935   -0.0180   -1.9380 H   0  0  0  0  0  0  0  0  0  0  0  0
    3.6370   -0.5938   -1.5290 H   0  0  0  0  0  0  0  0  0  0  0  0
    3.7719    0.2708    1.4582 H   0  0  0  0  0  0  0  0  0  0  0  0
    4.2451   -1.3047    0.8028 H   0  0  0  0  0  0  0  0  0  0  0  0
    3.0415   -1.2221    2.1336 H   0  0  0  0  0  0  0  0  0  0  0  0
    1.1460   -2.2501   -0.9738 H   0  0  0  0  0  0  0  0  0  0  0  0
    1.5827   -2.7180    0.7334 H   0  0  0  0  0  0  0  0  0  0  0  0
    2.8156   -2.6876   -0.5588 H   0  0  0  0  0  0  0  0  0  0  0  0
   -0.0921    0.0106   -1.1326 H   0  0  0  0  0  0  0  0  0  0  0  0
   -0.5618   -2.2173    0.6030 H   0  0  0  0  0  0  0  0  0  0  0  0
   -2.3416   -3.6583    0.5023 H   0  0  0  0  0  0  0  0  0  0  0  0
   -3.4790   -3.3003   -0.8459 H   0  0  0  0  0  0  0  0  0  0  0  0
   -3.8720   -2.7719    0.8372 H   0  0  0  0  0  0  0  0  0  0  0  0
   -4.0095   -0.2633    0.1327 H   0  0  0  0  0  0  0  0  0  0  0  0
   -3.8213   -0.7416   -1.5912 H   0  0  0  0  0  0  0  0  0  0  0  0
   -3.2600    1.6835   -0.9839 H   0  0  0  0  0  0  0  0  0  0  0  0
   -2.0272    0.8142   -1.9427 H   0  0  0  0  0  0  0  0  0  0  0  0
   -1.8711    1.0431    1.1423 H   0  0  0  0  0  0  0  0  0  0  0  0
  1  2  2  0  0  0  0
  1 17  1  0  0  0  0
  1 18  1  0  0  0  0
  2  3  1  0  0  0  0
  3  4  1  0  0  0  0
  3 19  1  0  0  0  0
  3 20  1  0  0  0  0
  4  5  1  0  0  0  0
  4 21  1  0  0  0  0
  4 22  1  0  0  0  0
  5  6  1  0  0  0  0
  5 10  1  0  0  0  0
  5 23  1  1  0  0  0
  6  7  1  0  0  0  0
  6  8  1  0  0  0  0
  6  9  1  0  0  0  0
  7 24  1  0  0  0  0
  7 25  1  0  0  0  0
  7 26  1  0  0  0  0
  8 27  1  0  0  0  0
  8 28  1  0  0  0  0
  8 29  1  0  0  0  0
  9 30  1  0  0  0  0
  9 31  1  0  0  0  0
  9 32  1  0  0  0  0
 10 11  1  0  0  0  0
 10 33  1  6  0  0  0
 11 12  2  0  0  0  0
 11 34  1  0  0  0  0
 12 13  1  0  0  0  0
 12 14  1  0  0  0  0
 13 35  1  0  0  0  0
 13 36  1  0  0  0  0
 13 37  1  0  0  0  0
 14 15  1  0  0  0  0
 14 38  1  0  0  0  0
 14 39  1  0  0  0  0
 15 40  1  0  0  0  0
 15 41  1  0  0  0  0
 16 15  1  0  0  0  0
 16  2  1  0  0  0  0
 16 10  1  0  0  0  0
 16 42  1  1  0  0  0
M  END
>  <IDENTIFIER>
CNP0160785.0

>  <Energy>
338.83

$$$$
