
 OpenBabel09082503113D

 98110  0  0  0  0  0  0  0  0999 V2000
    8.4681   -2.6071    2.5252 C   0  0  0  0  0  0  0  0  0  0  0  0
    7.4762   -2.1252    1.6970 O   0  0  0  0  0  0  0  0  0  0  0  0
    6.1612   -2.0916    2.0233 C   0  0  0  0  0  0  0  0  0  0  0  0
    5.7991   -2.5665    3.0924 O   0  0  0  0  0  0  0  0  0  0  0  0
    5.1314   -1.4896    1.1091 C   0  0  0  0  0  0  0  0  0  0  0  0
    5.4343   -0.8077   -0.0502 C   0  0  0  0  0  0  0  0  0  0  0  0
    6.7477   -0.4047   -0.4103 N   0  0  0  0  0  0  0  0  0  0  0  0
    6.5980    0.8934   -0.9268 C   0  0  0  0  0  0  0  0  0  0  0  0
    7.6252    1.8098   -1.1519 C   0  0  0  0  0  0  0  0  0  0  0  0
    7.2861    3.0923   -1.6101 C   0  0  0  0  0  0  0  0  0  0  0  0
    5.9391    3.4330   -1.8371 C   0  0  0  0  0  0  0  0  0  0  0  0
    4.9202    2.4938   -1.6108 C   0  0  0  0  0  0  0  0  0  0  0  0
    5.2727    1.2214   -1.1419 C   0  0  0  0  0  0  0  0  0  0  0  0
    4.4212    0.0112   -0.8352 C   0  0  1  0  0  0  0  0  0  0  0  0
    3.8762   -0.5300   -2.1738 C   0  0  0  0  0  0  0  0  0  0  0  0
    2.5692    0.2786   -2.3675 C   0  0  0  0  0  0  0  0  0  0  0  0
    2.2252    0.7516   -1.0207 N   0  0  2  0  0  0  0  0  0  0  0  0
    0.9422    1.2164   -0.5024 C   0  0  0  0  0  0  0  0  0  0  0  0
    0.1836    0.1336    0.3483 C   0  0  2  0  0  0  0  0  0  0  0  0
   -0.7443   -0.7633   -0.6344 C   0  0  0  0  0  0  0  0  0  0  0  0
   -2.2516   -0.7475   -0.2420 C   0  0  2  0  0  0  0  0  0  0  0  0
   -3.2785   -1.4944   -1.1827 C   0  0  0  0  0  0  0  0  0  0  0  0
   -4.7475   -0.8552   -1.3121 C   0  0  1  0  0  0  0  0  0  0  0  0
   -4.9390    0.0984   -2.5341 C   0  0  0  0  0  0  0  0  0  0  0  0
   -6.3743   -0.1248   -2.8427 C   0  0  0  0  0  0  0  0  0  0  0  0
   -7.0119    0.5231   -3.6567 O   0  0  0  0  0  0  0  0  0  0  0  0
   -6.8777   -1.1972   -2.2204 O   0  0  0  0  0  0  0  0  0  0  0  0
   -5.8508   -1.9177   -1.6556 C   0  0  2  0  0  0  0  0  0  0  0  0
   -6.3544   -2.7455   -0.4580 C   0  0  0  0  0  0  0  0  0  0  0  0
   -6.7269   -1.8312    0.7095 C   0  0  0  0  0  0  0  0  0  0  0  0
   -5.5219   -1.0705    1.0170 N   0  0  2  0  0  0  0  0  0  0  0  0
   -5.4671   -0.3492    2.2671 C   0  0  0  0  0  0  0  0  0  0  0  0
   -4.0826    0.2247    2.1474 C   0  0  0  0  0  0  0  0  0  0  0  0
   -4.0552    0.7848    0.6674 C   0  0  1  0  0  0  0  0  0  0  0  0
   -4.0249    2.2738    0.9149 C   0  0  0  0  0  0  0  0  0  0  0  0
   -5.0341    3.1939    1.1847 C   0  0  0  0  0  0  0  0  0  0  0  0
   -4.6538    4.4865    1.5926 C   0  0  0  0  0  0  0  0  0  0  0  0
   -3.2895    4.8193    1.7597 C   0  0  0  0  0  0  0  0  0  0  0  0
   -2.2829    3.8697    1.5114 C   0  0  0  0  0  0  0  0  0  0  0  0
   -2.6768    2.6084    1.0787 C   0  0  0  0  0  0  0  0  0  0  0  0
   -1.8506    1.5183    0.6996 N   0  0  0  0  0  0  0  0  0  0  0  0
   -0.7077    0.9511    1.3683 C   0  0  0  0  0  0  0  0  0  0  0  0
   -2.7010    0.6903   -0.0827 C   0  0  1  0  0  0  0  0  0  0  0  0
   -2.7862    1.2861   -1.3605 O   0  0  0  0  0  0  0  0  0  0  0  0
   -5.1784   -0.0771   -0.0086 C   0  0  1  0  0  0  0  0  0  0  0  0
    1.2100   -0.7053    1.2581 C   0  0  1  0  0  0  0  0  0  0  0  0
    0.6090   -1.9389    1.6177 O   0  0  0  0  0  0  0  0  0  0  0  0
    1.2550   -2.9479    0.8479 C   0  0  0  0  0  0  0  0  0  0  0  0
    2.1952   -2.2624   -0.1526 C   0  0  0  0  0  0  0  0  0  0  0  0
    2.5967   -1.0319    0.6364 C   0  0  2  0  0  0  0  0  0  0  0  0
    3.6928   -1.4688    1.6628 C   0  0  0  0  0  0  0  0  0  0  0  0
    3.1586    0.2507   -0.0434 C   0  0  1  0  0  0  0  0  0  0  0  0
    9.4480   -2.5075    2.0150 H   0  0  0  0  0  0  0  0  0  0  0  0
    8.2892   -3.6786    2.7565 H   0  0  0  0  0  0  0  0  0  0  0  0
    8.4965   -2.0185    3.4676 H   0  0  0  0  0  0  0  0  0  0  0  0
    7.6498   -0.7546   -0.0722 H   0  0  0  0  0  0  0  0  0  0  0  0
    8.6573    1.5457   -0.9618 H   0  0  0  0  0  0  0  0  0  0  0  0
    8.0632    3.8254   -1.7828 H   0  0  0  0  0  0  0  0  0  0  0  0
    5.6865    4.4260   -2.1857 H   0  0  0  0  0  0  0  0  0  0  0  0
    3.8903    2.7682   -1.7841 H   0  0  0  0  0  0  0  0  0  0  0  0
    3.6131   -1.5865   -2.0564 H   0  0  0  0  0  0  0  0  0  0  0  0
    4.5744   -0.5151   -3.0393 H   0  0  0  0  0  0  0  0  0  0  0  0
    1.7703   -0.3162   -2.8579 H   0  0  0  0  0  0  0  0  0  0  0  0
    2.7765    1.1760   -2.9857 H   0  0  0  0  0  0  0  0  0  0  0  0
    0.3238    1.6734   -1.2999 H   0  0  0  0  0  0  0  0  0  0  0  0
    1.2145    2.0647    0.1628 H   0  0  0  0  0  0  0  0  0  0  0  0
   -0.4538   -1.8179   -0.7086 H   0  0  0  0  0  0  0  0  0  0  0  0
   -0.6687   -0.3770   -1.6722 H   0  0  0  0  0  0  0  0  0  0  0  0
   -2.2791   -1.2552    0.7331 H   0  0  0  0  0  0  0  0  0  0  0  0
   -3.3385   -2.5331   -0.7921 H   0  0  0  0  0  0  0  0  0  0  0  0
   -2.8724   -1.5900   -2.2120 H   0  0  0  0  0  0  0  0  0  0  0  0
   -4.3667   -0.2100   -3.4349 H   0  0  0  0  0  0  0  0  0  0  0  0
   -4.7981    1.1713   -2.3084 H   0  0  0  0  0  0  0  0  0  0  0  0
   -5.4750   -2.6105   -2.4442 H   0  0  0  0  0  0  0  0  0  0  0  0
   -5.5354   -3.4178   -0.1212 H   0  0  0  0  0  0  0  0  0  0  0  0
   -7.2185   -3.3767   -0.7572 H   0  0  0  0  0  0  0  0  0  0  0  0
   -7.0155   -2.4614    1.5791 H   0  0  0  0  0  0  0  0  0  0  0  0
   -7.5771   -1.1586    0.4568 H   0  0  0  0  0  0  0  0  0  0  0  0
   -5.5650   -1.0168    3.1505 H   0  0  0  0  0  0  0  0  0  0  0  0
   -6.2424    0.4516    2.3024 H   0  0  0  0  0  0  0  0  0  0  0  0
   -3.4252   -0.6496    2.2836 H   0  0  0  0  0  0  0  0  0  0  0  0
   -3.8045    0.9236    2.9698 H   0  0  0  0  0  0  0  0  0  0  0  0
   -6.0771    2.9169    1.1095 H   0  0  0  0  0  0  0  0  0  0  0  0
   -5.4139    5.2265    1.8056 H   0  0  0  0  0  0  0  0  0  0  0  0
   -3.0157    5.8151    2.0838 H   0  0  0  0  0  0  0  0  0  0  0  0
   -1.2359    4.1205    1.6252 H   0  0  0  0  0  0  0  0  0  0  0  0
   -1.0965    0.2583    2.1460 H   0  0  0  0  0  0  0  0  0  0  0  0
   -0.1330    1.7313    1.9110 H   0  0  0  0  0  0  0  0  0  0  0  0
   -1.8831    1.5495   -1.6698 H   0  0  0  0  0  0  0  0  0  0  0  0
   -6.0765    0.5634   -0.1805 H   0  0  0  0  0  0  0  0  0  0  0  0
    1.4490   -0.0954    2.1581 H   0  0  0  0  0  0  0  0  0  0  0  0
    0.5339   -3.6100    0.3238 H   0  0  0  0  0  0  0  0  0  0  0  0
    1.8183   -3.5952    1.5487 H   0  0  0  0  0  0  0  0  0  0  0  0
    1.6145   -1.9489   -1.0363 H   0  0  0  0  0  0  0  0  0  0  0  0
    3.0100   -2.9343   -0.4987 H   0  0  0  0  0  0  0  0  0  0  0  0
    3.4651   -2.4340    2.1488 H   0  0  0  0  0  0  0  0  0  0  0  0
    3.7178   -0.7333    2.4964 H   0  0  0  0  0  0  0  0  0  0  0  0
    3.3477    1.0108    0.7503 H   0  0  0  0  0  0  0  0  0  0  0  0
  1  2  1  0  0  0  0
  1 53  1  0  0  0  0
  1 54  1  0  0  0  0
  1 55  1  0  0  0  0
  2  3  1  0  0  0  0
  3  4  2  0  0  0  0
  3  5  1  0  0  0  0
  5  6  2  0  0  0  0
  6  7  1  0  0  0  0
  7  8  1  0  0  0  0
  7 56  1  0  0  0  0
  8  9  2  0  0  0  0
  9 10  1  0  0  0  0
  9 57  1  0  0  0  0
 10 11  2  0  0  0  0
 10 58  1  0  0  0  0
 11 12  1  0  0  0  0
 11 59  1  0  0  0  0
 12 13  2  0  0  0  0
 12 60  1  0  0  0  0
 13  8  1  0  0  0  0
 14 13  1  6  0  0  0
 14 15  1  0  0  0  0
 14  6  1  0  0  0  0
 15 16  1  0  0  0  0
 15 61  1  0  0  0  0
 15 62  1  0  0  0  0
 16 63  1  0  0  0  0
 16 64  1  0  0  0  0
 17 16  1  1  0  0  0
 17 18  1  0  0  0  0
 18 65  1  0  0  0  0
 18 66  1  0  0  0  0
 19 18  1  6  0  0  0
 19 20  1  0  0  0  0
 19 46  1  0  0  0  0
 20 67  1  0  0  0  0
 20 68  1  0  0  0  0
 21 20  1  0  0  0  0
 21 22  1  0  0  0  0
 21 69  1  1  0  0  0
 22 70  1  0  0  0  0
 22 71  1  0  0  0  0
 23 22  1  1  0  0  0
 23 24  1  0  0  0  0
 24 25  1  0  0  0  0
 24 72  1  0  0  0  0
 24 73  1  0  0  0  0
 25 26  2  0  0  0  0
 25 27  1  0  0  0  0
 27 28  1  0  0  0  0
 28 29  1  0  0  0  0
 28 23  1  0  0  0  0
 28 74  1  6  0  0  0
 29 30  1  0  0  0  0
 29 75  1  0  0  0  0
 29 76  1  0  0  0  0
 30 77  1  0  0  0  0
 30 78  1  0  0  0  0
 31 30  1  6  0  0  0
 31 32  1  0  0  0  0
 32 33  1  0  0  0  0
 32 79  1  0  0  0  0
 32 80  1  0  0  0  0
 33 81  1  0  0  0  0
 33 82  1  0  0  0  0
 34 33  1  0  0  0  0
 34 35  1  1  0  0  0
 34 45  1  0  0  0  0
 35 36  2  0  0  0  0
 36 37  1  0  0  0  0
 36 83  1  0  0  0  0
 37 38  2  0  0  0  0
 37 84  1  0  0  0  0
 38 39  1  0  0  0  0
 38 85  1  0  0  0  0
 39 40  2  0  0  0  0
 39 86  1  0  0  0  0
 40 41  1  0  0  0  0
 40 35  1  0  0  0  0
 41 42  1  0  0  0  0
 41 43  1  0  0  0  0
 42 19  1  0  0  0  0
 42 87  1  0  0  0  0
 42 88  1  0  0  0  0
 43 44  1  6  0  0  0
 43 21  1  0  0  0  0
 43 34  1  0  0  0  0
 44 89  1  0  0  0  0
 45 31  1  0  0  0  0
 45 23  1  0  0  0  0
 45 90  1  6  0  0  0
 46 47  1  0  0  0  0
 46 91  1  1  0  0  0
 47 48  1  0  0  0  0
 48 49  1  0  0  0  0
 48 92  1  0  0  0  0
 48 93  1  0  0  0  0
 49 94  1  0  0  0  0
 49 95  1  0  0  0  0
 50 49  1  6  0  0  0
 50 51  1  0  0  0  0
 50 52  1  0  0  0  0
 50 46  1  0  0  0  0
 51  5  1  0  0  0  0
 51 96  1  0  0  0  0
 51 97  1  0  0  0  0
 52 17  1  0  0  0  0
 52 14  1  0  0  0  0
 52 98  1  1  0  0  0
M  END
>  <IDENTIFIER>
CNP0136846.0

>  <Energy>
2210.85

$$$$
