
 OpenBabel09062502303D

 69 73  0  0  0  0  0  0  0  0999 V2000
   -6.7779    1.2839    1.2226 C   0  0  0  0  0  0  0  0  0  0  0  0
   -5.7798    0.1676    0.8172 C   0  0  1  0  0  0  0  0  0  0  0  0
   -6.1808   -0.3682   -0.5675 C   0  0  0  0  0  0  0  0  0  0  0  0
   -6.0514    0.7211   -1.6403 C   0  0  0  0  0  0  0  0  0  0  0  0
   -4.7310    1.4403   -1.5550 C   0  0  0  0  0  0  0  0  0  0  0  0
   -3.9129    1.3838   -0.4759 C   0  0  0  0  0  0  0  0  0  0  0  0
   -2.5332    2.0032   -0.5480 C   0  0  0  0  0  0  0  0  0  0  0  0
   -1.4595    0.9336   -0.2455 C   0  0  1  0  0  0  0  0  0  0  0  0
   -0.7943    1.1046    0.9451 O   0  0  0  0  0  0  0  0  0  0  0  0
   -0.3037   -0.0896    1.3596 C   0  0  0  0  0  0  0  0  0  0  0  0
    0.0873   -0.2500    2.5046 O   0  0  0  0  0  0  0  0  0  0  0  0
   -0.7595   -1.2248    0.4770 C   0  0  2  0  0  0  0  0  0  0  0  0
    0.2571   -1.5876   -0.6462 C   0  0  0  0  0  0  0  0  0  0  0  0
    1.5158   -2.2314   -0.1862 N   0  0  0  0  0  0  0  0  0  0  0  0
    2.2444   -2.8261   -1.3487 C   0  0  0  0  0  0  0  0  0  0  0  0
    3.1325   -1.7766   -2.0313 C   0  0  0  0  0  0  0  0  0  0  0  0
    4.2652   -1.2737   -1.0781 C   0  0  1  0  0  0  0  0  0  0  0  0
    5.4411   -2.0138   -1.3065 O   0  0  0  0  0  0  0  0  0  0  0  0
    4.5123    0.2460   -1.3473 C   0  0  0  0  0  0  0  0  0  0  0  0
    5.6588    0.8352   -0.5518 C   0  0  0  0  0  0  0  0  0  0  0  0
    5.4102    1.7593    0.4799 C   0  0  0  0  0  0  0  0  0  0  0  0
    6.4711    2.3038    1.2117 C   0  0  0  0  0  0  0  0  0  0  0  0
    7.7869    1.9423    0.9136 C   0  0  0  0  0  0  0  0  0  0  0  0
    8.0454    1.0356   -0.1163 C   0  0  0  0  0  0  0  0  0  0  0  0
    6.9890    0.4826   -0.8445 C   0  0  0  0  0  0  0  0  0  0  0  0
    3.8601   -1.5249    0.4054 C   0  0  0  0  0  0  0  0  0  0  0  0
    2.3596   -1.2961    0.6206 C   0  0  0  0  0  0  0  0  0  0  0  0
   -1.9940   -0.5157   -0.1245 C   0  0  1  0  0  0  0  0  0  0  0  0
   -3.2201   -0.5972    0.8946 C   0  0  2  0  0  0  0  0  0  0  0  0
   -3.8419   -1.8624    0.8555 O   0  0  0  0  0  0  0  0  0  0  0  0
   -4.2554    0.6140    0.7989 C   0  0  2  0  0  0  0  0  0  0  0  0
   -3.9979    1.5435    2.0270 C   0  0  0  0  0  0  0  0  0  0  0  0
   -7.8204    0.9054    1.1634 H   0  0  0  0  0  0  0  0  0  0  0  0
   -6.6836    2.1814    0.5772 H   0  0  0  0  0  0  0  0  0  0  0  0
   -6.6218    1.5974    2.2751 H   0  0  0  0  0  0  0  0  0  0  0  0
   -5.9132   -0.6306    1.5798 H   0  0  0  0  0  0  0  0  0  0  0  0
   -7.2183   -0.7676   -0.5674 H   0  0  0  0  0  0  0  0  0  0  0  0
   -5.5146   -1.2046   -0.8457 H   0  0  0  0  0  0  0  0  0  0  0  0
   -6.8629    1.4759   -1.5827 H   0  0  0  0  0  0  0  0  0  0  0  0
   -6.1390    0.2167   -2.6265 H   0  0  0  0  0  0  0  0  0  0  0  0
   -4.4336    2.0135   -2.4285 H   0  0  0  0  0  0  0  0  0  0  0  0
   -2.4186    2.8651    0.1410 H   0  0  0  0  0  0  0  0  0  0  0  0
   -2.3628    2.4071   -1.5717 H   0  0  0  0  0  0  0  0  0  0  0  0
   -0.6941    1.0298   -1.0449 H   0  0  0  0  0  0  0  0  0  0  0  0
   -1.0328   -2.1540    1.0254 H   0  0  0  0  0  0  0  0  0  0  0  0
    0.5011   -0.7122   -1.2756 H   0  0  0  0  0  0  0  0  0  0  0  0
   -0.2908   -2.3044   -1.2995 H   0  0  0  0  0  0  0  0  0  0  0  0
    1.5352   -3.2568   -2.0888 H   0  0  0  0  0  0  0  0  0  0  0  0
    2.8759   -3.6760   -1.0093 H   0  0  0  0  0  0  0  0  0  0  0  0
    2.4546   -0.9406   -2.3021 H   0  0  0  0  0  0  0  0  0  0  0  0
    3.5585   -2.1401   -2.9907 H   0  0  0  0  0  0  0  0  0  0  0  0
    5.6990   -1.8905   -2.2575 H   0  0  0  0  0  0  0  0  0  0  0  0
    3.5759    0.7947   -1.1060 H   0  0  0  0  0  0  0  0  0  0  0  0
    4.7145    0.4267   -2.4257 H   0  0  0  0  0  0  0  0  0  0  0  0
    4.3967    2.0511    0.7259 H   0  0  0  0  0  0  0  0  0  0  0  0
    6.2735    3.0072    2.0102 H   0  0  0  0  0  0  0  0  0  0  0  0
    8.6077    2.3666    1.4775 H   0  0  0  0  0  0  0  0  0  0  0  0
    9.0653    0.7615   -0.3534 H   0  0  0  0  0  0  0  0  0  0  0  0
    7.2155   -0.2080   -1.6445 H   0  0  0  0  0  0  0  0  0  0  0  0
    4.4822   -0.9245    1.1024 H   0  0  0  0  0  0  0  0  0  0  0  0
    4.0447   -2.5905    0.6681 H   0  0  0  0  0  0  0  0  0  0  0  0
    2.1480   -0.2337    0.3763 H   0  0  0  0  0  0  0  0  0  0  0  0
    2.1374   -1.4635    1.6951 H   0  0  0  0  0  0  0  0  0  0  0  0
   -2.3334   -0.8943   -1.1142 H   0  0  0  0  0  0  0  0  0  0  0  0
   -2.7964   -0.5552    1.9217 H   0  0  0  0  0  0  0  0  0  0  0  0
   -3.7300   -2.2575   -0.0466 H   0  0  0  0  0  0  0  0  0  0  0  0
   -4.2809    1.0253    2.9686 H   0  0  0  0  0  0  0  0  0  0  0  0
   -4.5639    2.4951    1.9502 H   0  0  0  0  0  0  0  0  0  0  0  0
   -2.9314    1.8257    2.1269 H   0  0  0  0  0  0  0  0  0  0  0  0
  1 33  1  0  0  0  0
  1 34  1  0  0  0  0
  1 35  1  0  0  0  0
  2  1  1  0  0  0  0
  2  3  1  0  0  0  0
  2 36  1  1  0  0  0
  3  4  1  0  0  0  0
  3 37  1  0  0  0  0
  3 38  1  0  0  0  0
  4  5  1  0  0  0  0
  4 39  1  0  0  0  0
  4 40  1  0  0  0  0
  5  6  2  0  0  0  0
  5 41  1  0  0  0  0
  6  7  1  0  0  0  0
  7 42  1  0  0  0  0
  7 43  1  0  0  0  0
  8  7  1  0  0  0  0
  8  9  1  0  0  0  0
  8 44  1  6  0  0  0
  9 10  1  0  0  0  0
 10 11  2  0  0  0  0
 10 12  1  0  0  0  0
 12 13  1  0  0  0  0
 12 45  1  1  0  0  0
 13 14  1  0  0  0  0
 13 46  1  0  0  0  0
 13 47  1  0  0  0  0
 14 15  1  0  0  0  0
 15 16  1  0  0  0  0
 15 48  1  0  0  0  0
 15 49  1  0  0  0  0
 16 17  1  0  0  0  0
 16 50  1  0  0  0  0
 16 51  1  0  0  0  0
 17 18  1  6  0  0  0
 17 19  1  0  0  0  0
 17 26  1  0  0  0  0
 18 52  1  0  0  0  0
 19 20  1  0  0  0  0
 19 53  1  0  0  0  0
 19 54  1  0  0  0  0
 20 21  2  0  0  0  0
 21 22  1  0  0  0  0
 21 55  1  0  0  0  0
 22 23  2  0  0  0  0
 22 56  1  0  0  0  0
 23 24  1  0  0  0  0
 23 57  1  0  0  0  0
 24 25  2  0  0  0  0
 24 58  1  0  0  0  0
 25 20  1  0  0  0  0
 25 59  1  0  0  0  0
 26 27  1  0  0  0  0
 26 60  1  0  0  0  0
 26 61  1  0  0  0  0
 27 14  1  0  0  0  0
 27 62  1  0  0  0  0
 27 63  1  0  0  0  0
 28 12  1  0  0  0  0
 28 29  1  0  0  0  0
 28  8  1  0  0  0  0
 28 64  1  6  0  0  0
 29 30  1  0  0  0  0
 29 31  1  0  0  0  0
 29 65  1  1  0  0  0
 30 66  1  0  0  0  0
 31 32  1  1  0  0  0
 31  2  1  0  0  0  0
 31  6  1  0  0  0  0
 32 67  1  0  0  0  0
 32 68  1  0  0  0  0
 32 69  1  0  0  0  0
M  END
>  <IDENTIFIER>
CNP0355223.4

>  <Energy>
934.93

$$$$
