
 OpenBabel09092510313D

 49 51  0  0  0  0  0  0  0  0999 V2000
   -1.4499    4.6126    0.6997 C   0  0  0  0  0  0  0  0  0  0  0  0
   -1.9713    3.2227    0.9285 C   0  0  0  0  0  0  0  0  0  0  0  0
   -1.2929    2.0774    0.6579 C   0  0  0  0  0  0  0  0  0  0  0  0
   -1.9550    0.7532    0.9565 C   0  0  0  0  0  0  0  0  0  0  0  0
   -2.3042   -0.0176   -0.3441 C   0  0  2  0  0  0  0  0  0  0  0  0
   -3.4101    0.7431   -1.1090 C   0  0  0  0  0  0  0  0  0  0  0  0
   -2.6848   -1.5101   -0.0541 C   0  0  1  0  0  0  0  0  0  0  0  0
   -3.7755   -1.6519    1.0427 C   0  0  0  0  0  0  0  0  0  0  0  0
   -3.1284   -2.1140   -1.2508 O   0  0  0  0  0  0  0  0  0  0  0  0
   -1.4608   -2.3089    0.3722 C   0  0  0  0  0  0  0  0  0  0  0  0
   -1.6048   -3.5063    0.5908 O   0  0  0  0  0  0  0  0  0  0  0  0
   -0.2035   -1.7644    0.3792 O   0  0  0  0  0  0  0  0  0  0  0  0
    0.8940   -2.5786    0.1804 C   0  0  0  0  0  0  0  0  0  0  0  0
    2.2438   -1.8958    0.1676 C   0  0  0  0  0  0  0  0  0  0  0  0
    3.2963   -2.6192   -0.1685 C   0  0  0  0  0  0  0  0  0  0  0  0
    4.5408   -1.8467   -0.0820 C   0  0  0  0  0  0  0  0  0  0  0  0
    4.1334   -0.4566    0.1814 N   0  0  1  0  0  0  0  0  0  0  0  0
    4.1552    0.3754   -1.0563 C   0  0  0  0  0  0  0  0  0  0  0  0
    2.7039    0.6215   -1.4627 C   0  0  0  0  0  0  0  0  0  0  0  0
    2.1057    0.7302   -0.0923 C   0  0  1  0  0  0  0  0  0  0  0  0
    0.7281    0.8336   -0.0532 O   0  0  0  0  0  0  0  0  0  0  0  0
    0.0962    2.0359    0.1083 C   0  0  0  0  0  0  0  0  0  0  0  0
    0.6934    3.0735   -0.1435 O   0  0  0  0  0  0  0  0  0  0  0  0
    2.7036   -0.5046    0.5865 C   0  0  1  0  0  0  0  0  0  0  0  0
   -2.2192    5.3542    1.0011 H   0  0  0  0  0  0  0  0  0  0  0  0
   -1.2244    4.7647   -0.3769 H   0  0  0  0  0  0  0  0  0  0  0  0
   -0.5394    4.7872    1.3103 H   0  0  0  0  0  0  0  0  0  0  0  0
   -2.9766    3.1566    1.3366 H   0  0  0  0  0  0  0  0  0  0  0  0
   -2.8914    0.8973    1.5386 H   0  0  0  0  0  0  0  0  0  0  0  0
   -1.2623    0.1804    1.6078 H   0  0  0  0  0  0  0  0  0  0  0  0
   -1.4252   -0.0420   -1.0246 H   0  0  0  0  0  0  0  0  0  0  0  0
   -4.3427    0.8088   -0.5122 H   0  0  0  0  0  0  0  0  0  0  0  0
   -3.6332    0.2498   -2.0775 H   0  0  0  0  0  0  0  0  0  0  0  0
   -3.0780    1.7743   -1.3510 H   0  0  0  0  0  0  0  0  0  0  0  0
   -4.6974   -1.1001    0.7667 H   0  0  0  0  0  0  0  0  0  0  0  0
   -3.4167   -1.2800    2.0247 H   0  0  0  0  0  0  0  0  0  0  0  0
   -4.0520   -2.7203    1.1732 H   0  0  0  0  0  0  0  0  0  0  0  0
   -4.0904   -1.9075   -1.3840 H   0  0  0  0  0  0  0  0  0  0  0  0
    0.7660   -3.0537   -0.8192 H   0  0  0  0  0  0  0  0  0  0  0  0
    0.9219   -3.3858    0.9466 H   0  0  0  0  0  0  0  0  0  0  0  0
    3.2564   -3.6675   -0.4394 H   0  0  0  0  0  0  0  0  0  0  0  0
    5.1331   -1.9534   -1.0162 H   0  0  0  0  0  0  0  0  0  0  0  0
    5.1482   -2.2389    0.7611 H   0  0  0  0  0  0  0  0  0  0  0  0
    4.7710   -0.0115   -1.8967 H   0  0  0  0  0  0  0  0  0  0  0  0
    4.5994    1.3547   -0.7679 H   0  0  0  0  0  0  0  0  0  0  0  0
    2.2861   -0.2703   -1.9814 H   0  0  0  0  0  0  0  0  0  0  0  0
    2.5683    1.5174   -2.1051 H   0  0  0  0  0  0  0  0  0  0  0  0
    2.5551    1.6217    0.4158 H   0  0  0  0  0  0  0  0  0  0  0  0
    2.5766   -0.4245    1.6880 H   0  0  0  0  0  0  0  0  0  0  0  0
  1  2  1  0  0  0  0
  1 25  1  0  0  0  0
  1 26  1  0  0  0  0
  1 27  1  0  0  0  0
  2  3  2  0  0  0  0
  2 28  1  0  0  0  0
  3  4  1  0  0  0  0
  4  5  1  0  0  0  0
  4 29  1  0  0  0  0
  4 30  1  0  0  0  0
  5  6  1  0  0  0  0
  5  7  1  0  0  0  0
  5 31  1  6  0  0  0
  6 32  1  0  0  0  0
  6 33  1  0  0  0  0
  6 34  1  0  0  0  0
  7  8  1  0  0  0  0
  7  9  1  6  0  0  0
  7 10  1  0  0  0  0
  8 35  1  0  0  0  0
  8 36  1  0  0  0  0
  8 37  1  0  0  0  0
  9 38  1  0  0  0  0
 10 11  2  0  0  0  0
 10 12  1  0  0  0  0
 12 13  1  0  0  0  0
 13 14  1  0  0  0  0
 13 39  1  0  0  0  0
 13 40  1  0  0  0  0
 14 15  2  0  0  0  0
 15 16  1  0  0  0  0
 15 41  1  0  0  0  0
 16 42  1  0  0  0  0
 16 43  1  0  0  0  0
 17 16  1  6  0  0  0
 17 18  1  0  0  0  0
 18 19  1  0  0  0  0
 18 44  1  0  0  0  0
 18 45  1  0  0  0  0
 19 46  1  0  0  0  0
 19 47  1  0  0  0  0
 20 19  1  0  0  0  0
 20 21  1  0  0  0  0
 20 24  1  0  0  0  0
 20 48  1  1  0  0  0
 21 22  1  0  0  0  0
 22 23  2  0  0  0  0
 22  3  1  0  0  0  0
 24 14  1  0  0  0  0
 24 17  1  0  0  0  0
 24 49  1  1  0  0  0
M  END
>  <IDENTIFIER>
CNP0202525.16

>  <Energy>
493.491

$$$$
