
 OpenBabel09062510573D

 46 50  0  0  0  0  0  0  0  0999 V2000
   -5.4205    0.0463   -1.1580 O   0  0  0  0  0  0  0  0  0  0  0  0
   -4.2642   -0.3135   -1.3068 C   0  0  0  0  0  0  0  0  0  0  0  0
   -3.1932    0.6592   -1.7031 C   0  0  0  0  0  0  0  0  0  0  0  0
   -2.0036    0.4838   -0.7370 C   0  0  1  0  0  0  0  0  0  0  0  0
   -2.3149    0.9246    0.7022 C   0  0  0  0  0  0  0  0  0  0  0  0
   -1.8859    0.1792    1.8239 C   0  0  0  0  0  0  0  0  0  0  0  0
   -2.1630    0.6176    3.1185 C   0  0  0  0  0  0  0  0  0  0  0  0
   -2.8810    1.7954    3.3025 C   0  0  0  0  0  0  0  0  0  0  0  0
   -3.2876    2.5155    2.2267 N   0  0  0  0  0  0  0  0  0  0  0  0
   -3.0166    2.1228    0.9533 C   0  0  0  0  0  0  0  0  0  0  0  0
   -1.5895   -0.9910   -0.8138 C   0  0  0  0  0  0  0  0  0  0  0  0
   -2.6072   -1.9702   -0.9703 C   0  0  0  0  0  0  0  0  0  0  0  0
   -2.2780   -3.3228   -1.0047 C   0  0  0  0  0  0  0  0  0  0  0  0
   -0.9476   -3.7401   -0.8956 C   0  0  0  0  0  0  0  0  0  0  0  0
   -0.6615   -5.0607   -0.9351 O   0  0  0  0  0  0  0  0  0  0  0  0
    0.0811   -2.7784   -0.7406 C   0  0  0  0  0  0  0  0  0  0  0  0
   -0.2464   -1.4013   -0.7022 C   0  0  0  0  0  0  0  0  0  0  0  0
    0.7064   -0.4902   -0.5387 O   0  0  0  0  0  0  0  0  0  0  0  0
    1.9974   -0.7818   -0.4118 C   0  0  0  0  0  0  0  0  0  0  0  0
    2.9625    0.3466   -0.2243 C   0  0  0  0  0  0  0  0  0  0  0  0
    4.3518    0.1501   -0.0688 C   0  0  0  0  0  0  0  0  0  0  0  0
    5.2097    1.2359    0.1085 C   0  0  0  0  0  0  0  0  0  0  0  0
    4.7074    2.5425    0.1344 C   0  0  0  0  0  0  0  0  0  0  0  0
    5.5417    3.5893    0.3071 O   0  0  0  0  0  0  0  0  0  0  0  0
    3.3277    2.7570   -0.0198 C   0  0  0  0  0  0  0  0  0  0  0  0
    2.8072    4.0027   -0.0002 O   0  0  0  0  0  0  0  0  0  0  0  0
    2.4693    1.6666   -0.1974 C   0  0  0  0  0  0  0  0  0  0  0  0
    2.3990   -2.1298   -0.4507 C   0  0  0  0  0  0  0  0  0  0  0  0
    1.4405   -3.1291   -0.6157 C   0  0  0  0  0  0  0  0  0  0  0  0
    1.8004   -4.2944   -0.6425 O   0  0  0  0  0  0  0  0  0  0  0  0
   -3.9107   -1.6028   -1.0897 O   0  0  0  0  0  0  0  0  0  0  0  0
   -3.5739    1.6983   -1.7713 H   0  0  0  0  0  0  0  0  0  0  0  0
   -2.8438    0.3805   -2.7228 H   0  0  0  0  0  0  0  0  0  0  0  0
   -1.1959    1.1465   -1.1189 H   0  0  0  0  0  0  0  0  0  0  0  0
   -1.3187   -0.7338    1.7170 H   0  0  0  0  0  0  0  0  0  0  0  0
   -1.8206    0.0480    3.9729 H   0  0  0  0  0  0  0  0  0  0  0  0
   -3.1090    2.1423    4.3016 H   0  0  0  0  0  0  0  0  0  0  0  0
   -3.3661    2.7469    0.1454 H   0  0  0  0  0  0  0  0  0  0  0  0
   -3.0672   -4.0557   -1.1233 H   0  0  0  0  0  0  0  0  0  0  0  0
   -1.3483   -5.7355   -1.0359 H   0  0  0  0  0  0  0  0  0  0  0  0
    4.7984   -0.8316   -0.0773 H   0  0  0  0  0  0  0  0  0  0  0  0
    6.2717    1.0596    0.2279 H   0  0  0  0  0  0  0  0  0  0  0  0
    6.4963    3.4747    0.4177 H   0  0  0  0  0  0  0  0  0  0  0  0
    3.3496    4.7948    0.1188 H   0  0  0  0  0  0  0  0  0  0  0  0
    1.4095    1.8612   -0.3132 H   0  0  0  0  0  0  0  0  0  0  0  0
    3.4310   -2.4287   -0.3522 H   0  0  0  0  0  0  0  0  0  0  0  0
  1  2  2  0  0  0  0
  2  3  1  0  0  0  0
  3  4  1  0  0  0  0
  3 32  1  0  0  0  0
  3 33  1  0  0  0  0
  4  5  1  0  0  0  0
  4 11  1  0  0  0  0
  4 34  1  6  0  0  0
  5  6  2  0  0  0  0
  6  7  1  0  0  0  0
  6 35  1  0  0  0  0
  7  8  2  0  0  0  0
  7 36  1  0  0  0  0
  8  9  1  0  0  0  0
  8 37  1  0  0  0  0
  9 10  2  0  0  0  0
 10  5  1  0  0  0  0
 10 38  1  0  0  0  0
 11 12  2  0  0  0  0
 12 13  1  0  0  0  0
 12 31  1  0  0  0  0
 13 14  2  0  0  0  0
 13 39  1  0  0  0  0
 14 15  1  0  0  0  0
 14 16  1  0  0  0  0
 15 40  1  0  0  0  0
 16 17  2  0  0  0  0
 17 18  1  0  0  0  0
 17 11  1  0  0  0  0
 18 19  1  0  0  0  0
 19 20  1  0  0  0  0
 19 28  2  0  0  0  0
 20 21  2  0  0  0  0
 21 22  1  0  0  0  0
 21 41  1  0  0  0  0
 22 23  2  0  0  0  0
 22 42  1  0  0  0  0
 23 24  1  0  0  0  0
 23 25  1  0  0  0  0
 24 43  1  0  0  0  0
 25 26  1  0  0  0  0
 25 27  2  0  0  0  0
 26 44  1  0  0  0  0
 27 20  1  0  0  0  0
 27 45  1  0  0  0  0
 28 29  1  0  0  0  0
 28 46  1  0  0  0  0
 29 30  2  0  0  0  0
 29 16  1  0  0  0  0
 31  2  1  0  0  0  0
M  END
>  <IDENTIFIER>
CNP0169214.0

>  <Energy>
352.239

$$$$
