
 OpenBabel09112505373D

 59 61  0  0  0  0  0  0  0  0999 V2000
   -5.9639   -0.3893   -2.9373 O   0  0  0  0  0  0  0  0  0  0  0  0
   -6.0165   -0.0434   -1.7650 C   0  0  0  0  0  0  0  0  0  0  0  0
   -4.7110    0.3897   -1.1652 C   0  0  0  0  0  0  0  0  0  0  0  0
   -4.4498    0.7799    0.0960 C   0  0  0  0  0  0  0  0  0  0  0  0
   -3.0740    1.1346    0.5014 C   0  0  0  0  0  0  0  0  0  0  0  0
   -2.8128    1.5527    1.7544 C   0  0  0  0  0  0  0  0  0  0  0  0
   -1.4433    1.9178    2.2932 C   0  0  0  0  0  0  0  0  0  0  0  0
   -0.2429    1.6160    1.3793 C   0  0  0  0  0  0  0  0  0  0  0  0
   -0.0114    0.0971    1.2138 C   0  0  0  0  0  0  0  0  0  0  0  0
    1.1007   -0.2406    0.2112 C   0  0  0  0  0  0  0  0  0  0  0  0
    2.4888    0.2550    0.6496 C   0  0  0  0  0  0  0  0  0  0  0  0
    3.5825   -0.0319   -0.3905 C   0  0  0  0  0  0  0  0  0  0  0  0
    3.8438   -1.5122   -0.5777 C   0  0  0  0  0  0  0  0  0  0  0  0
    5.0275   -2.1602   -0.4853 C   0  0  0  0  0  0  0  0  0  0  0  0
    6.4002   -1.6028   -0.2996 C   0  0  0  0  0  0  0  0  0  0  0  0
    7.3885   -2.4583    0.2597 C   0  0  0  0  0  0  0  0  0  0  0  0
    8.7065   -2.0100    0.4592 C   0  0  0  0  0  0  0  0  0  0  0  0
    9.0120   -0.7091    0.0765 C   0  0  0  0  0  0  0  0  0  0  0  0
   10.1792   -0.0654    0.1643 O   0  0  0  0  0  0  0  0  0  0  0  0
    9.9923    1.2116   -0.3621 C   0  0  0  0  0  0  0  0  0  0  0  0
    8.6624    1.2788   -0.7654 O   0  0  0  0  0  0  0  0  0  0  0  0
    8.0953    0.1044   -0.4793 C   0  0  0  0  0  0  0  0  0  0  0  0
    6.7830   -0.2940   -0.6981 C   0  0  0  0  0  0  0  0  0  0  0  0
   -7.2311   -0.1062   -1.1238 N   0  0  0  0  0  0  0  0  0  0  0  0
   -7.5239    0.2642    0.2459 C   0  0  0  0  0  0  0  0  0  0  0  0
   -9.0460    0.1993    0.3281 C   0  0  0  0  0  0  0  0  0  0  0  0
   -9.3580   -0.9311   -0.6192 C   0  0  0  0  0  0  0  0  0  0  0  0
   -8.4188   -0.6203   -1.7789 C   0  0  0  0  0  0  0  0  0  0  0  0
   -3.8678    0.3627   -1.8530 H   0  0  0  0  0  0  0  0  0  0  0  0
   -5.1968    0.8345    0.8612 H   0  0  0  0  0  0  0  0  0  0  0  0
   -2.2857    1.0461   -0.2368 H   0  0  0  0  0  0  0  0  0  0  0  0
   -3.6398    1.6592    2.4513 H   0  0  0  0  0  0  0  0  0  0  0  0
   -1.2845    1.3761    3.2505 H   0  0  0  0  0  0  0  0  0  0  0  0
   -1.4634    3.0051    2.5203 H   0  0  0  0  0  0  0  0  0  0  0  0
    0.6546    2.0591    1.8579 H   0  0  0  0  0  0  0  0  0  0  0  0
   -0.3845    2.1158    0.3972 H   0  0  0  0  0  0  0  0  0  0  0  0
   -0.9316   -0.3900    0.8366 H   0  0  0  0  0  0  0  0  0  0  0  0
    0.2190   -0.3582    2.2018 H   0  0  0  0  0  0  0  0  0  0  0  0
    0.8395    0.1984   -0.7768 H   0  0  0  0  0  0  0  0  0  0  0  0
    1.1191   -1.3445    0.1077 H   0  0  0  0  0  0  0  0  0  0  0  0
    2.7666   -0.1950    1.6283 H   0  0  0  0  0  0  0  0  0  0  0  0
    2.4528    1.3575    0.7689 H   0  0  0  0  0  0  0  0  0  0  0  0
    4.4658    0.4893    0.0026 H   0  0  0  0  0  0  0  0  0  0  0  0
    3.2832    0.4175   -1.3611 H   0  0  0  0  0  0  0  0  0  0  0  0
    2.9804   -2.1368   -0.7780 H   0  0  0  0  0  0  0  0  0  0  0  0
    4.9705   -3.2442   -0.5527 H   0  0  0  0  0  0  0  0  0  0  0  0
    7.1331   -3.4702    0.5528 H   0  0  0  0  0  0  0  0  0  0  0  0
    9.4591   -2.6552    0.8947 H   0  0  0  0  0  0  0  0  0  0  0  0
   10.6621    1.3672   -1.2341 H   0  0  0  0  0  0  0  0  0  0  0  0
   10.1932    1.9784    0.4158 H   0  0  0  0  0  0  0  0  0  0  0  0
    6.1229    0.3974   -1.1918 H   0  0  0  0  0  0  0  0  0  0  0  0
   -7.2301    1.3079    0.4864 H   0  0  0  0  0  0  0  0  0  0  0  0
   -7.0475   -0.4790    0.9229 H   0  0  0  0  0  0  0  0  0  0  0  0
   -9.4654    1.1269   -0.1258 H   0  0  0  0  0  0  0  0  0  0  0  0
   -9.4454    0.0936    1.3591 H   0  0  0  0  0  0  0  0  0  0  0  0
  -10.4253   -1.0395   -0.9046 H   0  0  0  0  0  0  0  0  0  0  0  0
   -9.0165   -1.8742   -0.1325 H   0  0  0  0  0  0  0  0  0  0  0  0
   -8.8203    0.1675   -2.4540 H   0  0  0  0  0  0  0  0  0  0  0  0
   -8.2329   -1.5595   -2.3448 H   0  0  0  0  0  0  0  0  0  0  0  0
  1  2  2  0  0  0  0
  2  3  1  0  0  0  0
  2 24  1  0  0  0  0
  3  4  2  3  0  0  0
  3 29  1  0  0  0  0
  4  5  1  0  0  0  0
  4 30  1  0  0  0  0
  5  6  2  3  0  0  0
  5 31  1  0  0  0  0
  6  7  1  0  0  0  0
  6 32  1  0  0  0  0
  7  8  1  0  0  0  0
  7 33  1  0  0  0  0
  7 34  1  0  0  0  0
  8  9  1  0  0  0  0
  8 35  1  0  0  0  0
  8 36  1  0  0  0  0
  9 10  1  0  0  0  0
  9 37  1  0  0  0  0
  9 38  1  0  0  0  0
 10 11  1  0  0  0  0
 10 39  1  0  0  0  0
 10 40  1  0  0  0  0
 11 12  1  0  0  0  0
 11 41  1  0  0  0  0
 11 42  1  0  0  0  0
 12 13  1  0  0  0  0
 12 43  1  0  0  0  0
 12 44  1  0  0  0  0
 13 14  2  3  0  0  0
 13 45  1  0  0  0  0
 14 15  1  0  0  0  0
 14 46  1  0  0  0  0
 15 16  2  0  0  0  0
 16 17  1  0  0  0  0
 16 47  1  0  0  0  0
 17 18  2  0  0  0  0
 17 48  1  0  0  0  0
 18 19  1  0  0  0  0
 19 20  1  0  0  0  0
 20 21  1  0  0  0  0
 20 49  1  0  0  0  0
 20 50  1  0  0  0  0
 21 22  1  0  0  0  0
 22 23  2  0  0  0  0
 22 18  1  0  0  0  0
 23 15  1  0  0  0  0
 23 51  1  0  0  0  0
 24 25  1  0  0  0  0
 25 26  1  0  0  0  0
 25 52  1  0  0  0  0
 25 53  1  0  0  0  0
 26 27  1  0  0  0  0
 26 54  1  0  0  0  0
 26 55  1  0  0  0  0
 27 28  1  0  0  0  0
 27 56  1  0  0  0  0
 27 57  1  0  0  0  0
 28 24  1  0  0  0  0
 28 58  1  0  0  0  0
 28 59  1  0  0  0  0
M  END
>  <IDENTIFIER>
CNP0166992.0

>  <Energy>
538.481

$$$$
