
 OpenBabel09072511193D

 62 66  0  0  0  0  0  0  0  0999 V2000
   -0.9269   -2.0412    0.8647 O   0  0  0  0  0  0  0  0  0  0  0  0
   -0.2092   -1.1856    1.3679 C   0  0  0  0  0  0  0  0  0  0  0  0
    1.1792   -1.5586    1.8113 C   0  0  0  0  0  0  0  0  0  0  0  0
    2.0071   -2.1735    0.6404 C   0  0  2  0  0  0  0  0  0  0  0  0
    3.3208   -2.7699    1.2303 C   0  0  0  0  0  0  0  0  0  0  0  0
    4.4533   -2.7903    0.2004 C   0  0  0  0  0  0  0  0  0  0  0  0
    4.7546   -1.3901   -0.1401 N   0  0  0  0  0  0  0  0  0  0  0  0
    6.0440   -0.9055   -0.0123 C   0  0  0  0  0  0  0  0  0  0  0  0
    6.9396   -1.6759    0.3051 O   0  0  0  0  0  0  0  0  0  0  0  0
    6.4556    0.5224   -0.2336 C   0  0  0  0  0  0  0  0  0  0  0  0
    7.7829    0.9572   -0.1835 C   0  0  0  0  0  0  0  0  0  0  0  0
    7.9439    2.3337   -0.3889 C   0  0  0  0  0  0  0  0  0  0  0  0
    6.7521    3.0079   -0.5990 C   0  0  0  0  0  0  0  0  0  0  0  0
    5.5062    1.8878   -0.5369 S   0  0  0  0  0  0  0  0  0  0  0  0
    3.6417   -0.5294   -0.5476 C   0  0  0  0  0  0  0  0  0  0  0  0
    2.3139   -1.3083   -0.6557 C   0  0  2  0  0  0  0  0  0  0  0  0
    1.1487   -0.4761   -1.2675 C   0  0  0  0  0  0  0  0  0  0  0  0
    1.0458    0.9781   -0.7616 C   0  0  0  0  0  0  0  0  0  0  0  0
   -0.1798    1.5449   -1.0907 O   0  0  0  0  0  0  0  0  0  0  0  0
   -1.4277    1.2654   -0.5946 C   0  0  0  0  0  0  0  0  0  0  0  0
   -2.5196    1.6874   -1.3603 C   0  0  0  0  0  0  0  0  0  0  0  0
   -3.8299    1.4184   -0.9599 C   0  0  0  0  0  0  0  0  0  0  0  0
   -4.0883    0.7277    0.2374 C   0  0  0  0  0  0  0  0  0  0  0  0
   -5.5070    0.4334    0.7038 C   0  0  0  0  0  0  0  0  0  0  0  0
   -6.3261    1.7353    0.8537 C   0  0  0  0  0  0  0  0  0  0  0  0
   -7.8248    1.4161    0.8005 C   0  0  0  0  0  0  0  0  0  0  0  0
   -8.2348    0.8541   -0.4501 O   0  0  0  0  0  0  0  0  0  0  0  0
   -7.2227    0.1229   -1.1472 C   0  0  0  0  0  0  0  0  0  0  0  0
   -6.2419   -0.5788   -0.2011 C   0  0  0  0  0  0  0  0  0  0  0  0
   -3.0000    0.2989    1.0154 C   0  0  0  0  0  0  0  0  0  0  0  0
   -1.6827    0.5608    0.6168 C   0  0  0  0  0  0  0  0  0  0  0  0
   -0.6112    0.1100    1.4205 N   0  0  0  0  0  0  0  0  0  0  0  0
    1.0746   -2.3112    2.6232 H   0  0  0  0  0  0  0  0  0  0  0  0
    1.7206   -0.6787    2.2208 H   0  0  0  0  0  0  0  0  0  0  0  0
    1.4080   -3.0293    0.2518 H   0  0  0  0  0  0  0  0  0  0  0  0
    3.1162   -3.7739    1.6615 H   0  0  0  0  0  0  0  0  0  0  0  0
    3.6974   -2.1239    2.0558 H   0  0  0  0  0  0  0  0  0  0  0  0
    4.1474   -3.3660   -0.6987 H   0  0  0  0  0  0  0  0  0  0  0  0
    5.3269   -3.3189    0.6361 H   0  0  0  0  0  0  0  0  0  0  0  0
    8.6221    0.2984   -0.0019 H   0  0  0  0  0  0  0  0  0  0  0  0
    8.9073    2.8256   -0.3805 H   0  0  0  0  0  0  0  0  0  0  0  0
    6.6460    4.0705   -0.7703 H   0  0  0  0  0  0  0  0  0  0  0  0
    3.8605   -0.0929   -1.5465 H   0  0  0  0  0  0  0  0  0  0  0  0
    3.5117    0.2677    0.2130 H   0  0  0  0  0  0  0  0  0  0  0  0
    2.5039   -2.0805   -1.4358 H   0  0  0  0  0  0  0  0  0  0  0  0
    0.2082   -1.0463   -1.1550 H   0  0  0  0  0  0  0  0  0  0  0  0
    1.2961   -0.3847   -2.3669 H   0  0  0  0  0  0  0  0  0  0  0  0
    1.8518    1.5624   -1.2551 H   0  0  0  0  0  0  0  0  0  0  0  0
    1.2763    1.0935    0.2991 H   0  0  0  0  0  0  0  0  0  0  0  0
   -2.3503    2.2194   -2.2884 H   0  0  0  0  0  0  0  0  0  0  0  0
   -4.6366    1.7593   -1.5917 H   0  0  0  0  0  0  0  0  0  0  0  0
   -5.4519   -0.0716    1.6952 H   0  0  0  0  0  0  0  0  0  0  0  0
   -6.1495    2.4211   -0.0025 H   0  0  0  0  0  0  0  0  0  0  0  0
   -6.0297    2.2736    1.7794 H   0  0  0  0  0  0  0  0  0  0  0  0
   -8.3770    2.3700    0.9385 H   0  0  0  0  0  0  0  0  0  0  0  0
   -8.1042    0.7330    1.6312 H   0  0  0  0  0  0  0  0  0  0  0  0
   -6.6915    0.7901   -1.8549 H   0  0  0  0  0  0  0  0  0  0  0  0
   -7.7264   -0.6660   -1.7452 H   0  0  0  0  0  0  0  0  0  0  0  0
   -5.5299   -1.2618   -0.7132 H   0  0  0  0  0  0  0  0  0  0  0  0
   -6.8885   -1.2175    0.4435 H   0  0  0  0  0  0  0  0  0  0  0  0
   -3.1698   -0.2388    1.9405 H   0  0  0  0  0  0  0  0  0  0  0  0
    0.0074    0.8168    1.8398 H   0  0  0  0  0  0  0  0  0  0  0  0
  1  2  2  0  0  0  0
  2  3  1  0  0  0  0
  3 33  1  0  0  0  0
  3 34  1  0  0  0  0
  4  3  1  0  0  0  0
  4  5  1  0  0  0  0
  4 35  1  6  0  0  0
  5  6  1  0  0  0  0
  5 36  1  0  0  0  0
  5 37  1  0  0  0  0
  6  7  1  0  0  0  0
  6 38  1  0  0  0  0
  6 39  1  0  0  0  0
  7  8  1  0  0  0  0
  7 15  1  0  0  0  0
  8  9  2  0  0  0  0
  8 10  1  0  0  0  0
 10 11  2  0  0  0  0
 11 12  1  0  0  0  0
 11 40  1  0  0  0  0
 12 13  2  0  0  0  0
 12 41  1  0  0  0  0
 13 14  1  0  0  0  0
 13 42  1  0  0  0  0
 14 10  1  0  0  0  0
 15 43  1  0  0  0  0
 15 44  1  0  0  0  0
 16 15  1  0  0  0  0
 16 17  1  0  0  0  0
 16  4  1  0  0  0  0
 16 45  1  6  0  0  0
 17 18  1  0  0  0  0
 17 46  1  0  0  0  0
 17 47  1  0  0  0  0
 18 19  1  0  0  0  0
 18 48  1  0  0  0  0
 18 49  1  0  0  0  0
 19 20  1  0  0  0  0
 20 21  2  0  0  0  0
 21 22  1  0  0  0  0
 21 50  1  0  0  0  0
 22 23  2  0  0  0  0
 22 51  1  0  0  0  0
 23 24  1  0  0  0  0
 23 30  1  0  0  0  0
 24 25  1  0  0  0  0
 24 52  1  0  0  0  0
 25 26  1  0  0  0  0
 25 53  1  0  0  0  0
 25 54  1  0  0  0  0
 26 27  1  0  0  0  0
 26 55  1  0  0  0  0
 26 56  1  0  0  0  0
 27 28  1  0  0  0  0
 28 29  1  0  0  0  0
 28 57  1  0  0  0  0
 28 58  1  0  0  0  0
 29 24  1  0  0  0  0
 29 59  1  0  0  0  0
 29 60  1  0  0  0  0
 30 31  2  0  0  0  0
 30 61  1  0  0  0  0
 31 32  1  0  0  0  0
 31 20  1  0  0  0  0
 32  2  1  0  0  0  0
 32 62  1  0  0  0  0
M  END
>  <IDENTIFIER>
CNP0547689.1

>  <Energy>
949.762

$$$$
