
 OpenBabel09062500263D

 32 34  0  0  0  0  0  0  0  0999 V2000
   -5.8514   -0.0919    1.2058 O   0  5  0  0  0  0  0  0  0  0  0  0
   -4.5657   -0.0183    0.8144 C   0  0  0  0  0  0  0  0  0  0  0  0
   -4.2455    0.3294   -0.5057 C   0  0  0  0  0  0  0  0  0  0  0  0
   -5.2116    0.5970   -1.4107 O   0  0  0  0  0  0  0  0  0  0  0  0
   -2.9054    0.4037   -0.9048 C   0  0  0  0  0  0  0  0  0  0  0  0
   -1.8525    0.1334    0.0018 C   0  0  0  0  0  0  0  0  0  0  0  0
   -0.3860    0.1914   -0.3493 C   0  0  0  0  0  0  0  0  0  0  0  0
    0.4711   -0.0955    0.6344 O   0  3  0  0  0  0  0  0  0  0  0  0
    1.7923   -0.0930    0.5010 C   0  0  0  0  0  0  0  0  0  0  0  0
    2.5988   -0.4095    1.5988 C   0  0  0  0  0  0  0  0  0  0  0  0
    3.9952   -0.4109    1.4720 C   0  0  0  0  0  0  0  0  0  0  0  0
    4.7827   -0.7144    2.5237 O   0  0  0  0  0  0  0  0  0  0  0  0
    4.5821   -0.0943    0.2422 C   0  0  0  0  0  0  0  0  0  0  0  0
    3.7838    0.2253   -0.8676 C   0  0  0  0  0  0  0  0  0  0  0  0
    4.3592    0.5294   -2.0509 O   0  0  0  0  0  0  0  0  0  0  0  0
    2.3810    0.2254   -0.7358 C   0  0  0  0  0  0  0  0  0  0  0  0
    1.5347    0.5344   -1.8017 C   0  0  0  0  0  0  0  0  0  0  0  0
    0.1448    0.5227   -1.6274 C   0  0  0  0  0  0  0  0  0  0  0  0
   -0.6402    0.8259   -2.6782 O   0  0  0  0  0  0  0  0  0  0  0  0
   -2.2062   -0.2143    1.3253 C   0  0  0  0  0  0  0  0  0  0  0  0
   -3.5465   -0.2899    1.7295 C   0  0  0  0  0  0  0  0  0  0  0  0
   -3.8622   -0.6240    2.9985 O   0  0  0  0  0  0  0  0  0  0  0  0
   -6.1545    0.5625   -1.1967 H   0  0  0  0  0  0  0  0  0  0  0  0
   -2.7391    0.6752   -1.9283 H   0  0  0  0  0  0  0  0  0  0  0  0
    2.1397   -0.6540    2.5491 H   0  0  0  0  0  0  0  0  0  0  0  0
    4.4178   -0.9390    3.3916 H   0  0  0  0  0  0  0  0  0  0  0  0
    5.6613   -0.0969    0.1495 H   0  0  0  0  0  0  0  0  0  0  0  0
    5.3196    0.5372   -2.1710 H   0  0  0  0  0  0  0  0  0  0  0  0
    1.9465    0.7856   -2.7720 H   0  0  0  0  0  0  0  0  0  0  0  0
   -0.2836    1.0519   -3.5493 H   0  0  0  0  0  0  0  0  0  0  0  0
   -1.4420   -0.4314    2.0611 H   0  0  0  0  0  0  0  0  0  0  0  0
   -3.1874   -0.8200    3.6640 H   0  0  0  0  0  0  0  0  0  0  0  0
  1  2  1  0  0  0  0
  2  3  2  0  0  0  0
  3  4  1  0  0  0  0
  3  5  1  0  0  0  0
  4 23  1  0  0  0  0
  5  6  2  0  0  0  0
  5 24  1  0  0  0  0
  6  7  1  0  0  0  0
  6 20  1  0  0  0  0
  7  8  2  0  0  0  0
  8  9  1  0  0  0  0
  9 10  2  0  0  0  0
 10 11  1  0  0  0  0
 10 25  1  0  0  0  0
 11 12  1  0  0  0  0
 11 13  2  0  0  0  0
 12 26  1  0  0  0  0
 13 14  1  0  0  0  0
 13 27  1  0  0  0  0
 14 15  1  0  0  0  0
 14 16  2  0  0  0  0
 15 28  1  0  0  0  0
 16 17  1  0  0  0  0
 16  9  1  0  0  0  0
 17 18  2  0  0  0  0
 17 29  1  0  0  0  0
 18 19  1  0  0  0  0
 18  7  1  0  0  0  0
 19 30  1  0  0  0  0
 20 21  2  0  0  0  0
 20 31  1  0  0  0  0
 21 22  1  0  0  0  0
 21  2  1  0  0  0  0
 22 32  1  0  0  0  0
M  CHG  2   1  -1   8   1
M  END
>  <IDENTIFIER>
CNP0501824.0

>  <Energy>
210.702

$$$$
