
 OpenBabel09122521373D

165169  0  0  0  0  0  0  0  0999 V2000
   14.3808    4.1824   -0.7381 C   0  0  0  0  0  0  0  0  0  0  0  0
   15.1364    3.5055    0.4044 C   0  0  0  0  0  0  0  0  0  0  0  0
   16.5080    2.9484   -0.0205 C   0  0  0  0  0  0  0  0  0  0  0  0
   16.4637    1.8640   -1.1182 C   0  0  0  0  0  0  0  0  0  0  0  0
   15.6055    0.6329   -0.7780 C   0  0  0  0  0  0  0  0  0  0  0  0
   16.0996   -0.1189    0.4720 C   0  0  0  0  0  0  0  0  0  0  0  0
   15.2929   -1.3945    0.7617 C   0  0  0  0  0  0  0  0  0  0  0  0
   13.8246   -1.1018    1.1172 C   0  0  0  0  0  0  0  0  0  0  0  0
   13.0356   -2.3628    1.5072 C   0  0  0  0  0  0  0  0  0  0  0  0
   12.9546   -3.4464    0.4125 C   0  0  0  0  0  0  0  0  0  0  0  0
   12.3706   -2.9718   -0.9298 C   0  0  0  0  0  0  0  0  0  0  0  0
   10.9920   -2.2777   -0.9210 C   0  0  0  0  0  0  0  0  0  0  0  0
    9.7633   -3.1285   -0.5467 C   0  0  0  0  0  0  0  0  0  0  0  0
    9.5821   -3.3808    0.9656 C   0  0  0  0  0  0  0  0  0  0  0  0
    8.2625   -4.1040    1.2942 C   0  0  0  0  0  0  0  0  0  0  0  0
    6.9596   -3.3310    0.9940 C   0  0  0  0  0  0  0  0  0  0  0  0
    6.5237   -2.2684    2.0284 C   0  0  0  0  0  0  0  0  0  0  0  0
    7.4128   -1.0299    2.2628 C   0  0  0  0  0  0  0  0  0  0  0  0
    7.7568   -0.1934    1.0126 C   0  0  0  0  0  0  0  0  0  0  0  0
    6.5525    0.2318    0.1632 C   0  0  0  0  0  0  0  0  0  0  0  0
    5.5344    1.0675    0.9501 C   0  0  0  0  0  0  0  0  0  0  0  0
    4.3435    1.5156    0.0983 C   0  0  0  0  0  0  0  0  0  0  0  0
    3.5472    0.3317   -0.4801 C   0  0  0  0  0  0  0  0  0  0  0  0
    2.2910    0.7823   -1.2314 C   0  0  0  0  0  0  0  0  0  0  0  0
    1.2420    1.4905   -0.3579 C   0  0  0  0  0  0  0  0  0  0  0  0
    0.6888    0.5768    0.7639 C   0  0  0  0  0  0  0  0  0  0  0  0
   -0.4534    1.2245    1.5672 C   0  0  0  0  0  0  0  0  0  0  0  0
   -1.6872    1.4734    0.7432 C   0  0  0  0  0  0  0  0  0  0  0  0
   -2.6583    2.0132    1.2529 O   0  0  0  0  0  0  0  0  0  0  0  0
   -1.6928    1.1287   -0.5706 O   0  0  0  0  0  0  0  0  0  0  0  0
   -2.6487    1.4522   -1.4663 C   0  0  0  0  0  0  0  0  0  0  0  0
   -3.8763    0.8945   -1.4725 C   0  0  0  0  0  0  0  0  0  0  0  0
   -4.2396   -0.2109   -0.4962 C   0  0  0  0  0  0  0  0  0  0  0  0
   -5.5649    0.0122    0.2555 C   0  0  0  0  0  0  0  0  0  0  0  0
   -6.5801    0.9118   -0.5117 C   0  0  2  0  0  0  0  0  0  0  0  0
   -6.3732    2.3821   -0.0473 C   0  0  0  0  0  0  0  0  0  0  0  0
   -8.0267    0.5031   -0.1520 C   0  0  0  0  0  0  0  0  0  0  0  0
   -8.4743    0.6290    1.1279 C   0  0  0  0  0  0  0  0  0  0  0  0
   -9.9038    0.3943    1.5565 C   0  0  0  0  0  0  0  0  0  0  0  0
  -10.9007    0.3409    0.3551 C   0  0  2  0  0  0  0  0  0  0  0  0
  -10.9416    1.8125   -0.2282 C   0  0  0  0  0  0  0  0  0  0  0  0
  -12.3169   -0.2104    0.9127 C   0  0  1  0  0  0  0  0  0  0  0  0
  -13.1697    0.9163    1.6028 C   0  0  2  0  0  0  0  0  0  0  0  0
  -14.0303    0.4608    2.8332 C   0  0  0  0  0  0  0  0  0  0  0  0
  -14.9139    1.6060    3.3651 C   0  0  0  0  0  0  0  0  0  0  0  0
  -13.1193   -0.0032    3.9881 C   0  0  0  0  0  0  0  0  0  0  0  0
  -14.0090    1.4359    0.4095 C   0  0  0  0  0  0  0  0  0  0  0  0
  -14.4261    0.1935   -0.3550 C   0  0  0  0  0  0  0  0  0  0  0  0
  -13.3078   -0.8694   -0.1373 C   0  0  2  0  0  0  0  0  0  0  0  0
  -14.0047   -2.1437    0.4518 C   0  0  0  0  0  0  0  0  0  0  0  0
  -12.6281   -1.4176   -1.4433 C   0  0  0  0  0  0  0  0  0  0  0  0
  -11.3326   -0.7474   -1.8912 C   0  0  0  0  0  0  0  0  0  0  0  0
  -10.3022   -0.6441   -0.7183 C   0  0  2  0  0  0  0  0  0  0  0  0
  -10.0478   -2.0673   -0.0963 C   0  0  0  0  0  0  0  0  0  0  0  0
   -8.9307   -0.0606   -1.2678 C   0  0  2  0  0  0  0  0  0  0  0  0
   -8.0860   -1.1285   -2.0120 C   0  0  0  0  0  0  0  0  0  0  0  0
   -6.7945   -0.5810   -2.6363 C   0  0  0  0  0  0  0  0  0  0  0  0
   -6.3605    0.8042   -2.0773 C   0  0  2  0  0  0  0  0  0  0  0  0
   -4.9107    1.2720   -2.5536 C   0  0  0  0  0  0  0  0  0  0  0  0
   -4.4674    0.6135   -3.8875 C   0  0  0  0  0  0  0  0  0  0  0  0
   -4.9337    2.8071   -2.8659 C   0  0  0  0  0  0  0  0  0  0  0  0
   13.4266    4.5987   -0.3518 H   0  0  0  0  0  0  0  0  0  0  0  0
   14.1371    3.4560   -1.5402 H   0  0  0  0  0  0  0  0  0  0  0  0
   14.9860    5.0119   -1.1610 H   0  0  0  0  0  0  0  0  0  0  0  0
   14.5084    2.6987    0.8375 H   0  0  0  0  0  0  0  0  0  0  0  0
   15.3048    4.2602    1.2027 H   0  0  0  0  0  0  0  0  0  0  0  0
   17.0092    2.5365    0.8800 H   0  0  0  0  0  0  0  0  0  0  0  0
   17.1392    3.7874   -0.3859 H   0  0  0  0  0  0  0  0  0  0  0  0
   17.5048    1.5323   -1.3235 H   0  0  0  0  0  0  0  0  0  0  0  0
   16.0736    2.3103   -2.0572 H   0  0  0  0  0  0  0  0  0  0  0  0
   15.6438   -0.0600   -1.6469 H   0  0  0  0  0  0  0  0  0  0  0  0
   14.5539    0.9570   -0.6551 H   0  0  0  0  0  0  0  0  0  0  0  0
   16.0560    0.5362    1.3671 H   0  0  0  0  0  0  0  0  0  0  0  0
   17.1584   -0.4149    0.3060 H   0  0  0  0  0  0  0  0  0  0  0  0
   15.7661   -1.9094    1.6262 H   0  0  0  0  0  0  0  0  0  0  0  0
   15.3563   -2.0640   -0.1215 H   0  0  0  0  0  0  0  0  0  0  0  0
   13.3085   -0.6055    0.2728 H   0  0  0  0  0  0  0  0  0  0  0  0
   13.7995   -0.4056    1.9841 H   0  0  0  0  0  0  0  0  0  0  0  0
   12.0098   -2.0479    1.7873 H   0  0  0  0  0  0  0  0  0  0  0  0
   13.4990   -2.8148    2.4108 H   0  0  0  0  0  0  0  0  0  0  0  0
   12.3818   -4.3088    0.7934 H   0  0  0  0  0  0  0  0  0  0  0  0
   13.9709   -3.8471    0.2162 H   0  0  0  0  0  0  0  0  0  0  0  0
   12.3324   -3.8396   -1.6230 H   0  0  0  0  0  0  0  0  0  0  0  0
   13.0887   -2.2453   -1.3674 H   0  0  0  0  0  0  0  0  0  0  0  0
   10.8313   -1.9635   -1.9766 H   0  0  0  0  0  0  0  0  0  0  0  0
   11.0095   -1.3470   -0.3146 H   0  0  0  0  0  0  0  0  0  0  0  0
    9.7642   -4.0821   -1.1168 H   0  0  0  0  0  0  0  0  0  0  0  0
    8.8948   -2.5427   -0.8999 H   0  0  0  0  0  0  0  0  0  0  0  0
    9.6572   -2.4333    1.5185 H   0  0  0  0  0  0  0  0  0  0  0  0
   10.3864   -4.0341    1.3316 H   0  0  0  0  0  0  0  0  0  0  0  0
    8.2493   -4.4087    2.3632 H   0  0  0  0  0  0  0  0  0  0  0  0
    8.2584   -5.0354    0.6859 H   0  0  0  0  0  0  0  0  0  0  0  0
    6.1458   -4.0891    1.0209 H   0  0  0  0  0  0  0  0  0  0  0  0
    6.9526   -2.9214   -0.0332 H   0  0  0  0  0  0  0  0  0  0  0  0
    6.3857   -2.7698    3.0112 H   0  0  0  0  0  0  0  0  0  0  0  0
    5.5196   -1.9132    1.7119 H   0  0  0  0  0  0  0  0  0  0  0  0
    8.3498   -1.3229    2.7729 H   0  0  0  0  0  0  0  0  0  0  0  0
    6.8812   -0.3812    2.9905 H   0  0  0  0  0  0  0  0  0  0  0  0
    8.4313   -0.7684    0.3578 H   0  0  0  0  0  0  0  0  0  0  0  0
    8.3134    0.7118    1.3400 H   0  0  0  0  0  0  0  0  0  0  0  0
    6.0770   -0.6840   -0.2368 H   0  0  0  0  0  0  0  0  0  0  0  0
    6.9226    0.8275   -0.6995 H   0  0  0  0  0  0  0  0  0  0  0  0
    6.0399    1.9722    1.3502 H   0  0  0  0  0  0  0  0  0  0  0  0
    5.1373    0.4825    1.8053 H   0  0  0  0  0  0  0  0  0  0  0  0
    4.6885    2.1721   -0.7303 H   0  0  0  0  0  0  0  0  0  0  0  0
    3.6979    2.1132    0.7726 H   0  0  0  0  0  0  0  0  0  0  0  0
    3.2733   -0.3818    0.3247 H   0  0  0  0  0  0  0  0  0  0  0  0
    4.1783   -0.2156   -1.2115 H   0  0  0  0  0  0  0  0  0  0  0  0
    1.8154   -0.1119   -1.6919 H   0  0  0  0  0  0  0  0  0  0  0  0
    2.5926    1.4644   -2.0565 H   0  0  0  0  0  0  0  0  0  0  0  0
    0.4448    1.7998   -1.0555 H   0  0  0  0  0  0  0  0  0  0  0  0
    1.6428    2.4263    0.0797 H   0  0  0  0  0  0  0  0  0  0  0  0
    1.5068    0.3487    1.4786 H   0  0  0  0  0  0  0  0  0  0  0  0
    0.3252   -0.3821    0.3333 H   0  0  0  0  0  0  0  0  0  0  0  0
   -0.0950    2.1850    1.9970 H   0  0  0  0  0  0  0  0  0  0  0  0
   -0.7293    0.5475    2.4042 H   0  0  0  0  0  0  0  0  0  0  0  0
   -2.3700    2.1776   -2.2159 H   0  0  0  0  0  0  0  0  0  0  0  0
   -3.4428   -0.5091    0.2164 H   0  0  0  0  0  0  0  0  0  0  0  0
   -4.3738   -1.0987   -1.1439 H   0  0  0  0  0  0  0  0  0  0  0  0
   -5.3827    0.4449    1.2639 H   0  0  0  0  0  0  0  0  0  0  0  0
   -5.9774   -1.0061    0.4353 H   0  0  0  0  0  0  0  0  0  0  0  0
   -6.5983    2.5238    1.0273 H   0  0  0  0  0  0  0  0  0  0  0  0
   -7.0331    3.0727   -0.6151 H   0  0  0  0  0  0  0  0  0  0  0  0
   -5.3141    2.6878   -0.1163 H   0  0  0  0  0  0  0  0  0  0  0  0
   -7.8000    0.9478    1.9144 H   0  0  0  0  0  0  0  0  0  0  0  0
  -10.2159    1.2154    2.2369 H   0  0  0  0  0  0  0  0  0  0  0  0
   -9.9057   -0.5286    2.1736 H   0  0  0  0  0  0  0  0  0  0  0  0
  -11.2997    2.5516    0.5124 H   0  0  0  0  0  0  0  0  0  0  0  0
  -11.5296    1.9312   -1.1498 H   0  0  0  0  0  0  0  0  0  0  0  0
   -9.9424    2.2080   -0.4873 H   0  0  0  0  0  0  0  0  0  0  0  0
  -12.0239   -1.0089    1.6173 H   0  0  0  0  0  0  0  0  0  0  0  0
  -12.5421    1.7213    2.0335 H   0  0  0  0  0  0  0  0  0  0  0  0
  -14.7209   -0.3512    2.5798 H   0  0  0  0  0  0  0  0  0  0  0  0
  -14.2981    2.4879    3.6426 H   0  0  0  0  0  0  0  0  0  0  0  0
  -15.4764    1.2684    4.2621 H   0  0  0  0  0  0  0  0  0  0  0  0
  -15.6751    1.9120    2.6218 H   0  0  0  0  0  0  0  0  0  0  0  0
  -12.4371    0.8183    4.2998 H   0  0  0  0  0  0  0  0  0  0  0  0
  -12.5064   -0.8817    3.7129 H   0  0  0  0  0  0  0  0  0  0  0  0
  -13.7305   -0.3010    4.8664 H   0  0  0  0  0  0  0  0  0  0  0  0
  -13.3948    2.0153   -0.2779 H   0  0  0  0  0  0  0  0  0  0  0  0
  -14.8394    2.1304    0.6392 H   0  0  0  0  0  0  0  0  0  0  0  0
  -14.7211    0.3765   -1.4102 H   0  0  0  0  0  0  0  0  0  0  0  0
  -15.3524   -0.1359    0.1686 H   0  0  0  0  0  0  0  0  0  0  0  0
  -14.7164   -2.5697   -0.2895 H   0  0  0  0  0  0  0  0  0  0  0  0
  -14.5765   -1.9847    1.3728 H   0  0  0  0  0  0  0  0  0  0  0  0
  -13.2582   -2.9292    0.6978 H   0  0  0  0  0  0  0  0  0  0  0  0
  -13.3652   -1.4858   -2.2728 H   0  0  0  0  0  0  0  0  0  0  0  0
  -12.3150   -2.4714   -1.2878 H   0  0  0  0  0  0  0  0  0  0  0  0
  -11.5634    0.2339   -2.3390 H   0  0  0  0  0  0  0  0  0  0  0  0
  -10.9159   -1.3537   -2.7231 H   0  0  0  0  0  0  0  0  0  0  0  0
   -9.7741   -2.8012   -0.8827 H   0  0  0  0  0  0  0  0  0  0  0  0
  -10.9281   -2.4961    0.4114 H   0  0  0  0  0  0  0  0  0  0  0  0
   -9.2281   -2.0555    0.6496 H   0  0  0  0  0  0  0  0  0  0  0  0
   -9.1508    0.7605   -1.9830 H   0  0  0  0  0  0  0  0  0  0  0  0
   -8.6501   -1.6850   -2.7896 H   0  0  0  0  0  0  0  0  0  0  0  0
   -7.7592   -1.8696   -1.2508 H   0  0  0  0  0  0  0  0  0  0  0  0
   -6.9629   -0.4402   -3.7265 H   0  0  0  0  0  0  0  0  0  0  0  0
   -6.0284   -1.3749   -2.5371 H   0  0  0  0  0  0  0  0  0  0  0  0
   -7.0963    1.4930   -2.5504 H   0  0  0  0  0  0  0  0  0  0  0  0
   -5.1883    0.8357   -4.7029 H   0  0  0  0  0  0  0  0  0  0  0  0
   -4.3676   -0.4867   -3.7866 H   0  0  0  0  0  0  0  0  0  0  0  0
   -3.4688    0.9883   -4.2014 H   0  0  0  0  0  0  0  0  0  0  0  0
   -5.6941    3.0183   -3.6484 H   0  0  0  0  0  0  0  0  0  0  0  0
   -3.9698    3.1619   -3.2827 H   0  0  0  0  0  0  0  0  0  0  0  0
   -5.1595    3.4740   -2.0254 H   0  0  0  0  0  0  0  0  0  0  0  0
  1  2  1  0  0  0  0
  1 62  1  0  0  0  0
  1 63  1  0  0  0  0
  1 64  1  0  0  0  0
  2  3  1  0  0  0  0
  2 65  1  0  0  0  0
  2 66  1  0  0  0  0
  3  4  1  0  0  0  0
  3 67  1  0  0  0  0
  3 68  1  0  0  0  0
  4  5  1  0  0  0  0
  4 69  1  0  0  0  0
  4 70  1  0  0  0  0
  5  6  1  0  0  0  0
  5 71  1  0  0  0  0
  5 72  1  0  0  0  0
  6  7  1  0  0  0  0
  6 73  1  0  0  0  0
  6 74  1  0  0  0  0
  7  8  1  0  0  0  0
  7 75  1  0  0  0  0
  7 76  1  0  0  0  0
  8  9  1  0  0  0  0
  8 77  1  0  0  0  0
  8 78  1  0  0  0  0
  9 10  1  0  0  0  0
  9 79  1  0  0  0  0
  9 80  1  0  0  0  0
 10 11  1  0  0  0  0
 10 81  1  0  0  0  0
 10 82  1  0  0  0  0
 11 12  1  0  0  0  0
 11 83  1  0  0  0  0
 11 84  1  0  0  0  0
 12 13  1  0  0  0  0
 12 85  1  0  0  0  0
 12 86  1  0  0  0  0
 13 14  1  0  0  0  0
 13 87  1  0  0  0  0
 13 88  1  0  0  0  0
 14 15  1  0  0  0  0
 14 89  1  0  0  0  0
 14 90  1  0  0  0  0
 15 16  1  0  0  0  0
 15 91  1  0  0  0  0
 15 92  1  0  0  0  0
 16 17  1  0  0  0  0
 16 93  1  0  0  0  0
 16 94  1  0  0  0  0
 17 18  1  0  0  0  0
 17 95  1  0  0  0  0
 17 96  1  0  0  0  0
 18 19  1  0  0  0  0
 18 97  1  0  0  0  0
 18 98  1  0  0  0  0
 19 20  1  0  0  0  0
 19 99  1  0  0  0  0
 19100  1  0  0  0  0
 20 21  1  0  0  0  0
 20101  1  0  0  0  0
 20102  1  0  0  0  0
 21 22  1  0  0  0  0
 21103  1  0  0  0  0
 21104  1  0  0  0  0
 22 23  1  0  0  0  0
 22105  1  0  0  0  0
 22106  1  0  0  0  0
 23 24  1  0  0  0  0
 23107  1  0  0  0  0
 23108  1  0  0  0  0
 24 25  1  0  0  0  0
 24109  1  0  0  0  0
 24110  1  0  0  0  0
 25 26  1  0  0  0  0
 25111  1  0  0  0  0
 25112  1  0  0  0  0
 26 27  1  0  0  0  0
 26113  1  0  0  0  0
 26114  1  0  0  0  0
 27 28  1  0  0  0  0
 27115  1  0  0  0  0
 27116  1  0  0  0  0
 28 29  2  0  0  0  0
 28 30  1  0  0  0  0
 30 31  1  0  0  0  0
 31 32  2  0  0  0  0
 31117  1  0  0  0  0
 32 33  1  0  0  0  0
 33 34  1  0  0  0  0
 33118  1  0  0  0  0
 33119  1  0  0  0  0
 34 35  1  0  0  0  0
 34120  1  0  0  0  0
 34121  1  0  0  0  0
 35 36  1  1  0  0  0
 35 37  1  0  0  0  0
 36122  1  0  0  0  0
 36123  1  0  0  0  0
 36124  1  0  0  0  0
 37 38  2  0  0  0  0
 38 39  1  0  0  0  0
 38125  1  0  0  0  0
 39 40  1  0  0  0  0
 39126  1  0  0  0  0
 39127  1  0  0  0  0
 40 41  1  6  0  0  0
 40 42  1  0  0  0  0
 41128  1  0  0  0  0
 41129  1  0  0  0  0
 41130  1  0  0  0  0
 42 43  1  0  0  0  0
 42131  1  1  0  0  0
 43 44  1  0  0  0  0
 43 47  1  0  0  0  0
 43132  1  1  0  0  0
 44 45  1  0  0  0  0
 44 46  1  0  0  0  0
 44133  1  0  0  0  0
 45134  1  0  0  0  0
 45135  1  0  0  0  0
 45136  1  0  0  0  0
 46137  1  0  0  0  0
 46138  1  0  0  0  0
 46139  1  0  0  0  0
 47 48  1  0  0  0  0
 47140  1  0  0  0  0
 47141  1  0  0  0  0
 48 49  1  0  0  0  0
 48142  1  0  0  0  0
 48143  1  0  0  0  0
 49 50  1  1  0  0  0
 49 51  1  0  0  0  0
 49 42  1  0  0  0  0
 50144  1  0  0  0  0
 50145  1  0  0  0  0
 50146  1  0  0  0  0
 51 52  1  0  0  0  0
 51147  1  0  0  0  0
 51148  1  0  0  0  0
 52 53  1  0  0  0  0
 52149  1  0  0  0  0
 52150  1  0  0  0  0
 53 54  1  1  0  0  0
 53 55  1  0  0  0  0
 53 40  1  0  0  0  0
 54151  1  0  0  0  0
 54152  1  0  0  0  0
 54153  1  0  0  0  0
 55 56  1  0  0  0  0
 55 37  1  0  0  0  0
 55154  1  6  0  0  0
 56 57  1  0  0  0  0
 56155  1  0  0  0  0
 56156  1  0  0  0  0
 57157  1  0  0  0  0
 57158  1  0  0  0  0
 58 57  1  0  0  0  0
 58 59  1  0  0  0  0
 58 35  1  0  0  0  0
 58159  1  6  0  0  0
 59 60  1  0  0  0  0
 59 61  1  0  0  0  0
 59 32  1  0  0  0  0
 60160  1  0  0  0  0
 60161  1  0  0  0  0
 60162  1  0  0  0  0
 61163  1  0  0  0  0
 61164  1  0  0  0  0
 61165  1  0  0  0  0
M  END
>  <IDENTIFIER>
CNP0093685.1

>  <Energy>
1515.22

$$$$
