
 OpenBabel09062504302D

 91 97  0  0  0  0  0  0  0  0999 V2000
    0.5092    2.1243   -0.2575 O   0  0  0  0  0  0  0  0  0  0  0  0
   -0.6951    2.1215   -0.4495 C   0  0  0  0  0  0  0  0  0  0  0  0
   -1.4240    3.2803   -0.3981 N   0  0  0  0  0  0  0  0  0  0  0  0
   -0.9352    4.6129   -0.1420 C   0  0  0  0  0  0  0  0  0  0  0  0
    0.4307    4.9457    0.0510 C   0  0  0  0  0  0  0  0  0  0  0  0
    0.8205    6.2700    0.2830 C   0  0  0  0  0  0  0  0  0  0  0  0
    2.5170    6.6573    0.5147 Cl  0  0  0  0  0  0  0  0  0  0  0  0
   -0.1331    7.2860    0.3283 C   0  0  0  0  0  0  0  0  0  0  0  0
   -1.4807    6.9843    0.1407 C   0  0  0  0  0  0  0  0  0  0  0  0
   -2.6775    8.2659    0.1964 Cl  0  0  0  0  0  0  0  0  0  0  0  0
   -1.8775    5.6630   -0.0937 C   0  0  0  0  0  0  0  0  0  0  0  0
   -1.3805    0.8026   -0.7810 C   0  0  2  0  0  0  0  0  0  0  0  0
   -0.4563   -0.4312   -0.7464 C   0  0  1  0  0  0  0  0  0  0  0  0
    0.2035   -0.5958    0.5985 C   0  0  0  0  0  0  0  0  0  0  0  0
   -0.7963   -1.0345    1.4249 C   0  0  0  0  0  0  0  0  0  0  0  0
   -1.9800   -1.0715    0.5280 C   0  0  1  0  0  0  0  0  0  0  0  0
   -1.3988   -1.4641   -0.7066 O   0  0  0  0  0  0  0  0  0  0  0  0
   -2.4653    0.3406    0.2128 C   0  0  1  0  0  0  0  0  0  0  0  0
   -3.7937   -0.0263   -0.3725 C   0  0  0  0  0  0  0  0  0  0  0  0
   -4.4847    0.7679   -0.9958 O   0  0  0  0  0  0  0  0  0  0  0  0
   -4.2350   -1.2642   -0.0027 N   0  0  0  0  0  0  0  0  0  0  0  0
   -5.6184   -1.6583   -0.2941 C   0  0  0  0  0  0  0  0  0  0  0  0
   -6.2520   -2.8584    0.4669 C   0  0  0  0  0  0  0  0  0  0  0  0
   -7.6618   -3.0631   -0.1452 C   0  0  0  0  0  0  0  0  0  0  0  0
   -8.5198   -4.1137    0.4615 N   0  0  0  0  0  0  0  0  0  0  0  0
   -9.8360   -4.0196   -0.2172 C   0  0  0  0  0  0  0  0  0  0  0  0
  -10.8244   -5.0555    0.3038 C   0  0  0  0  0  0  0  0  0  0  0  0
  -10.2808   -6.4745    0.0748 C   0  0  3  0  0  0  0  0  0  0  0  0
  -11.3524   -7.4847    0.5626 C   0  0  0  0  0  0  0  0  0  0  0  0
  -11.1949   -8.9579    0.2323 C   0  0  0  0  0  0  0  0  0  0  0  0
  -12.2298   -9.8158    0.6534 C   0  0  0  0  0  0  0  0  0  0  0  0
  -12.1856  -11.1837    0.3743 C   0  0  0  0  0  0  0  0  0  0  0  0
  -11.1048  -11.7173   -0.3270 C   0  0  0  0  0  0  0  0  0  0  0  0
  -10.0715  -10.8811   -0.7549 C   0  0  0  0  0  0  0  0  0  0  0  0
  -10.1128   -9.5060   -0.4852 C   0  0  0  0  0  0  0  0  0  0  0  0
   -8.9260   -6.5636    0.8146 C   0  0  0  0  0  0  0  0  0  0  0  0
   -7.9573   -5.4759    0.2888 C   0  0  0  0  0  0  0  0  0  0  0  0
   -3.2411   -1.8972    0.8602 C   0  0  2  0  0  0  0  0  0  0  0  0
   -2.8943   -3.3639    0.6244 C   0  0  0  0  0  0  0  0  0  0  0  0
   -2.1222   -3.8698    1.4224 O   0  0  0  0  0  0  0  0  0  0  0  0
   -3.3859   -4.0843   -0.4316 N   0  0  0  0  0  0  0  0  0  0  0  0
   -3.1469   -5.5002   -0.7431 C   0  0  0  0  0  0  0  0  0  0  0  0
   -2.0656   -6.2122    0.1120 C   0  0  0  0  0  0  0  0  0  0  0  0
   -1.9163   -7.6798   -0.3137 C   0  0  0  0  0  0  0  0  0  0  0  0
   -3.2516   -8.4137   -0.1433 C   0  0  0  0  0  0  0  0  0  0  0  0
   -4.3344   -7.7383   -0.9921 C   0  0  0  0  0  0  0  0  0  0  0  0
   -4.4810   -6.2613   -0.6054 C   0  0  0  0  0  0  0  0  0  0  0  0
   -2.4374    3.1852   -0.5662 H   0  0  0  0  0  0  0  0  0  0  0  0
    1.2230    4.2221    0.0254 H   0  0  0  0  0  0  0  0  0  0  0  0
    0.1749    8.3096    0.5077 H   0  0  0  0  0  0  0  0  0  0  0  0
   -2.9302    5.4521   -0.2386 H   0  0  0  0  0  0  0  0  0  0  0  0
   -1.8275    0.8807   -1.7972 H   0  0  0  0  0  0  0  0  0  0  0  0
    0.2628   -0.4699   -1.5917 H   0  0  0  0  0  0  0  0  0  0  0  0
    1.2537   -0.5234    0.8466 H   0  0  0  0  0  0  0  0  0  0  0  0
   -0.6907   -1.3687    2.4470 H   0  0  0  0  0  0  0  0  0  0  0  0
   -2.6045    0.9942    1.1035 H   0  0  0  0  0  0  0  0  0  0  0  0
   -6.2734   -0.7889   -0.0581 H   0  0  0  0  0  0  0  0  0  0  0  0
   -5.6826   -1.8340   -1.3902 H   0  0  0  0  0  0  0  0  0  0  0  0
   -6.3199   -2.6269    1.5512 H   0  0  0  0  0  0  0  0  0  0  0  0
   -5.6805   -3.7867    0.3434 H   0  0  0  0  0  0  0  0  0  0  0  0
   -8.1904   -2.0872   -0.0414 H   0  0  0  0  0  0  0  0  0  0  0  0
   -7.5411   -3.2669   -1.2353 H   0  0  0  0  0  0  0  0  0  0  0  0
  -10.2840   -3.0160   -0.0409 H   0  0  0  0  0  0  0  0  0  0  0  0
   -9.7226   -4.1603   -1.3179 H   0  0  0  0  0  0  0  0  0  0  0  0
  -11.0050   -4.8802    1.3878 H   0  0  0  0  0  0  0  0  0  0  0  0
  -11.7870   -4.9237   -0.2383 H   0  0  0  0  0  0  0  0  0  0  0  0
  -10.1301   -6.6208   -1.0189 H   0  0  0  0  0  0  0  0  0  0  0  0
  -12.3145   -7.1928    0.0843 H   0  0  0  0  0  0  0  0  0  0  0  0
  -11.4732   -7.3714    1.6626 H   0  0  0  0  0  0  0  0  0  0  0  0
  -13.0813   -9.4205    1.1942 H   0  0  0  0  0  0  0  0  0  0  0  0
  -12.9923  -11.8278    0.7000 H   0  0  0  0  0  0  0  0  0  0  0  0
  -11.0725  -12.7776   -0.5417 H   0  0  0  0  0  0  0  0  0  0  0  0
   -9.2366  -11.2997   -1.3047 H   0  0  0  0  0  0  0  0  0  0  0  0
   -9.3050   -8.8932   -0.8490 H   0  0  0  0  0  0  0  0  0  0  0  0
   -9.0861   -6.4084    1.9045 H   0  0  0  0  0  0  0  0  0  0  0  0
   -8.4552   -7.5576    0.6859 H   0  0  0  0  0  0  0  0  0  0  0  0
   -7.0178   -5.5648    0.8686 H   0  0  0  0  0  0  0  0  0  0  0  0
   -7.7372   -5.6746   -0.7849 H   0  0  0  0  0  0  0  0  0  0  0  0
   -3.5871   -1.7574    1.9079 H   0  0  0  0  0  0  0  0  0  0  0  0
   -4.0080   -3.6013   -1.0930 H   0  0  0  0  0  0  0  0  0  0  0  0
   -2.8033   -5.5526   -1.8007 H   0  0  0  0  0  0  0  0  0  0  0  0
   -2.3486   -6.2076    1.1870 H   0  0  0  0  0  0  0  0  0  0  0  0
   -1.0864   -5.7019   -0.0187 H   0  0  0  0  0  0  0  0  0  0  0  0
   -1.1405   -8.1714    0.3117 H   0  0  0  0  0  0  0  0  0  0  0  0
   -1.5921   -7.7331   -1.3766 H   0  0  0  0  0  0  0  0  0  0  0  0
   -3.5508   -8.3945    0.9289 H   0  0  0  0  0  0  0  0  0  0  0  0
   -3.1411   -9.4746   -0.4530 H   0  0  0  0  0  0  0  0  0  0  0  0
   -5.3049   -8.2590   -0.8416 H   0  0  0  0  0  0  0  0  0  0  0  0
   -4.0607   -7.8115   -2.0672 H   0  0  0  0  0  0  0  0  0  0  0  0
   -4.8182   -6.1975    0.4525 H   0  0  0  0  0  0  0  0  0  0  0  0
   -5.2541   -5.7944   -1.2525 H   0  0  0  0  0  0  0  0  0  0  0  0
  1  2  2  0  0  0  0
  2  3  1  0  0  0  0
  3  4  1  0  0  0  0
  3 48  1  0  0  0  0
  4  5  2  0  0  0  0
  5  6  1  0  0  0  0
  5 49  1  0  0  0  0
  6  7  1  0  0  0  0
  6  8  2  0  0  0  0
  8  9  1  0  0  0  0
  8 50  1  0  0  0  0
  9 10  1  0  0  0  0
  9 11  2  0  0  0  0
 11  4  1  0  0  0  0
 11 51  1  0  0  0  0
 12  2  1  0  0  0  0
 12 13  1  0  0  0  0
 12 52  1  1  0  0  0
 13 14  1  0  0  0  0
 13 53  1  6  0  0  0
 14 15  2  0  0  0  0
 14 54  1  0  0  0  0
 15 55  1  0  0  0  0
 16 15  1  6  0  0  0
 16 17  1  0  0  0  0
 16 18  1  0  0  0  0
 17 13  1  0  0  0  0
 18 19  1  0  0  0  0
 18 12  1  0  0  0  0
 18 56  1  6  0  0  0
 19 20  2  0  0  0  0
 19 21  1  0  0  0  0
 21 22  1  0  0  0  0
 21 38  1  0  0  0  0
 22 23  1  0  0  0  0
 22 57  1  0  0  0  0
 22 58  1  0  0  0  0
 23 24  1  0  0  0  0
 23 59  1  0  0  0  0
 23 60  1  0  0  0  0
 24 25  1  0  0  0  0
 24 61  1  0  0  0  0
 24 62  1  0  0  0  0
 25 26  1  0  0  0  0
 26 27  1  0  0  0  0
 26 63  1  0  0  0  0
 26 64  1  0  0  0  0
 27 28  1  0  0  0  0
 27 65  1  0  0  0  0
 27 66  1  0  0  0  0
 28 29  1  0  0  0  0
 28 36  1  0  0  0  0
 28 67  1  0  0  0  0
 29 30  1  0  0  0  0
 29 68  1  0  0  0  0
 29 69  1  0  0  0  0
 30 31  2  0  0  0  0
 31 32  1  0  0  0  0
 31 70  1  0  0  0  0
 32 33  2  0  0  0  0
 32 71  1  0  0  0  0
 33 34  1  0  0  0  0
 33 72  1  0  0  0  0
 34 35  2  0  0  0  0
 34 73  1  0  0  0  0
 35 30  1  0  0  0  0
 35 74  1  0  0  0  0
 36 37  1  0  0  0  0
 36 75  1  0  0  0  0
 36 76  1  0  0  0  0
 37 25  1  0  0  0  0
 37 77  1  0  0  0  0
 37 78  1  0  0  0  0
 38 39  1  0  0  0  0
 38 16  1  0  0  0  0
 38 79  1  6  0  0  0
 39 40  2  0  0  0  0
 39 41  1  0  0  0  0
 41 42  1  0  0  0  0
 41 80  1  0  0  0  0
 42 43  1  0  0  0  0
 42 81  1  0  0  0  0
 43 44  1  0  0  0  0
 43 82  1  0  0  0  0
 43 83  1  0  0  0  0
 44 45  1  0  0  0  0
 44 84  1  0  0  0  0
 44 85  1  0  0  0  0
 45 46  1  0  0  0  0
 45 86  1  0  0  0  0
 45 87  1  0  0  0  0
 46 47  1  0  0  0  0
 46 88  1  0  0  0  0
 46 89  1  0  0  0  0
 47 42  1  0  0  0  0
 47 90  1  0  0  0  0
 47 91  1  0  0  0  0
M  END
>  <IDENTIFIER>
CNP0555608.2

>  <Energy>
1000.49

$$$$
