
 OpenBabel09062504143D

 38 41  0  0  0  0  0  0  0  0999 V2000
   -1.3008    2.7414    1.4435 C   0  0  0  0  0  0  0  0  0  0  0  0
   -0.8279    1.9009    0.3662 N   0  0  0  0  0  0  0  0  0  0  0  0
   -1.1924    1.9460   -0.9301 C   0  0  0  0  0  0  0  0  0  0  0  0
   -2.0278    2.7009   -1.4036 O   0  0  0  0  0  0  0  0  0  0  0  0
   -0.5022    0.8056   -1.6052 C   0  0  1  0  0  0  0  0  0  0  0  0
    0.8801    1.1690   -1.6778 O   0  0  0  0  0  0  0  0  0  0  0  0
    1.3272    1.1655   -0.3201 C   0  0  2  0  0  0  0  0  0  0  0  0
    2.5787    0.3142   -0.1236 C   0  0  0  0  0  0  0  0  0  0  0  0
    2.7776   -0.9406   -0.7398 C   0  0  0  0  0  0  0  0  0  0  0  0
    3.9599   -1.6582   -0.5252 C   0  0  0  0  0  0  0  0  0  0  0  0
    4.9606   -1.1380    0.2963 C   0  0  0  0  0  0  0  0  0  0  0  0
    4.7866    0.1059    0.9010 C   0  0  0  0  0  0  0  0  0  0  0  0
    3.6096    0.8281    0.6905 C   0  0  0  0  0  0  0  0  0  0  0  0
    0.0707    0.7673    0.4966 C   0  0  2  0  0  0  0  0  0  0  0  0
   -0.5480   -0.2327   -0.4718 C   0  0  1  0  0  0  0  0  0  0  0  0
   -1.9076   -0.8697   -0.1018 C   0  0  0  0  0  0  0  0  0  0  0  0
   -3.0696   -0.1473    0.2700 C   0  0  0  0  0  0  0  0  0  0  0  0
   -4.2585   -0.8107    0.5878 C   0  0  0  0  0  0  0  0  0  0  0  0
   -4.3227   -2.2012    0.5431 C   0  0  0  0  0  0  0  0  0  0  0  0
   -3.1959   -2.9351    0.1807 C   0  0  0  0  0  0  0  0  0  0  0  0
   -2.0026   -2.2800   -0.1367 C   0  0  0  0  0  0  0  0  0  0  0  0
   -2.0110    3.5079    1.0684 H   0  0  0  0  0  0  0  0  0  0  0  0
   -0.4373    3.2531    1.9173 H   0  0  0  0  0  0  0  0  0  0  0  0
   -1.8139    2.1168    2.2048 H   0  0  0  0  0  0  0  0  0  0  0  0
   -0.9020    0.4960   -2.5937 H   0  0  0  0  0  0  0  0  0  0  0  0
    1.5861    2.2030   -0.0051 H   0  0  0  0  0  0  0  0  0  0  0  0
    2.0510   -1.3736   -1.4062 H   0  0  0  0  0  0  0  0  0  0  0  0
    4.1035   -2.6183   -1.0039 H   0  0  0  0  0  0  0  0  0  0  0  0
    5.8745   -1.6950    0.4582 H   0  0  0  0  0  0  0  0  0  0  0  0
    5.5650    0.5139    1.5330 H   0  0  0  0  0  0  0  0  0  0  0  0
    3.5029    1.7920    1.1727 H   0  0  0  0  0  0  0  0  0  0  0  0
    0.2808    0.4882    1.5521 H   0  0  0  0  0  0  0  0  0  0  0  0
    0.1277   -1.0727   -0.6864 H   0  0  0  0  0  0  0  0  0  0  0  0
   -3.1009    0.9236    0.3284 H   0  0  0  0  0  0  0  0  0  0  0  0
   -5.1349   -0.2412    0.8702 H   0  0  0  0  0  0  0  0  0  0  0  0
   -5.2462   -2.7091    0.7894 H   0  0  0  0  0  0  0  0  0  0  0  0
   -3.2460   -4.0158    0.1453 H   0  0  0  0  0  0  0  0  0  0  0  0
   -1.1493   -2.8861   -0.4146 H   0  0  0  0  0  0  0  0  0  0  0  0
  1  2  1  0  0  0  0
  1 22  1  0  0  0  0
  1 23  1  0  0  0  0
  1 24  1  0  0  0  0
  2  3  1  0  0  0  0
  3  4  2  0  0  0  0
  3  5  1  0  0  0  0
  5  6  1  0  0  0  0
  5 25  1  6  0  0  0
  6  7  1  0  0  0  0
  7  8  1  0  0  0  0
  7 14  1  0  0  0  0
  7 26  1  1  0  0  0
  8  9  2  0  0  0  0
  9 10  1  0  0  0  0
  9 27  1  0  0  0  0
 10 11  2  0  0  0  0
 10 28  1  0  0  0  0
 11 12  1  0  0  0  0
 11 29  1  0  0  0  0
 12 13  2  0  0  0  0
 12 30  1  0  0  0  0
 13  8  1  0  0  0  0
 13 31  1  0  0  0  0
 14 15  1  0  0  0  0
 14  2  1  0  0  0  0
 14 32  1  1  0  0  0
 15 16  1  0  0  0  0
 15  5  1  0  0  0  0
 15 33  1  6  0  0  0
 16 17  2  0  0  0  0
 17 18  1  0  0  0  0
 17 34  1  0  0  0  0
 18 19  2  0  0  0  0
 18 35  1  0  0  0  0
 19 20  1  0  0  0  0
 19 36  1  0  0  0  0
 20 21  2  0  0  0  0
 20 37  1  0  0  0  0
 21 16  1  0  0  0  0
 21 38  1  0  0  0  0
M  END
>  <IDENTIFIER>
CNP0291897.3

>  <Energy>
538.167

$$$$
