
 OpenBabel09092509113D

 44 47  0  0  0  0  0  0  0  0999 V2000
   -3.8669   -0.2032   -2.4975 O   0  0  0  0  0  0  0  0  0  0  0  0
   -3.4865    0.0705   -1.3677 C   0  0  0  0  0  0  0  0  0  0  0  0
   -2.1429    0.0231   -1.0540 N   0  0  0  0  0  0  0  0  0  0  0  0
   -1.0473   -0.3385   -1.9424 C   0  0  0  0  0  0  0  0  0  0  0  0
   -1.3200   -0.6969   -3.3236 S   0  0  0  0  0  0  0  0  0  0  0  0
    0.3380   -0.3675   -1.4750 N   0  0  0  0  0  0  0  0  0  0  0  0
    1.4174   -0.8835   -2.3761 C   0  0  0  0  0  0  0  0  0  0  0  0
    2.7483   -1.2424   -1.6173 C   0  0  1  0  0  0  0  0  0  0  0  0
    2.2016   -1.9841   -0.3854 C   0  0  0  0  0  0  0  0  0  0  0  0
    1.7355   -0.8873    0.5766 C   0  0  2  0  0  0  0  0  0  0  0  0
    0.7550    0.1081   -0.1366 C   0  0  0  0  0  0  0  0  0  0  0  0
    2.9913   -0.1480    1.0314 C   0  0  0  0  0  0  0  0  0  0  0  0
    2.9964    0.4679    2.2894 C   0  0  0  0  0  0  0  0  0  0  0  0
    4.1461    1.1080    2.7420 C   0  0  0  0  0  0  0  0  0  0  0  0
    5.2876    1.1301    1.9482 C   0  0  0  0  0  0  0  0  0  0  0  0
    5.2719    0.5185    0.6920 C   0  0  0  0  0  0  0  0  0  0  0  0
    6.2819    0.5492    0.0078 O   0  0  0  0  0  0  0  0  0  0  0  0
    4.1248   -0.1054    0.2284 N   0  0  0  0  0  0  0  0  0  0  0  0
    4.1531   -0.7405   -1.1311 C   0  0  0  0  0  0  0  0  0  0  0  0
   -4.5432    0.4424   -0.3604 C   0  0  0  0  0  0  0  0  0  0  0  0
   -5.9007    0.4046   -0.7538 C   0  0  0  0  0  0  0  0  0  0  0  0
   -6.9217    0.7364    0.1397 C   0  0  0  0  0  0  0  0  0  0  0  0
   -6.6138    1.1155    1.4454 C   0  0  0  0  0  0  0  0  0  0  0  0
   -7.8980    1.5317    2.5653 Cl  0  0  0  0  0  0  0  0  0  0  0  0
   -5.2813    1.1632    1.8574 C   0  0  0  0  0  0  0  0  0  0  0  0
   -4.2522    0.8307    0.9692 C   0  0  0  0  0  0  0  0  0  0  0  0
   -1.9042    0.2441   -0.0931 H   0  0  0  0  0  0  0  0  0  0  0  0
    1.5436   -0.2480   -3.2917 H   0  0  0  0  0  0  0  0  0  0  0  0
    1.0754   -1.8705   -2.7620 H   0  0  0  0  0  0  0  0  0  0  0  0
    2.6624   -0.1408   -1.5649 H   0  0  0  0  0  0  0  0  0  0  0  0
    2.9586   -2.6470    0.0941 H   0  0  0  0  0  0  0  0  0  0  0  0
    1.3500   -2.6577   -0.6383 H   0  0  0  0  0  0  0  0  0  0  0  0
    1.2416   -1.4172    1.4210 H   0  0  0  0  0  0  0  0  0  0  0  0
    1.3106    1.0527   -0.3348 H   0  0  0  0  0  0  0  0  0  0  0  0
   -0.0210    0.4455    0.5646 H   0  0  0  0  0  0  0  0  0  0  0  0
    2.1166    0.4413    2.9202 H   0  0  0  0  0  0  0  0  0  0  0  0
    4.1558    1.5806    3.7158 H   0  0  0  0  0  0  0  0  0  0  0  0
    6.1832    1.6226    2.3080 H   0  0  0  0  0  0  0  0  0  0  0  0
    4.8305   -1.6199   -1.0630 H   0  0  0  0  0  0  0  0  0  0  0  0
    4.6443   -0.0698   -1.8904 H   0  0  0  0  0  0  0  0  0  0  0  0
   -6.1816    0.1142   -1.7586 H   0  0  0  0  0  0  0  0  0  0  0  0
   -7.9535    0.6968   -0.1864 H   0  0  0  0  0  0  0  0  0  0  0  0
   -5.0396    1.4589    2.8705 H   0  0  0  0  0  0  0  0  0  0  0  0
   -3.2472    0.8909    1.3518 H   0  0  0  0  0  0  0  0  0  0  0  0
  1  2  2  0  0  0  0
  2  3  1  0  0  0  0
  2 20  1  0  0  0  0
  3  4  1  0  0  0  0
  3 27  1  0  0  0  0
  4  5  2  0  0  0  0
  4  6  1  0  0  0  0
  6  7  1  0  0  0  0
  7 28  1  0  0  0  0
  7 29  1  0  0  0  0
  8  7  1  0  0  0  0
  8  9  1  0  0  0  0
  8 30  1  1  0  0  0
  9 10  1  0  0  0  0
  9 31  1  0  0  0  0
  9 32  1  0  0  0  0
 10 11  1  0  0  0  0
 10 12  1  0  0  0  0
 10 33  1  1  0  0  0
 11  6  1  0  0  0  0
 11 34  1  0  0  0  0
 11 35  1  0  0  0  0
 12 13  2  0  0  0  0
 13 14  1  0  0  0  0
 13 36  1  0  0  0  0
 14 15  2  0  0  0  0
 14 37  1  0  0  0  0
 15 16  1  0  0  0  0
 15 38  1  0  0  0  0
 16 17  2  0  0  0  0
 16 18  1  0  0  0  0
 18 19  1  0  0  0  0
 18 12  1  0  0  0  0
 19  8  1  0  0  0  0
 19 39  1  0  0  0  0
 19 40  1  0  0  0  0
 20 21  2  0  0  0  0
 21 22  1  0  0  0  0
 21 41  1  0  0  0  0
 22 23  2  0  0  0  0
 22 42  1  0  0  0  0
 23 24  1  0  0  0  0
 23 25  1  0  0  0  0
 25 26  2  0  0  0  0
 25 43  1  0  0  0  0
 26 20  1  0  0  0  0
 26 44  1  0  0  0  0
M  END
>  <IDENTIFIER>
CNP0349782.1

>  <Energy>
958.409

$$$$
