
 OpenBabel09132512083D

 52 55  0  0  0  0  0  0  0  0999 V2000
   -5.0145    3.7472   -0.9204 C   0  0  0  0  0  0  0  0  0  0  0  0
   -4.1788    2.6498   -0.9009 O   0  0  0  0  0  0  0  0  0  0  0  0
   -4.4992    1.4010   -0.4627 C   0  0  0  0  0  0  0  0  0  0  0  0
   -5.7875    1.0934    0.0178 C   0  0  0  0  0  0  0  0  0  0  0  0
   -6.0993   -0.2003    0.4753 C   0  0  0  0  0  0  0  0  0  0  0  0
   -7.3327   -0.5248    0.9484 O   0  0  0  0  0  0  0  0  0  0  0  0
   -8.4037    0.3353    1.0780 C   0  0  0  0  0  0  0  0  0  0  0  0
   -5.1185   -1.1996    0.4416 C   0  0  0  0  0  0  0  0  0  0  0  0
   -5.4578   -2.4473    0.8643 O   0  0  0  0  0  0  0  0  0  0  0  0
   -4.6335   -3.5536    0.8734 C   0  0  0  0  0  0  0  0  0  0  0  0
   -3.8273   -0.8914   -0.0288 C   0  0  0  0  0  0  0  0  0  0  0  0
   -3.5015    0.4037   -0.4665 C   0  0  0  0  0  0  0  0  0  0  0  0
   -2.1413    0.7511   -0.9734 C   0  0  0  0  0  0  0  0  0  0  0  0
   -0.9496    0.2660   -0.5610 C   0  0  0  0  0  0  0  0  0  0  0  0
    0.2149    0.6841   -1.1275 O   0  0  0  0  0  0  0  0  0  0  0  0
    1.2460    0.1216   -0.4580 C   0  0  0  0  0  0  0  0  0  0  0  0
    2.6029    0.3303   -0.6997 C   0  0  0  0  0  0  0  0  0  0  0  0
    3.5452   -0.2964    0.1412 C   0  0  0  0  0  0  0  0  0  0  0  0
    4.8647   -0.0573   -0.0813 O   0  0  0  0  0  0  0  0  0  0  0  0
    5.8555   -0.0408    0.8538 C   0  0  0  0  0  0  0  0  0  0  0  0
    5.5822   -0.0054    2.0460 O   0  0  0  0  0  0  0  0  0  0  0  0
    7.2747    0.0281    0.4278 C   0  0  0  0  0  0  0  0  0  0  0  0
    8.2998    0.1817    1.3811 C   0  0  0  0  0  0  0  0  0  0  0  0
    9.6366    0.2506    0.9797 C   0  0  0  0  0  0  0  0  0  0  0  0
    9.9673    0.1613   -0.3748 C   0  0  0  0  0  0  0  0  0  0  0  0
   11.7959    0.2519   -0.9184 Br  0  0  0  0  0  0  0  0  0  0  0  0
    8.9583    0.0060   -1.3300 C   0  0  0  0  0  0  0  0  0  0  0  0
    7.6182   -0.0578   -0.9334 C   0  0  0  0  0  0  0  0  0  0  0  0
    3.0923   -1.1485    1.1875 C   0  0  0  0  0  0  0  0  0  0  0  0
    1.7196   -1.3546    1.3993 C   0  0  0  0  0  0  0  0  0  0  0  0
    0.8263   -0.6987    0.5599 C   0  0  0  0  0  0  0  0  0  0  0  0
   -0.6152   -0.6640    0.5393 C   0  0  0  0  0  0  0  0  0  0  0  0
   -1.3511   -1.1737    1.3670 O   0  0  0  0  0  0  0  0  0  0  0  0
   -4.4601    4.6164   -1.3296 H   0  0  0  0  0  0  0  0  0  0  0  0
   -5.3460    3.9941    0.1109 H   0  0  0  0  0  0  0  0  0  0  0  0
   -5.8939    3.5503   -1.5695 H   0  0  0  0  0  0  0  0  0  0  0  0
   -6.5468    1.8609    0.0370 H   0  0  0  0  0  0  0  0  0  0  0  0
   -9.2667   -0.2214    1.4972 H   0  0  0  0  0  0  0  0  0  0  0  0
   -8.6930    0.7425    0.0860 H   0  0  0  0  0  0  0  0  0  0  0  0
   -8.1473    1.1641    1.7723 H   0  0  0  0  0  0  0  0  0  0  0  0
   -5.1972   -4.4217    1.2721 H   0  0  0  0  0  0  0  0  0  0  0  0
   -3.7531   -3.3724    1.5261 H   0  0  0  0  0  0  0  0  0  0  0  0
   -4.3018   -3.7926   -0.1596 H   0  0  0  0  0  0  0  0  0  0  0  0
   -3.0893   -1.6726   -0.0851 H   0  0  0  0  0  0  0  0  0  0  0  0
   -2.0923    1.5258   -1.7338 H   0  0  0  0  0  0  0  0  0  0  0  0
    2.9226    0.9853   -1.5002 H   0  0  0  0  0  0  0  0  0  0  0  0
    8.0687    0.2546    2.4366 H   0  0  0  0  0  0  0  0  0  0  0  0
   10.4139    0.3733    1.7230 H   0  0  0  0  0  0  0  0  0  0  0  0
    9.2117   -0.0653   -2.3798 H   0  0  0  0  0  0  0  0  0  0  0  0
    6.8539   -0.1789   -1.6908 H   0  0  0  0  0  0  0  0  0  0  0  0
    3.7922   -1.6557    1.8366 H   0  0  0  0  0  0  0  0  0  0  0  0
    1.3685   -1.9950    2.1979 H   0  0  0  0  0  0  0  0  0  0  0  0
  1  2  1  0  0  0  0
  1 34  1  0  0  0  0
  1 35  1  0  0  0  0
  1 36  1  0  0  0  0
  2  3  1  0  0  0  0
  3  4  2  0  0  0  0
  4  5  1  0  0  0  0
  4 37  1  0  0  0  0
  5  6  1  0  0  0  0
  5  8  2  0  0  0  0
  6  7  1  0  0  0  0
  7 38  1  0  0  0  0
  7 39  1  0  0  0  0
  7 40  1  0  0  0  0
  8  9  1  0  0  0  0
  8 11  1  0  0  0  0
  9 10  1  0  0  0  0
 10 41  1  0  0  0  0
 10 42  1  0  0  0  0
 10 43  1  0  0  0  0
 11 12  2  0  0  0  0
 11 44  1  0  0  0  0
 12 13  1  0  0  0  0
 12  3  1  0  0  0  0
 13 14  2  3  0  0  0
 13 45  1  0  0  0  0
 14 15  1  0  0  0  0
 15 16  1  0  0  0  0
 16 17  2  0  0  0  0
 17 18  1  0  0  0  0
 17 46  1  0  0  0  0
 18 19  1  0  0  0  0
 18 29  2  0  0  0  0
 19 20  1  0  0  0  0
 20 21  2  0  0  0  0
 20 22  1  0  0  0  0
 22 23  2  0  0  0  0
 23 24  1  0  0  0  0
 23 47  1  0  0  0  0
 24 25  2  0  0  0  0
 24 48  1  0  0  0  0
 25 26  1  0  0  0  0
 25 27  1  0  0  0  0
 27 28  2  0  0  0  0
 27 49  1  0  0  0  0
 28 22  1  0  0  0  0
 28 50  1  0  0  0  0
 29 30  1  0  0  0  0
 29 51  1  0  0  0  0
 30 31  2  0  0  0  0
 30 52  1  0  0  0  0
 31 32  1  0  0  0  0
 31 16  1  0  0  0  0
 32 33  2  0  0  0  0
 32 14  1  0  0  0  0
M  END
>  <IDENTIFIER>
CNP0057386.0

>  <Energy>
510.234

$$$$
