
 OpenBabel09112510063D

 70 71  0  0  0  0  0  0  0  0999 V2000
    1.3295    5.0384    1.0026 C   0  0  0  0  0  0  0  0  0  0  0  0
    1.8845    3.7501    0.4259 C   0  0  0  0  0  0  0  0  0  0  0  0
    3.0979    3.3347    0.9108 C   0  0  0  0  0  0  0  0  0  0  0  0
    4.0746    2.2358    0.6250 C   0  0  0  0  0  0  0  0  0  0  0  0
    4.2203    1.4359   -0.4487 C   0  0  0  0  0  0  0  0  0  0  0  0
    5.3672    0.4568   -0.5140 C   0  0  0  0  0  0  0  0  0  0  0  0
    5.0410   -1.0588   -0.5815 C   0  0  2  0  0  0  0  0  0  0  0  0
    4.2649   -1.4125   -1.6966 O   0  0  0  0  0  0  0  0  0  0  0  0
    4.5689   -1.7672    0.7363 C   0  0  2  0  0  0  0  0  0  0  0  0
    5.1842   -3.0350    0.8044 O   0  0  0  0  0  0  0  0  0  0  0  0
    3.0635   -1.9505    0.9418 C   0  0  0  0  0  0  0  0  0  0  0  0
    2.6547   -3.0864    1.1110 O   0  0  0  0  0  0  0  0  0  0  0  0
    2.1272   -0.8092    1.0971 C   0  0  0  0  0  0  0  0  0  0  0  0
    0.7666   -0.8110    1.1463 C   0  0  0  0  0  0  0  0  0  0  0  0
   -0.2459   -1.9011    0.9473 C   0  0  0  0  0  0  0  0  0  0  0  0
   -0.0761   -3.0540    0.2697 C   0  0  0  0  0  0  0  0  0  0  0  0
   -1.0992   -4.1445    0.1223 C   0  0  0  0  0  0  0  0  0  0  0  0
   -0.5316   -5.5442    0.0700 C   0  0  0  0  0  0  0  0  0  0  0  0
   -2.4607   -4.0486    0.0407 C   0  0  0  0  0  0  0  0  0  0  0  0
   -3.3656   -2.8713   -0.1016 C   0  0  0  0  0  0  0  0  0  0  0  0
   -2.9821   -1.6611   -0.5178 C   0  0  0  0  0  0  0  0  0  0  0  0
   -3.9367   -0.4959   -0.7183 C   0  0  1  0  0  0  0  0  0  0  0  0
   -4.5931   -0.1070    0.6177 C   0  0  2  0  0  0  0  0  0  0  0  0
   -5.7417   -0.8537    0.9301 O   0  0  0  0  0  0  0  0  0  0  0  0
   -4.8405    1.3777    0.4268 C   0  0  1  0  0  0  0  0  0  0  0  0
   -5.2239    2.1352    1.6961 C   0  0  0  0  0  0  0  0  0  0  0  0
   -3.5199    1.8204   -0.2142 C   0  0  0  0  0  0  0  0  0  0  0  0
   -3.2066    0.7113   -1.0937 N   0  0  0  0  0  0  0  0  0  0  0  0
   -2.2962    0.7428   -2.1163 C   0  0  0  0  0  0  0  0  0  0  0  0
   -2.1938   -0.2277   -2.8566 O   0  0  0  0  0  0  0  0  0  0  0  0
   -1.3355    1.8911   -2.3415 C   0  0  0  0  0  0  0  0  0  0  0  0
    0.0626    1.3493   -2.0837 C   0  0  0  0  0  0  0  0  0  0  0  0
    0.4254    0.3545   -2.6959 O   0  0  0  0  0  0  0  0  0  0  0  0
    1.0031    1.8943   -1.0747 C   0  0  0  0  0  0  0  0  0  0  0  0
    0.9677    3.1404   -0.5939 C   0  0  0  0  0  0  0  0  0  0  0  0
    1.9903    5.5106    1.7612 H   0  0  0  0  0  0  0  0  0  0  0  0
    0.3508    4.8383    1.4869 H   0  0  0  0  0  0  0  0  0  0  0  0
    1.1845    5.7782    0.1867 H   0  0  0  0  0  0  0  0  0  0  0  0
    3.5044    3.9489    1.7102 H   0  0  0  0  0  0  0  0  0  0  0  0
    4.8188    2.1237    1.4097 H   0  0  0  0  0  0  0  0  0  0  0  0
    3.6063    1.5106   -1.3279 H   0  0  0  0  0  0  0  0  0  0  0  0
    6.0583    0.5978    0.3467 H   0  0  0  0  0  0  0  0  0  0  0  0
    5.9446    0.7284   -1.4250 H   0  0  0  0  0  0  0  0  0  0  0  0
    6.0614   -1.4701   -0.7589 H   0  0  0  0  0  0  0  0  0  0  0  0
    3.3834   -0.9716   -1.5882 H   0  0  0  0  0  0  0  0  0  0  0  0
    4.9798   -1.1933    1.5943 H   0  0  0  0  0  0  0  0  0  0  0  0
    4.9164   -3.5477   -0.0039 H   0  0  0  0  0  0  0  0  0  0  0  0
    2.6005    0.1480    1.2511 H   0  0  0  0  0  0  0  0  0  0  0  0
    0.3166    0.1500    1.3815 H   0  0  0  0  0  0  0  0  0  0  0  0
   -1.2171   -1.7022    1.3852 H   0  0  0  0  0  0  0  0  0  0  0  0
    0.8736   -3.2704   -0.1805 H   0  0  0  0  0  0  0  0  0  0  0  0
    0.5766   -5.5503    0.1521 H   0  0  0  0  0  0  0  0  0  0  0  0
   -0.8078   -6.0279   -0.8910 H   0  0  0  0  0  0  0  0  0  0  0  0
   -0.9361   -6.1469    0.9109 H   0  0  0  0  0  0  0  0  0  0  0  0
   -3.0115   -4.9863    0.0212 H   0  0  0  0  0  0  0  0  0  0  0  0
   -4.4242   -3.0431    0.0682 H   0  0  0  0  0  0  0  0  0  0  0  0
   -1.9484   -1.4953   -0.7606 H   0  0  0  0  0  0  0  0  0  0  0  0
   -4.6834   -0.7191   -1.5125 H   0  0  0  0  0  0  0  0  0  0  0  0
   -3.8463   -0.2079    1.4406 H   0  0  0  0  0  0  0  0  0  0  0  0
   -6.3875   -0.7326    0.1859 H   0  0  0  0  0  0  0  0  0  0  0  0
   -5.6492    1.4950   -0.3333 H   0  0  0  0  0  0  0  0  0  0  0  0
   -4.4345    2.0283    2.4696 H   0  0  0  0  0  0  0  0  0  0  0  0
   -6.1784    1.7328    2.0983 H   0  0  0  0  0  0  0  0  0  0  0  0
   -5.3632    3.2120    1.4648 H   0  0  0  0  0  0  0  0  0  0  0  0
   -2.6915    1.9397    0.5199 H   0  0  0  0  0  0  0  0  0  0  0  0
   -3.7031    2.7691   -0.7638 H   0  0  0  0  0  0  0  0  0  0  0  0
   -1.5592    2.7344   -1.6649 H   0  0  0  0  0  0  0  0  0  0  0  0
   -1.4299    2.2531   -3.3865 H   0  0  0  0  0  0  0  0  0  0  0  0
    1.7326    1.2050   -0.7271 H   0  0  0  0  0  0  0  0  0  0  0  0
    0.1800    3.7939   -0.9500 H   0  0  0  0  0  0  0  0  0  0  0  0
  1  2  1  0  0  0  0
  1 36  1  0  0  0  0
  1 37  1  0  0  0  0
  1 38  1  0  0  0  0
  2  3  2  0  0  0  0
  3  4  1  0  0  0  0
  3 39  1  0  0  0  0
  4  5  2  0  0  0  0
  4 40  1  0  0  0  0
  5  6  1  0  0  0  0
  5 41  1  0  0  0  0
  6  7  1  0  0  0  0
  6 42  1  0  0  0  0
  6 43  1  0  0  0  0
  7  8  1  0  0  0  0
  7  9  1  0  0  0  0
  7 44  1  6  0  0  0
  8 45  1  0  0  0  0
  9 10  1  0  0  0  0
  9 11  1  0  0  0  0
  9 46  1  1  0  0  0
 10 47  1  0  0  0  0
 11 12  2  0  0  0  0
 11 13  1  0  0  0  0
 13 14  2  0  0  0  0
 13 48  1  0  0  0  0
 14 15  1  0  0  0  0
 14 49  1  0  0  0  0
 15 16  2  0  0  0  0
 15 50  1  0  0  0  0
 16 17  1  0  0  0  0
 16 51  1  0  0  0  0
 17 18  1  0  0  0  0
 17 19  2  0  0  0  0
 18 52  1  0  0  0  0
 18 53  1  0  0  0  0
 18 54  1  0  0  0  0
 19 20  1  0  0  0  0
 19 55  1  0  0  0  0
 20 21  2  0  0  0  0
 20 56  1  0  0  0  0
 21 57  1  0  0  0  0
 22 21  1  0  0  0  0
 22 23  1  0  0  0  0
 22 58  1  6  0  0  0
 23 24  1  0  0  0  0
 23 25  1  0  0  0  0
 23 59  1  1  0  0  0
 24 60  1  0  0  0  0
 25 26  1  0  0  0  0
 25 27  1  0  0  0  0
 25 61  1  6  0  0  0
 26 62  1  0  0  0  0
 26 63  1  0  0  0  0
 26 64  1  0  0  0  0
 27 28  1  0  0  0  0
 27 65  1  0  0  0  0
 27 66  1  0  0  0  0
 28 29  1  0  0  0  0
 28 22  1  0  0  0  0
 29 30  2  0  0  0  0
 29 31  1  0  0  0  0
 31 32  1  0  0  0  0
 31 67  1  0  0  0  0
 31 68  1  0  0  0  0
 32 33  2  0  0  0  0
 32 34  1  0  0  0  0
 34 35  2  0  0  0  0
 34 69  1  0  0  0  0
 35  2  1  0  0  0  0
 35 70  1  0  0  0  0
M  END
>  <IDENTIFIER>
CNP0119946.3

>  <Energy>
871.296

$$$$
