
 OpenBabel09092501283D

157165  0  0  0  0  0  0  0  0999 V2000
    3.7241    3.1983    3.3286 C   0  0  0  0  0  0  0  0  0  0  0  0
    4.1610    2.6178    1.9842 C   0  0  2  0  0  0  0  0  0  0  0  0
    3.5986    1.3159    1.8629 O   0  0  0  0  0  0  0  0  0  0  0  0
    3.9135    0.7235    0.6090 C   0  0  1  0  0  0  0  0  0  0  0  0
    3.4447    1.5370   -0.4578 O   0  0  0  0  0  0  0  0  0  0  0  0
    2.2642    1.0549   -1.0677 C   0  0  1  0  0  0  0  0  0  0  0  0
    1.0411    1.7938   -0.4658 C   0  0  2  0  0  0  0  0  0  0  0  0
   -0.1182    1.2771   -1.0726 O   0  0  0  0  0  0  0  0  0  0  0  0
   -1.2773    1.1716   -0.2656 C   0  0  1  0  0  0  0  0  0  0  0  0
   -2.2727    2.2095   -0.8220 C   0  0  0  0  0  0  0  0  0  0  0  0
   -3.7162    1.9977   -0.3253 C   0  0  0  0  0  0  0  0  0  0  0  0
   -4.2585    0.5771   -0.6822 C   0  0  1  0  0  0  0  0  0  0  0  0
   -4.2651    0.4538   -2.2475 C   0  0  0  0  0  0  0  0  0  0  0  0
   -3.3022   -0.4488    0.0538 C   0  0  1  0  0  0  0  0  0  0  0  0
   -3.8689   -1.8980   -0.0430 C   0  0  0  0  0  0  0  0  0  0  0  0
   -5.2528   -2.0044    0.6168 C   0  0  0  0  0  0  0  0  0  0  0  0
   -6.3206   -1.0800   -0.0285 C   0  0  2  0  0  0  0  0  0  0  0  0
   -6.6667   -1.6252   -1.4603 C   0  0  0  0  0  0  0  0  0  0  0  0
   -5.7282    0.3921   -0.0641 C   0  0  2  0  0  0  0  0  0  0  0  0
   -6.7889    1.4067   -0.5946 C   0  0  0  0  0  0  0  0  0  0  0  0
   -8.2419    1.0313   -0.3871 C   0  0  0  0  0  0  0  0  0  0  0  0
   -8.6804   -0.1178    0.1831 C   0  0  0  0  0  0  0  0  0  0  0  0
  -10.1882   -0.3937    0.1281 C   0  0  2  0  0  0  0  0  0  0  0  0
  -10.9853    0.5723    1.0172 C   0  0  0  0  0  0  0  0  0  0  0  0
  -12.5156    0.5140    0.6646 C   0  0  0  0  0  0  0  0  0  0  0  0
  -12.8505    1.4931   -0.4830 C   0  0  0  0  0  0  0  0  0  0  0  0
  -13.3053    0.9531    1.9160 C   0  0  0  0  0  0  0  0  0  0  0  0
  -12.9550   -0.9224    0.2143 C   0  0  0  0  0  0  0  0  0  0  0  0
  -12.1042   -1.9786    0.9105 C   0  0  0  0  0  0  0  0  0  0  0  0
  -10.6160   -1.8981    0.4088 C   0  0  1  0  0  0  0  0  0  0  0  0
  -10.4842   -2.7277   -0.8904 C   0  0  0  0  0  0  0  0  0  0  0  0
  -10.0916   -2.2134   -1.9283 O   0  0  0  0  0  0  0  0  0  0  0  0
  -10.7787   -4.0460   -0.9104 O   0  0  0  0  0  0  0  0  0  0  0  0
   -9.7199   -2.5232    1.5082 C   0  0  0  0  0  0  0  0  0  0  0  0
   -8.2501   -2.5024    1.0756 C   0  0  0  0  0  0  0  0  0  0  0  0
   -7.6742   -1.0584    0.8529 C   0  0  1  0  0  0  0  0  0  0  0  0
   -7.4792   -0.4605    2.2906 C   0  0  0  0  0  0  0  0  0  0  0  0
   -1.7527   -0.3413   -0.2967 C   0  0  1  0  0  0  0  0  0  0  0  0
   -1.3941   -1.0434   -1.6445 C   0  0  0  0  0  0  0  0  0  0  0  0
   -0.9435   -1.0996    0.8168 C   0  0  0  0  0  0  0  0  0  0  0  0
    0.4440   -0.9714    0.6510 O   0  0  0  0  0  0  0  0  0  0  0  0
    1.1430    3.1996   -0.6830 O   0  0  0  0  0  0  0  0  0  0  0  0
    1.1595    3.5177   -2.0727 C   0  0  0  0  0  0  0  0  0  0  0  0
    2.3646    2.8685   -2.7906 C   0  0  2  0  0  0  0  0  0  0  0  0
    2.4172    3.2058   -4.1538 O   0  0  0  0  0  0  0  0  0  0  0  0
    2.3699    1.3359   -2.5792 C   0  0  2  0  0  0  0  0  0  0  0  0
    1.3580    0.6579   -3.2941 O   0  0  0  0  0  0  0  0  0  0  0  0
    5.4374    0.5353    0.4499 C   0  0  2  0  0  0  0  0  0  0  0  0
    5.9634   -0.3702    1.3954 O   0  0  0  0  0  0  0  0  0  0  0  0
    6.1217    1.9110    0.5500 C   0  0  2  0  0  0  0  0  0  0  0  0
    7.5350    1.7860    0.4933 O   0  0  0  0  0  0  0  0  0  0  0  0
    8.0438    1.9358   -0.8303 C   0  0  2  0  0  0  0  0  0  0  0  0
    7.8737    0.7317   -1.5618 O   0  0  0  0  0  0  0  0  0  0  0  0
    8.5638   -0.3876   -0.9843 C   0  0  0  0  0  0  0  0  0  0  0  0
    9.7489   -0.0323   -0.0414 C   0  0  1  0  0  0  0  0  0  0  0  0
   10.5833   -1.1732    0.1090 O   0  0  0  0  0  0  0  0  0  0  0  0
   11.1298   -1.3149    1.4197 C   0  0  2  0  0  0  0  0  0  0  0  0
   12.5065   -0.9815    1.4006 O   0  0  0  0  0  0  0  0  0  0  0  0
   13.3135   -1.8417    0.5822 C   0  0  2  0  0  0  0  0  0  0  0  0
   13.8082   -1.0675   -0.6476 C   0  0  0  0  0  0  0  0  0  0  0  0
   14.7281   -1.8203   -1.3909 O   0  0  0  0  0  0  0  0  0  0  0  0
   12.6507   -3.2089    0.1891 C   0  0  1  0  0  0  0  0  0  0  0  0
   13.6012   -4.1140   -0.3181 O   0  0  0  0  0  0  0  0  0  0  0  0
   11.9667   -3.7562    1.4462 C   0  0  2  0  0  0  0  0  0  0  0  0
   11.4327   -5.0431    1.2666 O   0  0  0  0  0  0  0  0  0  0  0  0
   10.8875   -2.7625    1.9408 C   0  0  1  0  0  0  0  0  0  0  0  0
   10.8080   -2.8148    3.3439 O   0  0  0  0  0  0  0  0  0  0  0  0
   10.5104    1.1409   -0.6693 C   0  0  1  0  0  0  0  0  0  0  0  0
   11.0463    0.7616   -1.9189 O   0  0  0  0  0  0  0  0  0  0  0  0
    9.5460    2.3600   -0.7835 C   0  0  1  0  0  0  0  0  0  0  0  0
    9.9196    3.1852   -1.8630 O   0  0  0  0  0  0  0  0  0  0  0  0
    5.7122    2.5712    1.8805 C   0  0  1  0  0  0  0  0  0  0  0  0
    6.2733    3.8562    1.9900 O   0  0  0  0  0  0  0  0  0  0  0  0
    2.6145    3.2306    3.3780 H   0  0  0  0  0  0  0  0  0  0  0  0
    4.1095    4.2321    3.4526 H   0  0  0  0  0  0  0  0  0  0  0  0
    4.0984    2.5667    4.1624 H   0  0  0  0  0  0  0  0  0  0  0  0
    3.7422    3.2881    1.1986 H   0  0  0  0  0  0  0  0  0  0  0  0
    3.4879   -0.3052    0.6020 H   0  0  0  0  0  0  0  0  0  0  0  0
    2.1546   -0.0478   -0.9733 H   0  0  0  0  0  0  0  0  0  0  0  0
    1.0532    1.5978    0.6292 H   0  0  0  0  0  0  0  0  0  0  0  0
   -1.1437    1.4677    0.8025 H   0  0  0  0  0  0  0  0  0  0  0  0
   -2.2348    2.2199   -1.9232 H   0  0  0  0  0  0  0  0  0  0  0  0
   -1.9250    3.2263   -0.5337 H   0  0  0  0  0  0  0  0  0  0  0  0
   -4.3557    2.7875   -0.7730 H   0  0  0  0  0  0  0  0  0  0  0  0
   -3.7299    2.1420    0.7786 H   0  0  0  0  0  0  0  0  0  0  0  0
   -3.3362    0.7355   -2.7364 H   0  0  0  0  0  0  0  0  0  0  0  0
   -4.9745    1.1490   -2.7255 H   0  0  0  0  0  0  0  0  0  0  0  0
   -4.4127   -0.5486   -2.6371 H   0  0  0  0  0  0  0  0  0  0  0  0
   -3.3611   -0.1713    1.1328 H   0  0  0  0  0  0  0  0  0  0  0  0
   -3.2312   -2.6114    0.5083 H   0  0  0  0  0  0  0  0  0  0  0  0
   -3.9006   -2.2431   -1.0930 H   0  0  0  0  0  0  0  0  0  0  0  0
   -5.1021   -1.7336    1.6804 H   0  0  0  0  0  0  0  0  0  0  0  0
   -5.5895   -3.0628    0.5868 H   0  0  0  0  0  0  0  0  0  0  0  0
   -5.8119   -1.8214   -2.0973 H   0  0  0  0  0  0  0  0  0  0  0  0
   -7.3618   -0.9584   -2.0077 H   0  0  0  0  0  0  0  0  0  0  0  0
   -7.1133   -2.6291   -1.4519 H   0  0  0  0  0  0  0  0  0  0  0  0
   -5.5726    0.6484    0.9977 H   0  0  0  0  0  0  0  0  0  0  0  0
   -6.7377    1.4634   -1.6922 H   0  0  0  0  0  0  0  0  0  0  0  0
   -6.5845    2.4209   -0.1920 H   0  0  0  0  0  0  0  0  0  0  0  0
   -8.9661    1.7059   -0.8373 H   0  0  0  0  0  0  0  0  0  0  0  0
  -10.5092   -0.1349   -0.9041 H   0  0  0  0  0  0  0  0  0  0  0  0
  -10.6354    1.6258    0.9547 H   0  0  0  0  0  0  0  0  0  0  0  0
  -10.7994    0.2417    2.0629 H   0  0  0  0  0  0  0  0  0  0  0  0
  -12.5799    2.5339   -0.2034 H   0  0  0  0  0  0  0  0  0  0  0  0
  -13.9371    1.4662   -0.7155 H   0  0  0  0  0  0  0  0  0  0  0  0
  -12.2955    1.2340   -1.4092 H   0  0  0  0  0  0  0  0  0  0  0  0
  -13.0106    1.9796    2.2238 H   0  0  0  0  0  0  0  0  0  0  0  0
  -13.1166    0.2667    2.7681 H   0  0  0  0  0  0  0  0  0  0  0  0
  -14.3976    0.9521    1.7104 H   0  0  0  0  0  0  0  0  0  0  0  0
  -12.7911   -1.0746   -0.8764 H   0  0  0  0  0  0  0  0  0  0  0  0
  -14.0428   -1.0658    0.3930 H   0  0  0  0  0  0  0  0  0  0  0  0
  -12.5174   -2.9986    0.7643 H   0  0  0  0  0  0  0  0  0  0  0  0
  -12.1771   -1.7717    1.9999 H   0  0  0  0  0  0  0  0  0  0  0  0
  -11.0767   -4.5317   -0.1301 H   0  0  0  0  0  0  0  0  0  0  0  0
  -10.0194   -3.5780    1.6897 H   0  0  0  0  0  0  0  0  0  0  0  0
   -9.8563   -1.9959    2.4719 H   0  0  0  0  0  0  0  0  0  0  0  0
   -8.2161   -3.1229    0.1726 H   0  0  0  0  0  0  0  0  0  0  0  0
   -7.6285   -3.0475    1.8189 H   0  0  0  0  0  0  0  0  0  0  0  0
   -8.4286   -0.4450    2.8585 H   0  0  0  0  0  0  0  0  0  0  0  0
   -7.1723    0.6022    2.2984 H   0  0  0  0  0  0  0  0  0  0  0  0
   -6.7625   -1.0471    2.8977 H   0  0  0  0  0  0  0  0  0  0  0  0
   -1.6849   -2.1129   -1.6260 H   0  0  0  0  0  0  0  0  0  0  0  0
   -0.2975   -1.0373   -1.8138 H   0  0  0  0  0  0  0  0  0  0  0  0
   -1.8196   -0.5911   -2.5425 H   0  0  0  0  0  0  0  0  0  0  0  0
   -1.2044   -2.1769    0.8750 H   0  0  0  0  0  0  0  0  0  0  0  0
   -1.1930   -0.6840    1.8174 H   0  0  0  0  0  0  0  0  0  0  0  0
    0.7751   -1.8090    0.2339 H   0  0  0  0  0  0  0  0  0  0  0  0
    1.2533    4.6199   -2.1752 H   0  0  0  0  0  0  0  0  0  0  0  0
    0.1875    3.2544   -2.5431 H   0  0  0  0  0  0  0  0  0  0  0  0
    3.2794    3.2818   -2.3112 H   0  0  0  0  0  0  0  0  0  0  0  0
    1.5472    2.9617   -4.5643 H   0  0  0  0  0  0  0  0  0  0  0  0
    3.3335    0.9324   -2.9597 H   0  0  0  0  0  0  0  0  0  0  0  0
    0.5647    1.2370   -3.4087 H   0  0  0  0  0  0  0  0  0  0  0  0
    5.6171    0.0994   -0.5554 H   0  0  0  0  0  0  0  0  0  0  0  0
    5.5211   -0.2242    2.2706 H   0  0  0  0  0  0  0  0  0  0  0  0
    5.7199    2.5702   -0.2558 H   0  0  0  0  0  0  0  0  0  0  0  0
    7.5211    2.7766   -1.3417 H   0  0  0  0  0  0  0  0  0  0  0  0
    8.9766   -0.9634   -1.8398 H   0  0  0  0  0  0  0  0  0  0  0  0
    7.8551   -1.0644   -0.4638 H   0  0  0  0  0  0  0  0  0  0  0  0
    9.3097    0.3074    0.9200 H   0  0  0  0  0  0  0  0  0  0  0  0
   10.6275   -0.6540    2.1603 H   0  0  0  0  0  0  0  0  0  0  0  0
   14.1978   -2.0836    1.2124 H   0  0  0  0  0  0  0  0  0  0  0  0
   14.2737   -0.1049   -0.3348 H   0  0  0  0  0  0  0  0  0  0  0  0
   12.9503   -0.8158   -1.3007 H   0  0  0  0  0  0  0  0  0  0  0  0
   15.5874   -1.7875   -0.8947 H   0  0  0  0  0  0  0  0  0  0  0  0
   11.8773   -3.0675   -0.5954 H   0  0  0  0  0  0  0  0  0  0  0  0
   14.2666   -4.2896    0.3977 H   0  0  0  0  0  0  0  0  0  0  0  0
   12.7729   -3.8256    2.2115 H   0  0  0  0  0  0  0  0  0  0  0  0
   10.8056   -4.9974    0.4981 H   0  0  0  0  0  0  0  0  0  0  0  0
    9.8843   -3.0407    1.5481 H   0  0  0  0  0  0  0  0  0  0  0  0
   11.6263   -2.3833    3.7047 H   0  0  0  0  0  0  0  0  0  0  0  0
   11.3735    1.4456   -0.0402 H   0  0  0  0  0  0  0  0  0  0  0  0
   10.3216    0.7194   -2.5929 H   0  0  0  0  0  0  0  0  0  0  0  0
    9.6271    2.9876    0.1314 H   0  0  0  0  0  0  0  0  0  0  0  0
    9.4918    2.8308   -2.6856 H   0  0  0  0  0  0  0  0  0  0  0  0
    6.1054    1.9585    2.7205 H   0  0  0  0  0  0  0  0  0  0  0  0
    5.8979    4.4114    1.2572 H   0  0  0  0  0  0  0  0  0  0  0  0
  1 74  1  0  0  0  0
  1 75  1  0  0  0  0
  1 76  1  0  0  0  0
  2  1  1  0  0  0  0
  2  3  1  0  0  0  0
  2 77  1  6  0  0  0
  3  4  1  0  0  0  0
  4  5  1  0  0  0  0
  4 48  1  0  0  0  0
  4 78  1  6  0  0  0
  6  5  1  0  0  0  0
  6  7  1  0  0  0  0
  6 79  1  1  0  0  0
  7  8  1  0  0  0  0
  7 42  1  0  0  0  0
  7 80  1  1  0  0  0
  9  8  1  0  0  0  0
  9 10  1  0  0  0  0
  9 81  1  1  0  0  0
 10 11  1  0  0  0  0
 10 82  1  0  0  0  0
 10 83  1  0  0  0  0
 11 12  1  0  0  0  0
 11 84  1  0  0  0  0
 11 85  1  0  0  0  0
 12 13  1  6  0  0  0
 12 14  1  0  0  0  0
 13 86  1  0  0  0  0
 13 87  1  0  0  0  0
 13 88  1  0  0  0  0
 14 15  1  0  0  0  0
 14 38  1  0  0  0  0
 14 89  1  1  0  0  0
 15 16  1  0  0  0  0
 15 90  1  0  0  0  0
 15 91  1  0  0  0  0
 16 17  1  0  0  0  0
 16 92  1  0  0  0  0
 16 93  1  0  0  0  0
 17 18  1  6  0  0  0
 17 19  1  0  0  0  0
 18 94  1  0  0  0  0
 18 95  1  0  0  0  0
 18 96  1  0  0  0  0
 19 20  1  0  0  0  0
 19 12  1  0  0  0  0
 19 97  1  1  0  0  0
 20 21  1  0  0  0  0
 20 98  1  0  0  0  0
 20 99  1  0  0  0  0
 21 22  2  0  0  0  0
 21100  1  0  0  0  0
 22 23  1  0  0  0  0
 23 24  1  0  0  0  0
 23101  1  6  0  0  0
 24 25  1  0  0  0  0
 24102  1  0  0  0  0
 24103  1  0  0  0  0
 25 26  1  0  0  0  0
 25 27  1  0  0  0  0
 25 28  1  0  0  0  0
 26104  1  0  0  0  0
 26105  1  0  0  0  0
 26106  1  0  0  0  0
 27107  1  0  0  0  0
 27108  1  0  0  0  0
 27109  1  0  0  0  0
 28 29  1  0  0  0  0
 28110  1  0  0  0  0
 28111  1  0  0  0  0
 29 30  1  0  0  0  0
 29112  1  0  0  0  0
 29113  1  0  0  0  0
 30 31  1  6  0  0  0
 30 34  1  0  0  0  0
 30 23  1  0  0  0  0
 31 32  2  0  0  0  0
 31 33  1  0  0  0  0
 33114  1  0  0  0  0
 34 35  1  0  0  0  0
 34115  1  0  0  0  0
 34116  1  0  0  0  0
 35 36  1  0  0  0  0
 35117  1  0  0  0  0
 35118  1  0  0  0  0
 36 37  1  1  0  0  0
 36 22  1  0  0  0  0
 36 17  1  0  0  0  0
 37119  1  0  0  0  0
 37120  1  0  0  0  0
 37121  1  0  0  0  0
 38 39  1  6  0  0  0
 38 40  1  0  0  0  0
 38  9  1  0  0  0  0
 39122  1  0  0  0  0
 39123  1  0  0  0  0
 39124  1  0  0  0  0
 40 41  1  0  0  0  0
 40125  1  0  0  0  0
 40126  1  0  0  0  0
 41127  1  0  0  0  0
 42 43  1  0  0  0  0
 43 44  1  0  0  0  0
 43128  1  0  0  0  0
 43129  1  0  0  0  0
 44 45  1  0  0  0  0
 44 46  1  0  0  0  0
 44130  1  1  0  0  0
 45131  1  0  0  0  0
 46 47  1  0  0  0  0
 46  6  1  0  0  0  0
 46132  1  6  0  0  0
 47133  1  0  0  0  0
 48 49  1  0  0  0  0
 48 50  1  0  0  0  0
 48134  1  6  0  0  0
 49135  1  0  0  0  0
 50 51  1  0  0  0  0
 50 72  1  0  0  0  0
 50136  1  6  0  0  0
 52 51  1  0  0  0  0
 52 53  1  0  0  0  0
 52137  1  6  0  0  0
 53 54  1  0  0  0  0
 54 55  1  0  0  0  0
 54138  1  0  0  0  0
 54139  1  0  0  0  0
 55 56  1  0  0  0  0
 55 68  1  0  0  0  0
 55140  1  1  0  0  0
 57 56  1  0  0  0  0
 57 58  1  0  0  0  0
 57141  1  1  0  0  0
 58 59  1  0  0  0  0
 59 60  1  0  0  0  0
 59 62  1  0  0  0  0
 59142  1  1  0  0  0
 60 61  1  0  0  0  0
 60143  1  0  0  0  0
 60144  1  0  0  0  0
 61145  1  0  0  0  0
 62 63  1  0  0  0  0
 62 64  1  0  0  0  0
 62146  1  6  0  0  0
 63147  1  0  0  0  0
 64 65  1  0  0  0  0
 64 66  1  0  0  0  0
 64148  1  1  0  0  0
 65149  1  0  0  0  0
 66 67  1  0  0  0  0
 66 57  1  0  0  0  0
 66150  1  6  0  0  0
 67151  1  0  0  0  0
 68 69  1  0  0  0  0
 68 70  1  0  0  0  0
 68152  1  1  0  0  0
 69153  1  0  0  0  0
 70 71  1  0  0  0  0
 70 52  1  0  0  0  0
 70154  1  1  0  0  0
 71155  1  0  0  0  0
 72 73  1  0  0  0  0
 72  2  1  0  0  0  0
 72156  1  1  0  0  0
 73157  1  0  0  0  0
M  END
>  <IDENTIFIER>
CNP0186144.5

>  <Energy>
1986.9

$$$$
