
 OpenBabel09052515163D

104109  0  0  0  0  0  0  0  0999 V2000
  -10.2331   -0.9269   -2.1948 C   0  0  0  0  0  0  0  0  0  0  0  0
   -9.8199   -1.4441   -0.8186 C   0  0  0  0  0  0  0  0  0  0  0  0
   -8.3099   -1.6930   -0.6883 C   0  0  0  0  0  0  0  0  0  0  0  0
   -7.4625   -0.4161   -0.8208 C   0  0  0  0  0  0  0  0  0  0  0  0
   -5.9842   -0.7403   -0.5525 C   0  0  0  0  0  0  0  0  0  0  0  0
   -5.0166    0.4657   -0.6172 C   0  0  1  0  0  0  0  0  0  0  0  0
   -4.8983    0.9350   -1.9394 O   0  0  0  0  0  0  0  0  0  0  0  0
   -5.3209    1.6478    0.3557 C   0  0  1  0  0  0  0  0  0  0  0  0
   -5.7046    1.2476    1.8148 C   0  0  0  0  0  0  0  0  0  0  0  0
   -6.1804    2.3973    2.7335 C   0  0  0  0  0  0  0  0  0  0  0  0
   -7.6932    2.7219    2.6888 C   0  0  0  0  0  0  0  0  0  0  0  0
   -8.2684    3.3264    1.4018 C   0  0  0  0  0  0  0  0  0  0  0  0
   -7.6504    4.6779    1.0579 C   0  0  0  0  0  0  0  0  0  0  0  0
   -4.1594    2.6482    0.3337 C   0  0  0  0  0  0  0  0  0  0  0  0
   -4.3664    3.7170   -0.2240 O   0  0  0  0  0  0  0  0  0  0  0  0
   -2.8564    2.5236    1.1458 C   0  0  0  0  0  0  0  0  0  0  0  0
   -1.5995    1.8907    0.4797 C   0  0  0  0  0  0  0  0  0  0  0  0
   -1.3711    0.3848    0.5440 C   0  0  0  0  0  0  0  0  0  0  0  0
   -2.2516   -0.5016    1.1702 C   0  0  0  0  0  0  0  0  0  0  0  0
   -2.0380   -1.8747    1.1476 C   0  0  0  0  0  0  0  0  0  0  0  0
   -0.9049   -2.4160    0.5444 C   0  0  0  0  0  0  0  0  0  0  0  0
   -0.8016   -3.7749    0.5479 O   0  0  0  0  0  0  0  0  0  0  0  0
    0.3024   -4.3614    0.1560 C   0  0  0  0  0  0  0  0  0  0  0  0
    1.4071   -4.6291   -0.2018 C   0  0  0  0  0  0  0  0  0  0  0  0
    2.8009   -4.4333   -0.5401 C   0  0  0  0  0  0  0  0  0  0  0  0
    3.2959   -3.2191    0.2836 C   0  0  1  0  0  0  0  0  0  0  0  0
    4.7841   -3.1904    0.1206 C   0  0  0  0  0  0  0  0  0  0  0  0
    5.9575   -3.1508   -0.2117 C   0  0  0  0  0  0  0  0  0  0  0  0
    7.3568   -3.2797   -0.6996 C   0  0  1  0  0  0  0  0  0  0  0  0
    7.3985   -3.5835   -2.0686 O   0  0  0  0  0  0  0  0  0  0  0  0
    8.2409   -2.0703   -0.3882 C   0  0  0  0  0  0  0  0  0  0  0  0
    9.1098   -2.2321    0.7086 C   0  0  0  0  0  0  0  0  0  0  0  0
    9.9361   -1.2063    1.1428 C   0  0  0  0  0  0  0  0  0  0  0  0
    9.9408    0.0315    0.4995 C   0  0  0  0  0  0  0  0  0  0  0  0
   10.8543    1.1155    1.0600 C   0  0  0  0  0  0  0  0  0  0  0  0
   10.5040    1.3736    2.4582 N   0  0  0  0  0  0  0  0  0  0  0  0
   10.8137    2.3713    0.3053 N   0  0  0  0  0  0  0  0  0  0  0  0
    9.1068    0.2136   -0.6207 C   0  0  0  0  0  0  0  0  0  0  0  0
    8.2516   -0.8085   -1.0912 C   0  0  0  0  0  0  0  0  0  0  0  0
    7.3961   -0.4666   -2.3199 C   0  0  0  0  0  0  0  0  0  0  0  0
    6.3258    0.4867   -1.8787 C   0  0  0  0  0  0  0  0  0  0  0  0
    6.3882    1.8244   -1.4407 C   0  0  0  0  0  0  0  0  0  0  0  0
    5.2247    2.1543   -0.8043 N   0  0  0  0  0  0  0  0  0  0  0  0
    4.4992    1.0283   -0.8521 C   0  0  0  0  0  0  0  0  0  0  0  0
    3.3595    0.5168   -0.2898 C   0  0  0  0  0  0  0  0  0  0  0  0
    3.2997   -0.8010   -0.6683 N   0  0  0  0  0  0  0  0  0  0  0  0
    4.3225   -1.0355   -1.5292 C   0  0  0  0  0  0  0  0  0  0  0  0
    5.0874    0.0778   -1.5285 C   0  0  0  0  0  0  0  0  0  0  0  0
    2.4981   -1.8296    0.0120 C   0  0  1  0  0  0  0  0  0  0  0  0
    1.2373   -1.9741   -0.5817 O   0  0  0  0  0  0  0  0  0  0  0  0
    0.0695   -1.5248   -0.0238 C   0  0  0  0  0  0  0  0  0  0  0  0
   -0.1973   -0.1418   -0.0297 C   0  0  0  0  0  0  0  0  0  0  0  0
  -11.3377   -0.8182   -2.2275 H   0  0  0  0  0  0  0  0  0  0  0  0
   -9.9225   -1.6439   -2.9840 H   0  0  0  0  0  0  0  0  0  0  0  0
   -9.7854    0.0668   -2.3988 H   0  0  0  0  0  0  0  0  0  0  0  0
  -10.3428   -2.4096   -0.6431 H   0  0  0  0  0  0  0  0  0  0  0  0
  -10.1503   -0.7258   -0.0371 H   0  0  0  0  0  0  0  0  0  0  0  0
   -7.9869   -2.4405   -1.4460 H   0  0  0  0  0  0  0  0  0  0  0  0
   -8.1368   -2.1278    0.3211 H   0  0  0  0  0  0  0  0  0  0  0  0
   -7.8227    0.3239   -0.0783 H   0  0  0  0  0  0  0  0  0  0  0  0
   -7.5736    0.0091   -1.8384 H   0  0  0  0  0  0  0  0  0  0  0  0
   -5.6400   -1.4995   -1.2894 H   0  0  0  0  0  0  0  0  0  0  0  0
   -5.8956   -1.2057    0.4526 H   0  0  0  0  0  0  0  0  0  0  0  0
   -4.0427    0.0436   -0.3701 H   0  0  0  0  0  0  0  0  0  0  0  0
   -5.7532    1.3709   -2.1900 H   0  0  0  0  0  0  0  0  0  0  0  0
   -6.2068    2.1348   -0.0853 H   0  0  0  0  0  0  0  0  0  0  0  0
   -4.8198    0.8171    2.2974 H   0  0  0  0  0  0  0  0  0  0  0  0
   -6.4806    0.4582    1.8494 H   0  0  0  0  0  0  0  0  0  0  0  0
   -5.5431    3.2996    2.6245 H   0  0  0  0  0  0  0  0  0  0  0  0
   -6.0260    2.0324    3.7737 H   0  0  0  0  0  0  0  0  0  0  0  0
   -7.9056    3.4349    3.5161 H   0  0  0  0  0  0  0  0  0  0  0  0
   -8.2550    1.7879    2.9103 H   0  0  0  0  0  0  0  0  0  0  0  0
   -9.3584    3.4807    1.5586 H   0  0  0  0  0  0  0  0  0  0  0  0
   -8.1718    2.6240    0.5557 H   0  0  0  0  0  0  0  0  0  0  0  0
   -7.8060    5.3935    1.8933 H   0  0  0  0  0  0  0  0  0  0  0  0
   -8.1379    5.0844    0.1470 H   0  0  0  0  0  0  0  0  0  0  0  0
   -6.5660    4.5781    0.8621 H   0  0  0  0  0  0  0  0  0  0  0  0
   -3.0118    2.1835    2.1883 H   0  0  0  0  0  0  0  0  0  0  0  0
   -2.5469    3.5860    1.2776 H   0  0  0  0  0  0  0  0  0  0  0  0
   -0.7188    2.3194    1.0076 H   0  0  0  0  0  0  0  0  0  0  0  0
   -1.5520    2.2387   -0.5758 H   0  0  0  0  0  0  0  0  0  0  0  0
   -3.1277   -0.1496    1.6573 H   0  0  0  0  0  0  0  0  0  0  0  0
   -2.7674   -2.5291    1.6092 H   0  0  0  0  0  0  0  0  0  0  0  0
    2.8940   -4.2237   -1.6273 H   0  0  0  0  0  0  0  0  0  0  0  0
    3.3523   -5.3767   -0.3353 H   0  0  0  0  0  0  0  0  0  0  0  0
    3.1111   -3.4892    1.3489 H   0  0  0  0  0  0  0  0  0  0  0  0
    7.7527   -4.1618   -0.1442 H   0  0  0  0  0  0  0  0  0  0  0  0
    7.0832   -4.5193   -2.1740 H   0  0  0  0  0  0  0  0  0  0  0  0
    9.1390   -3.1633    1.2620 H   0  0  0  0  0  0  0  0  0  0  0  0
   10.5726   -1.3782    2.0029 H   0  0  0  0  0  0  0  0  0  0  0  0
   11.8974    0.7295    1.0281 H   0  0  0  0  0  0  0  0  0  0  0  0
    9.5304    1.7532    2.5173 H   0  0  0  0  0  0  0  0  0  0  0  0
   11.1628    2.0812    2.8569 H   0  0  0  0  0  0  0  0  0  0  0  0
    9.8496    2.7775    0.3167 H   0  0  0  0  0  0  0  0  0  0  0  0
   11.1284    2.2099   -0.6787 H   0  0  0  0  0  0  0  0  0  0  0  0
    9.1120    1.1563   -1.1443 H   0  0  0  0  0  0  0  0  0  0  0  0
    6.8919   -1.3739   -2.6949 H   0  0  0  0  0  0  0  0  0  0  0  0
    8.0006   -0.0645   -3.1603 H   0  0  0  0  0  0  0  0  0  0  0  0
    7.2468    2.4795   -1.4951 H   0  0  0  0  0  0  0  0  0  0  0  0
    5.0008    3.0433   -0.3053 H   0  0  0  0  0  0  0  0  0  0  0  0
    2.7178    1.0046    0.4320 H   0  0  0  0  0  0  0  0  0  0  0  0
    4.5821   -1.9778   -1.9853 H   0  0  0  0  0  0  0  0  0  0  0  0
    2.3519   -1.4218    1.0397 H   0  0  0  0  0  0  0  0  0  0  0  0
    0.5130    0.5297   -0.4940 H   0  0  0  0  0  0  0  0  0  0  0  0
  1  2  1  0  0  0  0
  1 53  1  0  0  0  0
  1 54  1  0  0  0  0
  1 55  1  0  0  0  0
  2  3  1  0  0  0  0
  2 56  1  0  0  0  0
  2 57  1  0  0  0  0
  3  4  1  0  0  0  0
  3 58  1  0  0  0  0
  3 59  1  0  0  0  0
  4  5  1  0  0  0  0
  4 60  1  0  0  0  0
  4 61  1  0  0  0  0
  5  6  1  0  0  0  0
  5 62  1  0  0  0  0
  5 63  1  0  0  0  0
  6  7  1  0  0  0  0
  6  8  1  0  0  0  0
  6 64  1  1  0  0  0
  7 65  1  0  0  0  0
  8  9  1  0  0  0  0
  8 14  1  0  0  0  0
  8 66  1  6  0  0  0
  9 10  1  0  0  0  0
  9 67  1  0  0  0  0
  9 68  1  0  0  0  0
 10 11  1  0  0  0  0
 10 69  1  0  0  0  0
 10 70  1  0  0  0  0
 11 12  1  0  0  0  0
 11 71  1  0  0  0  0
 11 72  1  0  0  0  0
 12 13  1  0  0  0  0
 12 73  1  0  0  0  0
 12 74  1  0  0  0  0
 13 75  1  0  0  0  0
 13 76  1  0  0  0  0
 13 77  1  0  0  0  0
 14 15  2  0  0  0  0
 14 16  1  0  0  0  0
 16 17  1  0  0  0  0
 16 78  1  0  0  0  0
 16 79  1  0  0  0  0
 17 18  1  0  0  0  0
 17 80  1  0  0  0  0
 17 81  1  0  0  0  0
 18 19  2  0  0  0  0
 19 20  1  0  0  0  0
 19 82  1  0  0  0  0
 20 21  2  0  0  0  0
 20 83  1  0  0  0  0
 21 22  1  0  0  0  0
 22 23  1  0  0  0  0
 23 24  3  0  0  0  0
 24 25  1  0  0  0  0
 25 84  1  0  0  0  0
 25 85  1  0  0  0  0
 26 25  1  0  0  0  0
 26 27  1  0  0  0  0
 26 86  1  1  0  0  0
 27 28  3  0  0  0  0
 28 29  1  0  0  0  0
 29 30  1  0  0  0  0
 29 31  1  0  0  0  0
 29 87  1  1  0  0  0
 30 88  1  0  0  0  0
 31 32  2  0  0  0  0
 32 33  1  0  0  0  0
 32 89  1  0  0  0  0
 33 34  2  0  0  0  0
 33 90  1  0  0  0  0
 34 35  1  0  0  0  0
 34 38  1  0  0  0  0
 35 36  1  0  0  0  0
 35 37  1  0  0  0  0
 35 91  1  0  0  0  0
 36 92  1  0  0  0  0
 36 93  1  0  0  0  0
 37 94  1  0  0  0  0
 37 95  1  0  0  0  0
 38 39  2  0  0  0  0
 38 96  1  0  0  0  0
 39 40  1  0  0  0  0
 39 31  1  0  0  0  0
 40 41  1  0  0  0  0
 40 97  1  0  0  0  0
 40 98  1  0  0  0  0
 41 42  2  0  0  0  0
 42 43  1  0  0  0  0
 42 99  1  0  0  0  0
 43 44  1  0  0  0  0
 43100  1  0  0  0  0
 44 45  2  0  0  0  0
 45 46  1  0  0  0  0
 45101  1  0  0  0  0
 46 47  1  0  0  0  0
 46 49  1  0  0  0  0
 47 48  2  0  0  0  0
 47102  1  0  0  0  0
 48 41  1  0  0  0  0
 48 44  1  0  0  0  0
 49 50  1  0  0  0  0
 49 26  1  0  0  0  0
 49103  1  1  0  0  0
 50 51  1  0  0  0  0
 51 52  2  0  0  0  0
 51 21  1  0  0  0  0
 52 18  1  0  0  0  0
 52104  1  0  0  0  0
M  END
>  <IDENTIFIER>
CNP0422187.1

>  <Energy>
1522.96

$$$$
