
 OpenBabel09082509132D

119133  0  0  0  0  0  0  0  0999 V2000
    2.6491    0.9642    0.0000 C   0  0  0  0  0  0  0  0  0  0  0  0
    1.5000    0.0000    0.0000 C   0  0  0  0  0  0  0  0  0  0  0  0
    2.6491   -0.9642    0.0000 C   0  0  0  0  0  0  0  0  0  0  0  0
    0.7450   -1.2972    0.0000 C   0  0  0  0  0  0  0  0  0  0  0  0
   -0.7393   -1.2974    0.0000 C   0  0  0  0  0  0  0  0  0  0  0  0
   -1.4925    0.0088    0.0001 C   0  0  0  0  0  0  0  0  0  0  0  0
   -0.7472    1.2988    0.0000 C   0  0  0  0  0  0  0  0  0  0  0  0
   -1.4977    2.5973    0.0001 C   0  0  0  0  0  0  0  0  0  0  0  0
   -2.7337    2.7416   -0.0013 C   0  0  0  0  0  0  0  0  0  0  0  0
   -2.8889    1.4382   -0.0391 C   0  0  0  0  0  0  0  0  0  0  0  0
   -2.9210    0.1069   -0.0033 C   0  0  0  0  0  0  0  0  0  0  0  0
   -3.3985   -0.1987   -0.0318 N   0  3  0  0  0  0  0  0  0  0  0  0
   -4.0727   -2.9826   -0.0170 O   0  5  0  0  0  0  0  0  0  0  0  0
   -4.7980   -0.0488   -0.6519 C   0  0  0  0  0  0  0  0  0  0  0  0
   -6.7443   -1.1147    0.0000 C   0  0  0  0  0  0  0  0  0  0  0  0
   -7.8233   -2.1567    0.0000 C   0  0  0  0  0  0  0  0  0  0  0  0
   -5.9055   -2.3583    0.0000 C   0  0  0  0  0  0  0  0  0  0  0  0
   -7.2700   -1.4034   -0.0171 C   0  0  2  0  0  0  0  0  0  0  0  0
  -10.2599   -1.0387   -0.0225 C   0  0  0  0  0  0  0  0  0  0  0  0
  -10.4745   -0.0810   -0.0005 C   0  0  1  0  0  0  0  0  0  0  0  0
  -12.0287   -0.2808   -0.0000 C   0  0  0  0  0  0  0  0  0  0  0  0
  -12.7593    1.0264    0.0000 C   0  0  0  0  0  0  0  0  0  0  0  0
  -11.7676    2.1342    0.0001 C   0  0  0  0  0  0  0  0  0  0  0  0
  -10.5507    2.0524    0.0001 N   0  0  0  0  0  0  0  0  0  0  0  0
   -9.9718    2.4292   -0.0076 C   0  0  0  0  0  0  0  0  0  0  0  0
   -9.7499    4.0047   -0.0001 O   0  0  0  0  0  0  0  0  0  0  0  0
   -7.2688    0.8843   -0.9797 C   0  0  1  0  0  0  0  0  0  0  0  0
   -8.3562    0.3101   -0.4919 N   0  0  0  0  0  0  0  0  0  0  0  0
  -10.2043    0.2320   -0.0151 C   0  0  0  0  0  0  0  0  0  0  0  0
  -10.4286    0.5298    0.0007 O   0  0  0  0  0  0  0  0  0  0  0  0
   -5.4996    2.0726   -0.2822 C   0  0  1  0  0  0  0  0  0  0  0  0
   -5.3928    3.0678   -0.0007 N   0  0  0  0  0  0  0  0  0  0  0  0
   -6.4720    5.3938   -0.0001 C   0  0  0  0  0  0  0  0  0  0  0  0
   -7.8934    5.7871   -0.0001 O   0  0  0  0  0  0  0  0  0  0  0  0
   -5.9604    5.8981    0.0001 C   0  0  2  0  0  0  0  0  0  0  0  0
   -6.4298    7.3218   -0.0000 C   0  0  0  0  0  0  0  0  0  0  0  0
   -5.2164    8.2014    0.0000 C   0  0  0  0  0  0  0  0  0  0  0  0
   -4.0021    7.3225    0.0000 C   0  0  0  0  0  0  0  0  0  0  0  0
   -4.2334    6.3703    0.0000 N   0  0  0  0  0  0  0  0  0  0  0  0
   -3.1386    4.8595    0.0000 C   0  0  0  0  0  0  0  0  0  0  0  0
   -2.2126    4.6144    0.0000 O   0  0  0  0  0  0  0  0  0  0  0  0
   -4.7677    3.1079    0.0001 C   0  0  1  0  0  0  0  0  0  0  0  0
   -4.2234    1.7214   -0.0013 C   0  0  2  0  0  0  0  0  0  0  0  0
   -4.4389    1.1004    0.4147 C   0  0  0  0  0  0  0  0  0  0  0  0
   -6.1758    0.7355    0.5147 C   0  0  0  0  0  0  0  0  0  0  0  0
   -6.1342    0.4087    0.1789 N   0  0  0  0  0  0  0  0  0  0  0  0
   -4.6013   -1.4731    0.2061 C   0  0  0  0  0  0  0  0  0  0  0  0
   -7.0146   -3.5753    0.0139 C   0  0  0  0  0  0  0  0  0  0  0  0
   -7.8942   -4.2194   -0.0022 C   0  0  0  0  0  0  0  0  0  0  0  0
   -7.9033   -4.9434   -0.0001 C   0  0  0  0  0  0  0  0  0  0  0  0
   -6.6913   -5.8231    0.0000 C   0  0  0  0  0  0  0  0  0  0  0  0
   -5.8525   -7.0667    0.0000 C   0  0  0  0  0  0  0  0  0  0  0  0
   -7.7703   -6.8651    0.0000 C   0  0  0  0  0  0  0  0  0  0  0  0
   -5.1972   -5.3649   -0.0005 O   0  0  0  0  0  0  0  0  0  0  0  0
   -4.9971   -5.1340   -0.0098 C   0  0  0  0  0  0  0  0  0  0  0  0
   -2.9646   -3.9858    0.0008 C   0  0  0  0  0  0  0  0  0  0  0  0
   -2.8446   -1.8857   -0.0002 C   0  0  0  0  0  0  0  0  0  0  0  0
   -4.2861   -1.4667    0.0643 C   0  0  0  0  0  0  0  0  0  0  0  0
   -6.9381    2.4926    0.0000 C   0  0  0  0  0  0  0  0  0  0  0  0
   -7.8616    3.6746    0.0000 C   0  0  0  0  0  0  0  0  0  0  0  0
   -8.2626    1.7884    0.0000 C   0  0  0  0  0  0  0  0  0  0  0  0
   -5.9276    3.6794    0.0098 C   0  0  2  0  0  0  0  0  0  0  0  0
   -5.1758    4.7593   -0.0001 C   0  0  0  0  0  0  0  0  0  0  0  0
   -4.6591    1.2824   -0.0717 C   0  0  2  0  0  0  0  0  0  0  0  0
    0.7469    1.2969    0.0000 O   0  0  0  0  0  0  0  0  0  0  0  0
    3.6563    0.6667   -0.0000 H   0  0  0  0  0  0  0  0  0  0  0  0
    2.4642    2.0187   -0.0000 H   0  0  0  0  0  0  0  0  0  0  0  0
    3.4688    1.6520    0.0000 H   0  0  0  0  0  0  0  0  0  0  0  0
    2.5262   -2.0104   -0.0000 H   0  0  0  0  0  0  0  0  0  0  0  0
    3.6563   -0.6667   -0.0000 H   0  0  0  0  0  0  0  0  0  0  0  0
    3.4688   -1.6520    0.0000 H   0  0  0  0  0  0  0  0  0  0  0  0
    1.2030   -2.2041   -0.0000 H   0  0  0  0  0  0  0  0  0  0  0  0
   -1.2436   -2.1994    0.0000 H   0  0  0  0  0  0  0  0  0  0  0  0
   -0.9784    3.4872    0.0000 H   0  0  0  0  0  0  0  0  0  0  0  0
   -3.2508    3.3361   -0.0001 H   0  0  0  0  0  0  0  0  0  0  0  0
   -8.6867   -1.8282   -0.0341 H   0  0  0  0  0  0  0  0  0  0  0  0
   -8.2419   -2.6319    0.0004 H   0  0  0  0  0  0  0  0  0  0  0  0
   -8.5930   -2.9000    0.0000 H   0  0  0  0  0  0  0  0  0  0  0  0
   -5.7438   -3.9752   -0.0008 H   0  0  0  0  0  0  0  0  0  0  0  0
   -5.5284   -2.7507   -0.0041 H   0  0  0  0  0  0  0  0  0  0  0  0
   -5.3072   -3.2454    0.0000 H   0  0  0  0  0  0  0  0  0  0  0  0
   -7.5817   -0.8305   -0.1851 H   0  0  0  0  0  0  0  0  0  0  0  0
  -10.4576   -1.5521   -0.0001 H   0  0  0  0  0  0  0  0  0  0  0  0
  -10.3294   -1.3015    0.0001 H   0  0  0  0  0  0  0  0  0  0  0  0
  -12.4442   -1.2512    0.0000 H   0  0  0  0  0  0  0  0  0  0  0  0
  -13.0767   -0.3315    0.0000 H   0  0  0  0  0  0  0  0  0  0  0  0
  -13.8243    1.1391    0.0000 H   0  0  0  0  0  0  0  0  0  0  0  0
  -14.5532    1.1305    0.0000 H   0  0  0  0  0  0  0  0  0  0  0  0
  -12.9227    3.1623   -0.0001 H   0  0  0  0  0  0  0  0  0  0  0  0
  -11.6068    2.6005   -0.0000 H   0  0  0  0  0  0  0  0  0  0  0  0
   -8.3488    0.3884   -0.0177 H   0  0  0  0  0  0  0  0  0  0  0  0
   -9.8451    5.9346   -0.0003 H   0  0  0  0  0  0  0  0  0  0  0  0
   -7.4486    7.6510    0.0000 H   0  0  0  0  0  0  0  0  0  0  0  0
   -6.6001    8.3760    0.0000 H   0  0  0  0  0  0  0  0  0  0  0  0
   -5.2159    9.2732   -0.0000 H   0  0  0  0  0  0  0  0  0  0  0  0
   -4.2653    8.6892   -0.0000 H   0  0  0  0  0  0  0  0  0  0  0  0
   -2.9843    7.6499   -0.0000 H   0  0  0  0  0  0  0  0  0  0  0  0
   -3.2468    6.5719   -0.0000 H   0  0  0  0  0  0  0  0  0  0  0  0
   -4.1818    2.2845    0.0280 H   0  0  0  0  0  0  0  0  0  0  0  0
   -8.8948   -0.6823    0.2391 H   0  0  0  0  0  0  0  0  0  0  0  0
   -9.7212   -2.5329    0.0021 H   0  0  0  0  0  0  0  0  0  0  0  0
   -8.8522   -5.2975   -0.0000 H   0  0  0  0  0  0  0  0  0  0  0  0
   -6.2536   -8.0373    0.0000 H   0  0  0  0  0  0  0  0  0  0  0  0
   -4.7840   -6.9956    0.0000 H   0  0  0  0  0  0  0  0  0  0  0  0
   -5.2542   -7.9538    0.0000 H   0  0  0  0  0  0  0  0  0  0  0  0
   -8.7980   -6.6336    0.0000 H   0  0  0  0  0  0  0  0  0  0  0  0
   -7.5797   -7.8979    0.0000 H   0  0  0  0  0  0  0  0  0  0  0  0
   -8.5400   -7.6084    0.0000 H   0  0  0  0  0  0  0  0  0  0  0  0
   -2.9637   -3.9863    0.0008 H   0  0  0  0  0  0  0  0  0  0  0  0
   -2.5179   -1.4098   -0.0001 H   0  0  0  0  0  0  0  0  0  0  0  0
   -7.7504    4.3134   -0.0000 H   0  0  0  0  0  0  0  0  0  0  0  0
   -8.1794    4.0273   -0.0002 H   0  0  0  0  0  0  0  0  0  0  0  0
   -8.5204    4.5178    0.0000 H   0  0  0  0  0  0  0  0  0  0  0  0
  -11.1809    3.8957    0.0008 H   0  0  0  0  0  0  0  0  0  0  0  0
   -7.4128    0.0728    0.6272 H   0  0  0  0  0  0  0  0  0  0  0  0
   -9.2074    1.2861    0.0000 H   0  0  0  0  0  0  0  0  0  0  0  0
   -6.4787    3.9018   -0.0001 H   0  0  0  0  0  0  0  0  0  0  0  0
   -4.6596    4.6375    0.0000 H   0  0  0  0  0  0  0  0  0  0  0  0
   -4.8732    5.0474   -0.0000 H   0  0  0  0  0  0  0  0  0  0  0  0
  1  2  1  0  0  0  0
  1 66  1  0  0  0  0
  1 67  1  0  0  0  0
  1 68  1  0  0  0  0
  2  3  1  0  0  0  0
  2  4  1  0  0  0  0
  3 69  1  0  0  0  0
  3 70  1  0  0  0  0
  3 71  1  0  0  0  0
  4  5  2  0  0  0  0
  4 72  1  0  0  0  0
  5  6  1  0  0  0  0
  5 73  1  0  0  0  0
  6  7  2  0  0  0  0
  7  8  1  0  0  0  0
  7 65  1  0  0  0  0
  8  9  2  0  0  0  0
  8 74  1  0  0  0  0
  9 10  1  0  0  0  0
  9 75  1  0  0  0  0
 10 11  2  0  0  0  0
 11 12  1  0  0  0  0
 11  6  1  0  0  0  0
 12 13  1  0  0  0  0
 12 14  2  0  0  0  0
 14 15  1  0  0  0  0
 15 16  1  0  0  0  0
 15 17  1  0  0  0  0
 16 76  1  0  0  0  0
 16 77  1  0  0  0  0
 16 78  1  0  0  0  0
 17 79  1  0  0  0  0
 17 80  1  0  0  0  0
 17 81  1  0  0  0  0
 18 15  1  0  0  0  0
 18 19  1  0  0  0  0
 18 82  1  1  0  0  0
 19 20  1  0  0  0  0
 19 83  1  0  0  0  0
 19 84  1  0  0  0  0
 20 21  1  0  0  0  0
 20 29  1  6  0  0  0
 21 22  1  0  0  0  0
 21 85  1  0  0  0  0
 21 86  1  0  0  0  0
 22 23  1  0  0  0  0
 22 87  1  0  0  0  0
 22 88  1  0  0  0  0
 23 24  1  0  0  0  0
 23 89  1  0  0  0  0
 23 90  1  0  0  0  0
 24 25  1  0  0  0  0
 24 20  1  0  0  0  0
 25 26  2  0  0  0  0
 27 25  1  6  0  0  0
 27 28  1  0  0  0  0
 27 31  1  0  0  0  0
 27 18  1  0  0  0  0
 28 29  1  0  0  0  0
 28 91  1  0  0  0  0
 29 30  2  0  0  0  0
 31 32  1  0  0  0  0
 31 92  1  6  0  0  0
 32 33  1  0  0  0  0
 33 34  2  0  0  0  0
 35 33  1  6  0  0  0
 35 36  1  0  0  0  0
 36 37  1  0  0  0  0
 36 93  1  0  0  0  0
 36 94  1  0  0  0  0
 37 38  1  0  0  0  0
 37 95  1  0  0  0  0
 37 96  1  0  0  0  0
 38 39  1  0  0  0  0
 38 97  1  0  0  0  0
 38 98  1  0  0  0  0
 39 40  1  0  0  0  0
 39 35  1  0  0  0  0
 40 41  2  0  0  0  0
 42 40  1  1  0  0  0
 42 43  1  0  0  0  0
 42 32  1  0  0  0  0
 43 44  1  0  0  0  0
 43 64  1  0  0  0  0
 43 99  1  1  0  0  0
 44 45  2  0  0  0  0
 45 46  1  0  0  0  0
 45 59  1  0  0  0  0
 46 47  1  0  0  0  0
 46100  1  0  0  0  0
 47 48  2  0  0  0  0
 48 49  1  0  0  0  0
 49 50  2  0  0  0  0
 49101  1  0  0  0  0
 50 51  1  0  0  0  0
 50102  1  0  0  0  0
 51 52  1  0  0  0  0
 51 53  1  0  0  0  0
 51 54  1  0  0  0  0
 52103  1  0  0  0  0
 52104  1  0  0  0  0
 52105  1  0  0  0  0
 53106  1  0  0  0  0
 53107  1  0  0  0  0
 53108  1  0  0  0  0
 54 55  1  0  0  0  0
 55 56  2  0  0  0  0
 55 48  1  0  0  0  0
 56 57  1  0  0  0  0
 56109  1  0  0  0  0
 57 58  2  0  0  0  0
 57110  1  0  0  0  0
 58 44  1  0  0  0  0
 58 47  1  0  0  0  0
 59 60  1  0  0  0  0
 59 61  1  0  0  0  0
 60111  1  0  0  0  0
 60112  1  0  0  0  0
 60113  1  0  0  0  0
 61114  1  0  0  0  0
 61115  1  0  0  0  0
 61116  1  0  0  0  0
 62 59  1  0  0  0  0
 62 63  1  0  0  0  0
 62 42  1  0  0  0  0
 62117  1  1  0  0  0
 63 35  1  0  0  0  0
 63118  1  0  0  0  0
 63119  1  0  0  0  0
 64 14  1  1  0  0  0
 64 10  1  0  0  0  0
 64 31  1  0  0  0  0
 65  2  1  0  0  0  0
M  CHG  2  12   1  13  -1
M  END
>  <IDENTIFIER>
CNP0486105.3

>  <Energy>
861197

$$$$
