
 OpenBabel09062506183D

 68 71  0  0  0  0  0  0  0  0999 V2000
   -2.3649   -4.4822   -2.0707 C   0  0  0  0  0  0  0  0  0  0  0  0
   -1.0851   -4.0782   -1.6304 O   0  0  0  0  0  0  0  0  0  0  0  0
   -1.1756   -2.9967   -0.7223 C   0  0  0  0  0  0  0  0  0  0  0  0
   -1.3558   -1.6509   -1.4616 C   0  0  0  0  0  0  0  0  0  0  0  0
   -1.2494   -0.4742   -0.5797 N   0  0  0  0  0  0  0  0  0  0  0  0
   -2.4591    0.3298   -0.3204 C   0  0  0  0  0  0  0  0  0  0  0  0
   -2.8847    0.3722    1.1827 C   0  0  2  0  0  0  0  0  0  0  0  0
   -3.1632   -1.0248    1.7905 C   0  0  0  0  0  0  0  0  0  0  0  0
   -4.6265   -1.5151    1.6479 C   0  0  0  0  0  0  0  0  0  0  0  0
   -5.4293   -0.7318    0.6086 C   0  0  0  0  0  0  0  0  0  0  0  0
   -5.4021    0.7404    0.8570 N   0  0  1  0  0  0  0  0  0  0  0  0
   -5.8300    1.4388   -0.3809 C   0  0  0  0  0  0  0  0  0  0  0  0
   -5.7606    2.9591   -0.2590 C   0  0  0  0  0  0  0  0  0  0  0  0
   -4.3245    3.3653    0.0453 C   0  0  0  0  0  0  0  0  0  0  0  0
   -3.9504    2.7780    1.3998 C   0  0  0  0  0  0  0  0  0  0  0  0
   -4.1374    1.2429    1.4966 C   0  0  2  0  0  0  0  0  0  0  0  0
   -0.0189   -0.0112   -0.1452 C   0  0  0  0  0  0  0  0  0  0  0  0
    0.0396    1.0136    0.5220 O   0  0  0  0  0  0  0  0  0  0  0  0
    1.2969   -0.6676   -0.5562 C   0  0  0  0  0  0  0  0  0  0  0  0
    2.5465    0.1080   -0.1093 C   0  0  0  0  0  0  0  0  0  0  0  0
    3.8217   -0.5813   -0.6282 C   0  0  0  0  0  0  0  0  0  0  0  0
    5.1278    0.0930   -0.2795 C   0  0  0  0  0  0  0  0  0  0  0  0
    6.2741   -0.4880   -0.7257 N   0  0  0  0  0  0  0  0  0  0  0  0
    7.4943    0.0397   -0.4648 C   0  0  0  0  0  0  0  0  0  0  0  0
    8.6496   -0.5916   -0.9407 C   0  0  0  0  0  0  0  0  0  0  0  0
    9.9081   -0.0495   -0.6683 C   0  0  0  0  0  0  0  0  0  0  0  0
   10.0189    1.1264    0.0797 C   0  0  0  0  0  0  0  0  0  0  0  0
    8.8712    1.7666    0.5594 C   0  0  0  0  0  0  0  0  0  0  0  0
    7.5995    1.2269    0.2913 C   0  0  0  0  0  0  0  0  0  0  0  0
    6.4127    1.8229    0.7472 C   0  0  0  0  0  0  0  0  0  0  0  0
    6.4436    2.8497    1.4032 O   0  0  0  0  0  0  0  0  0  0  0  0
    5.2001    1.2458    0.4547 N   0  0  0  0  0  0  0  0  0  0  0  0
   -2.2800   -5.5088   -2.4811 H   0  0  0  0  0  0  0  0  0  0  0  0
   -2.7194   -3.8188   -2.8866 H   0  0  0  0  0  0  0  0  0  0  0  0
   -3.1138   -4.5457   -1.2490 H   0  0  0  0  0  0  0  0  0  0  0  0
   -0.2508   -3.0092   -0.1265 H   0  0  0  0  0  0  0  0  0  0  0  0
   -1.9761   -3.1718    0.0203 H   0  0  0  0  0  0  0  0  0  0  0  0
   -2.3549   -1.6942   -1.9415 H   0  0  0  0  0  0  0  0  0  0  0  0
   -0.6300   -1.5607   -2.2950 H   0  0  0  0  0  0  0  0  0  0  0  0
   -3.2857   -0.0355   -0.9384 H   0  0  0  0  0  0  0  0  0  0  0  0
   -2.2598    1.3576   -0.6780 H   0  0  0  0  0  0  0  0  0  0  0  0
   -2.0214    0.7830    1.7448 H   0  0  0  0  0  0  0  0  0  0  0  0
   -2.9933   -0.9736    2.8898 H   0  0  0  0  0  0  0  0  0  0  0  0
   -2.4112   -1.7475    1.4593 H   0  0  0  0  0  0  0  0  0  0  0  0
   -5.1507   -1.3388    2.6122 H   0  0  0  0  0  0  0  0  0  0  0  0
   -4.6523   -2.6100    1.4541 H   0  0  0  0  0  0  0  0  0  0  0  0
   -6.4840   -1.0827    0.6176 H   0  0  0  0  0  0  0  0  0  0  0  0
   -5.0419   -0.9962   -0.3942 H   0  0  0  0  0  0  0  0  0  0  0  0
   -6.8820    1.1593   -0.6118 H   0  0  0  0  0  0  0  0  0  0  0  0
   -5.2015    1.1381   -1.2455 H   0  0  0  0  0  0  0  0  0  0  0  0
   -6.4431    3.3118    0.5472 H   0  0  0  0  0  0  0  0  0  0  0  0
   -6.0868    3.4226   -1.2146 H   0  0  0  0  0  0  0  0  0  0  0  0
   -4.2526    4.4731    0.0974 H   0  0  0  0  0  0  0  0  0  0  0  0
   -3.6519    3.0219   -0.7633 H   0  0  0  0  0  0  0  0  0  0  0  0
   -4.6508    3.2460    2.1287 H   0  0  0  0  0  0  0  0  0  0  0  0
   -2.9250    3.0727    1.7112 H   0  0  0  0  0  0  0  0  0  0  0  0
   -4.2550    1.0995    2.5964 H   0  0  0  0  0  0  0  0  0  0  0  0
    1.3279   -0.7151   -1.6648 H   0  0  0  0  0  0  0  0  0  0  0  0
    1.3714   -1.6872   -0.1420 H   0  0  0  0  0  0  0  0  0  0  0  0
    2.5732    0.1561    1.0032 H   0  0  0  0  0  0  0  0  0  0  0  0
    2.4988    1.1392   -0.5233 H   0  0  0  0  0  0  0  0  0  0  0  0
    3.7633   -0.6396   -1.7382 H   0  0  0  0  0  0  0  0  0  0  0  0
    3.8546   -1.6175   -0.2250 H   0  0  0  0  0  0  0  0  0  0  0  0
    8.5719   -1.5032   -1.5208 H   0  0  0  0  0  0  0  0  0  0  0  0
   10.7989   -0.5409   -1.0366 H   0  0  0  0  0  0  0  0  0  0  0  0
   10.9963    1.5423    0.2886 H   0  0  0  0  0  0  0  0  0  0  0  0
    8.9807    2.6764    1.1366 H   0  0  0  0  0  0  0  0  0  0  0  0
    4.3378    1.7144    0.8087 H   0  0  0  0  0  0  0  0  0  0  0  0
  1  2  1  0  0  0  0
  1 33  1  0  0  0  0
  1 34  1  0  0  0  0
  1 35  1  0  0  0  0
  2  3  1  0  0  0  0
  3  4  1  0  0  0  0
  3 36  1  0  0  0  0
  3 37  1  0  0  0  0
  4  5  1  0  0  0  0
  4 38  1  0  0  0  0
  4 39  1  0  0  0  0
  5  6  1  0  0  0  0
  5 17  1  0  0  0  0
  6 40  1  0  0  0  0
  6 41  1  0  0  0  0
  7  6  1  0  0  0  0
  7  8  1  0  0  0  0
  7 42  1  1  0  0  0
  8  9  1  0  0  0  0
  8 43  1  0  0  0  0
  8 44  1  0  0  0  0
  9 10  1  0  0  0  0
  9 45  1  0  0  0  0
  9 46  1  0  0  0  0
 10 47  1  0  0  0  0
 10 48  1  0  0  0  0
 11 10  1  1  0  0  0
 11 12  1  0  0  0  0
 12 13  1  0  0  0  0
 12 49  1  0  0  0  0
 12 50  1  0  0  0  0
 13 14  1  0  0  0  0
 13 51  1  0  0  0  0
 13 52  1  0  0  0  0
 14 15  1  0  0  0  0
 14 53  1  0  0  0  0
 14 54  1  0  0  0  0
 15 55  1  0  0  0  0
 15 56  1  0  0  0  0
 16 15  1  0  0  0  0
 16  7  1  0  0  0  0
 16 11  1  0  0  0  0
 16 57  1  1  0  0  0
 17 18  2  0  0  0  0
 17 19  1  0  0  0  0
 19 20  1  0  0  0  0
 19 58  1  0  0  0  0
 19 59  1  0  0  0  0
 20 21  1  0  0  0  0
 20 60  1  0  0  0  0
 20 61  1  0  0  0  0
 21 22  1  0  0  0  0
 21 62  1  0  0  0  0
 21 63  1  0  0  0  0
 22 23  2  0  0  0  0
 23 24  1  0  0  0  0
 24 25  2  0  0  0  0
 25 26  1  0  0  0  0
 25 64  1  0  0  0  0
 26 27  2  0  0  0  0
 26 65  1  0  0  0  0
 27 28  1  0  0  0  0
 27 66  1  0  0  0  0
 28 29  2  0  0  0  0
 28 67  1  0  0  0  0
 29 30  1  0  0  0  0
 29 24  1  0  0  0  0
 30 31  2  0  0  0  0
 30 32  1  0  0  0  0
 32 22  1  0  0  0  0
 32 68  1  0  0  0  0
M  END
>  <IDENTIFIER>
CNP0300399.1

>  <Energy>
600

$$$$
