
 OpenBabel09112505193D

 38 42  0  0  0  0  0  0  0  0999 V2000
   -3.8441   -1.8172   -0.4176 O   0  0  0  0  0  0  0  0  0  0  0  0
   -4.0258   -0.4319   -0.5563 C   0  0  2  0  0  0  0  0  0  0  0  0
   -3.4364    0.0515   -1.8544 C   0  0  0  0  0  0  0  0  0  0  0  0
   -2.1100    0.1967   -1.9999 C   0  0  0  0  0  0  0  0  0  0  0  0
   -1.1227   -0.0615   -0.8656 C   0  0  2  0  0  0  0  0  0  0  0  0
   -0.4454   -1.2624   -1.1598 O   0  0  0  0  0  0  0  0  0  0  0  0
   -1.7877   -0.0858    0.5631 C   0  0  2  0  0  0  0  0  0  0  0  0
   -3.2989    0.2906    0.5662 C   0  0  0  0  0  0  0  0  0  0  0  0
   -1.0900    0.9300    1.3781 N   0  0  1  0  0  0  0  0  0  0  0  0
    0.0913    0.3595    2.0806 C   0  0  0  0  0  0  0  0  0  0  0  0
    1.2974    0.1765    1.1836 C   0  0  0  0  0  0  0  0  0  0  0  0
    2.5093   -0.3132    1.7150 C   0  0  0  0  0  0  0  0  0  0  0  0
    3.6071   -0.3893    0.8624 C   0  0  0  0  0  0  0  0  0  0  0  0
    3.5422   -0.0075   -0.4298 C   0  0  0  0  0  0  0  0  0  0  0  0
    2.3720    0.4822   -1.0016 C   0  0  0  0  0  0  0  0  0  0  0  0
    1.2247    0.5675   -0.1820 C   0  0  0  0  0  0  0  0  0  0  0  0
   -0.0900    1.0892   -0.7346 C   0  0  2  0  0  0  0  0  0  0  0  0
   -0.6898    1.9387    0.3731 C   0  0  0  0  0  0  0  0  0  0  0  0
    4.7372   -0.1775   -1.0006 O   0  0  0  0  0  0  0  0  0  0  0  0
    5.5974   -0.6853   -0.0298 C   0  0  0  0  0  0  0  0  0  0  0  0
    4.8455   -0.8072    1.1367 O   0  0  0  0  0  0  0  0  0  0  0  0
   -4.5065   -2.2517   -1.0163 H   0  0  0  0  0  0  0  0  0  0  0  0
   -5.1137   -0.1921   -0.5221 H   0  0  0  0  0  0  0  0  0  0  0  0
   -4.0958    0.2918   -2.6828 H   0  0  0  0  0  0  0  0  0  0  0  0
   -1.7232    0.4964   -2.9695 H   0  0  0  0  0  0  0  0  0  0  0  0
   -1.1061   -2.0012   -1.0966 H   0  0  0  0  0  0  0  0  0  0  0  0
   -1.7207   -1.1114    0.9934 H   0  0  0  0  0  0  0  0  0  0  0  0
   -3.4518    1.3786    0.3981 H   0  0  0  0  0  0  0  0  0  0  0  0
   -3.7378    0.0497    1.5586 H   0  0  0  0  0  0  0  0  0  0  0  0
   -0.1751   -0.6023    2.5714 H   0  0  0  0  0  0  0  0  0  0  0  0
    0.3833    1.0640    2.8885 H   0  0  0  0  0  0  0  0  0  0  0  0
    2.5937   -0.6068    2.7536 H   0  0  0  0  0  0  0  0  0  0  0  0
    2.3503    0.7801   -2.0419 H   0  0  0  0  0  0  0  0  0  0  0  0
    0.1070    1.6062   -1.6998 H   0  0  0  0  0  0  0  0  0  0  0  0
   -1.5811    2.4823   -0.0080 H   0  0  0  0  0  0  0  0  0  0  0  0
    0.0115    2.7032    0.7788 H   0  0  0  0  0  0  0  0  0  0  0  0
    6.4436    0.0156    0.1333 H   0  0  0  0  0  0  0  0  0  0  0  0
    5.9808   -1.6794   -0.3429 H   0  0  0  0  0  0  0  0  0  0  0  0
  1 22  1  0  0  0  0
  2  1  1  0  0  0  0
  2  3  1  0  0  0  0
  2 23  1  1  0  0  0
  3  4  2  0  0  0  0
  3 24  1  0  0  0  0
  4  5  1  0  0  0  0
  4 25  1  0  0  0  0
  5  6  1  6  0  0  0
  5  7  1  0  0  0  0
  6 26  1  0  0  0  0
  7  8  1  0  0  0  0
  7  9  1  0  0  0  0
  7 27  1  1  0  0  0
  8  2  1  0  0  0  0
  8 28  1  0  0  0  0
  8 29  1  0  0  0  0
  9 10  1  6  0  0  0
 10 11  1  0  0  0  0
 10 30  1  0  0  0  0
 10 31  1  0  0  0  0
 11 12  2  0  0  0  0
 12 13  1  0  0  0  0
 12 32  1  0  0  0  0
 13 14  2  0  0  0  0
 14 15  1  0  0  0  0
 14 19  1  0  0  0  0
 15 16  2  0  0  0  0
 15 33  1  0  0  0  0
 16 11  1  0  0  0  0
 17 16  1  0  0  0  0
 17 18  1  0  0  0  0
 17  5  1  0  0  0  0
 17 34  1  6  0  0  0
 18  9  1  0  0  0  0
 18 35  1  0  0  0  0
 18 36  1  0  0  0  0
 19 20  1  0  0  0  0
 20 21  1  0  0  0  0
 20 37  1  0  0  0  0
 20 38  1  0  0  0  0
 21 13  1  0  0  0  0
M  END
>  <IDENTIFIER>
CNP0201343.2

>  <Energy>
591.38

$$$$
