
 OpenBabel09112514523D

144150  0  0  0  0  0  0  0  0999 V2000
   -5.4438   -6.9376   -1.9611 C   0  0  0  0  0  0  0  0  0  0  0  0
   -5.6431   -5.9077   -3.0481 C   0  0  0  0  0  0  0  0  0  0  0  0
   -6.7162   -6.1265   -4.0833 C   0  0  0  0  0  0  0  0  0  0  0  0
   -4.8849   -4.7903   -3.1309 C   0  0  0  0  0  0  0  0  0  0  0  0
   -3.7658   -4.4336   -2.1796 C   0  0  0  0  0  0  0  0  0  0  0  0
   -4.0434   -3.0747   -1.4978 C   0  0  0  0  0  0  0  0  0  0  0  0
   -2.9378   -2.5937   -0.4699 C   0  0  2  0  0  0  0  0  0  0  0  0
   -2.9074   -3.6128    0.7017 C   0  0  0  0  0  0  0  0  0  0  0  0
   -3.1899   -1.2743    0.0205 O   0  0  0  0  0  0  0  0  0  0  0  0
   -4.5007   -1.0122    0.4879 C   0  0  2  0  0  0  0  0  0  0  0  0
   -5.2300   -0.3900   -0.5774 O   0  0  0  0  0  0  0  0  0  0  0  0
   -6.2661    0.5258   -0.2040 C   0  0  2  0  0  0  0  0  0  0  0  0
   -5.8119    1.9788   -0.4393 C   0  0  0  0  0  0  0  0  0  0  0  0
   -6.9150    2.8421   -0.2554 O   0  0  0  0  0  0  0  0  0  0  0  0
   -6.5017    4.2006   -0.1636 C   0  0  2  0  0  0  0  0  0  0  0  0
   -6.4024    4.5971    1.2015 O   0  0  0  0  0  0  0  0  0  0  0  0
   -7.6592    4.4933    1.8595 C   0  0  0  0  0  0  0  0  0  0  0  0
   -8.7063    5.4425    1.2395 C   0  0  1  0  0  0  0  0  0  0  0  0
   -8.2953    6.7767    1.3829 O   0  0  0  0  0  0  0  0  0  0  0  0
   -8.8695    5.0978   -0.2537 C   0  0  2  0  0  0  0  0  0  0  0  0
   -9.4320    3.8161   -0.3889 O   0  0  0  0  0  0  0  0  0  0  0  0
   -7.4889    5.1157   -0.9376 C   0  0  1  0  0  0  0  0  0  0  0  0
   -7.0079    6.4408   -1.0418 O   0  0  0  0  0  0  0  0  0  0  0  0
   -6.8594    0.2525    1.2151 C   0  0  1  0  0  0  0  0  0  0  0  0
   -7.5425   -0.9879    1.2398 O   0  0  0  0  0  0  0  0  0  0  0  0
   -5.7621    0.2406    2.3111 C   0  0  2  0  0  0  0  0  0  0  0  0
   -5.7032    1.4425    3.0391 O   0  0  0  0  0  0  0  0  0  0  0  0
   -4.3734   -0.1070    1.7315 C   0  0  1  0  0  0  0  0  0  0  0  0
   -3.5448   -0.6627    2.7198 O   0  0  0  0  0  0  0  0  0  0  0  0
   -1.5307   -2.5189   -1.1986 C   0  0  1  0  0  0  0  0  0  0  0  0
   -1.6111   -1.7330   -2.5379 C   0  0  0  0  0  0  0  0  0  0  0  0
   -0.1811   -1.3304   -2.9473 C   0  0  0  0  0  0  0  0  0  0  0  0
    0.7136   -1.7289   -1.7513 C   0  0  2  0  0  0  0  0  0  0  0  0
    1.2436   -3.1967   -2.0811 C   0  0  0  0  0  0  0  0  0  0  0  0
   -0.3070   -1.7675   -0.5606 C   0  0  2  0  0  0  0  0  0  0  0  0
    0.4134   -2.2442    0.7416 C   0  0  2  0  0  0  0  0  0  0  0  0
   -0.4203   -2.1812    1.8645 O   0  0  0  0  0  0  0  0  0  0  0  0
    1.6688   -1.3784    1.0510 C   0  0  0  0  0  0  0  0  0  0  0  0
    2.6661   -1.2209   -0.1409 C   0  0  2  0  0  0  0  0  0  0  0  0
    4.0680   -0.4961    0.2294 C   0  0  2  0  0  0  0  0  0  0  0  0
    4.9314   -1.6552    0.8353 C   0  0  0  0  0  0  0  0  0  0  0  0
    4.0278    0.6231    1.3528 C   0  0  0  0  0  0  0  0  0  0  0  0
    4.6011    1.9844    0.9246 C   0  0  0  0  0  0  0  0  0  0  0  0
    6.0052    1.9065    0.2549 C   0  0  1  0  0  0  0  0  0  0  0  0
    7.0256    1.6979    1.2345 O   0  0  0  0  0  0  0  0  0  0  0  0
    7.8606    2.8465    1.4417 C   0  0  2  0  0  0  0  0  0  0  0  0
    9.2183    2.4940    1.2361 O   0  0  0  0  0  0  0  0  0  0  0  0
    9.7959    1.6643    2.2499 C   0  0  2  0  0  0  0  0  0  0  0  0
   10.2918    0.3550    1.6243 C   0  0  0  0  0  0  0  0  0  0  0  0
   11.1979    0.6166    0.5840 O   0  0  0  0  0  0  0  0  0  0  0  0
    8.8845    1.3853    3.4887 C   0  0  1  0  0  0  0  0  0  0  0  0
    9.5930    0.7202    4.5082 O   0  0  0  0  0  0  0  0  0  0  0  0
    8.3552    2.7389    3.9768 C   0  0  2  0  0  0  0  0  0  0  0  0
    7.5659    2.6329    5.1337 O   0  0  0  0  0  0  0  0  0  0  0  0
    7.6038    3.4754    2.8424 C   0  0  1  0  0  0  0  0  0  0  0  0
    7.9342    4.8430    2.8687 O   0  0  0  0  0  0  0  0  0  0  0  0
    6.1044    0.8555   -0.9400 C   0  0  0  0  0  0  0  0  0  0  0  0
    6.4126    1.6603   -2.2409 C   0  0  0  0  0  0  0  0  0  0  0  0
    7.3065   -0.1140   -0.7994 C   0  0  0  0  0  0  0  0  0  0  0  0
    4.7048    0.1377   -1.0910 C   0  0  1  0  0  0  0  0  0  0  0  0
    4.4524   -0.7771   -2.2946 C   0  0  0  0  0  0  0  0  0  0  0  0
    2.9438   -0.6841   -2.6625 C   0  0  0  0  0  0  0  0  0  0  0  0
    1.9291   -0.7181   -1.4399 C   0  0  1  0  0  0  0  0  0  0  0  0
    1.3973    0.7453   -1.1889 C   0  0  0  0  0  0  0  0  0  0  0  0
   -6.1571   -7.7819   -2.0600 H   0  0  0  0  0  0  0  0  0  0  0  0
   -5.6026   -6.4721   -0.9653 H   0  0  0  0  0  0  0  0  0  0  0  0
   -4.4160   -7.3545   -2.0184 H   0  0  0  0  0  0  0  0  0  0  0  0
   -7.2656   -7.0757   -3.9125 H   0  0  0  0  0  0  0  0  0  0  0  0
   -6.2583   -6.1695   -5.0943 H   0  0  0  0  0  0  0  0  0  0  0  0
   -7.4471   -5.2912   -4.0496 H   0  0  0  0  0  0  0  0  0  0  0  0
   -5.0753   -4.0898   -3.9408 H   0  0  0  0  0  0  0  0  0  0  0  0
   -2.8345   -4.3890   -2.7769 H   0  0  0  0  0  0  0  0  0  0  0  0
   -3.6347   -5.2154   -1.4117 H   0  0  0  0  0  0  0  0  0  0  0  0
   -5.0237   -3.1702   -0.9857 H   0  0  0  0  0  0  0  0  0  0  0  0
   -4.1806   -2.3055   -2.2863 H   0  0  0  0  0  0  0  0  0  0  0  0
   -3.9197   -3.7800    1.1213 H   0  0  0  0  0  0  0  0  0  0  0  0
   -2.3042   -3.2912    1.5484 H   0  0  0  0  0  0  0  0  0  0  0  0
   -2.5213   -4.5991    0.3760 H   0  0  0  0  0  0  0  0  0  0  0  0
   -5.0258   -1.9295    0.8201 H   0  0  0  0  0  0  0  0  0  0  0  0
   -7.1061    0.3681   -0.9173 H   0  0  0  0  0  0  0  0  0  0  0  0
   -5.4620    2.0622   -1.4925 H   0  0  0  0  0  0  0  0  0  0  0  0
   -4.9719    2.2456    0.2293 H   0  0  0  0  0  0  0  0  0  0  0  0
   -5.5107    4.3601   -0.6526 H   0  0  0  0  0  0  0  0  0  0  0  0
   -7.5204    4.7653    2.9279 H   0  0  0  0  0  0  0  0  0  0  0  0
   -8.0206    3.4437    1.8579 H   0  0  0  0  0  0  0  0  0  0  0  0
   -9.6933    5.3150    1.7419 H   0  0  0  0  0  0  0  0  0  0  0  0
   -8.4522    7.0253    2.3317 H   0  0  0  0  0  0  0  0  0  0  0  0
   -9.5358    5.8320   -0.7638 H   0  0  0  0  0  0  0  0  0  0  0  0
  -10.3948    3.8986   -0.1606 H   0  0  0  0  0  0  0  0  0  0  0  0
   -7.5825    4.7343   -1.9786 H   0  0  0  0  0  0  0  0  0  0  0  0
   -6.4134    6.6438   -0.2747 H   0  0  0  0  0  0  0  0  0  0  0  0
   -7.6367    1.0052    1.4634 H   0  0  0  0  0  0  0  0  0  0  0  0
   -7.2465   -1.5718    0.4950 H   0  0  0  0  0  0  0  0  0  0  0  0
   -6.0749   -0.5425    3.0361 H   0  0  0  0  0  0  0  0  0  0  0  0
   -5.5761    2.1851    2.3972 H   0  0  0  0  0  0  0  0  0  0  0  0
   -3.8729    0.8107    1.3690 H   0  0  0  0  0  0  0  0  0  0  0  0
   -3.9104   -1.5562    2.9483 H   0  0  0  0  0  0  0  0  0  0  0  0
   -1.2481   -3.5618   -1.4038 H   0  0  0  0  0  0  0  0  0  0  0  0
   -2.1409   -0.7800   -2.3044 H   0  0  0  0  0  0  0  0  0  0  0  0
   -2.1720   -2.2127   -3.3655 H   0  0  0  0  0  0  0  0  0  0  0  0
   -0.2185   -0.2459   -3.1538 H   0  0  0  0  0  0  0  0  0  0  0  0
    0.1623   -1.8021   -3.8945 H   0  0  0  0  0  0  0  0  0  0  0  0
    0.4637   -3.8903   -2.4382 H   0  0  0  0  0  0  0  0  0  0  0  0
    1.7395   -3.7142   -1.2430 H   0  0  0  0  0  0  0  0  0  0  0  0
    1.9555   -3.2306   -2.9200 H   0  0  0  0  0  0  0  0  0  0  0  0
   -0.6815   -0.7454   -0.3571 H   0  0  0  0  0  0  0  0  0  0  0  0
    0.7291   -3.2972    0.6162 H   0  0  0  0  0  0  0  0  0  0  0  0
   -0.7898   -1.2611    1.9219 H   0  0  0  0  0  0  0  0  0  0  0  0
    2.1794   -1.8190    1.9316 H   0  0  0  0  0  0  0  0  0  0  0  0
    1.3039   -0.3799    1.3531 H   0  0  0  0  0  0  0  0  0  0  0  0
    2.9677   -2.2429   -0.4237 H   0  0  0  0  0  0  0  0  0  0  0  0
    4.3907   -2.1490    1.6692 H   0  0  0  0  0  0  0  0  0  0  0  0
    5.8590   -1.3161    1.3132 H   0  0  0  0  0  0  0  0  0  0  0  0
    5.1693   -2.4419    0.0888 H   0  0  0  0  0  0  0  0  0  0  0  0
    4.6262    0.3142    2.2400 H   0  0  0  0  0  0  0  0  0  0  0  0
    3.0156    0.7987    1.7502 H   0  0  0  0  0  0  0  0  0  0  0  0
    4.6190    2.6824    1.7875 H   0  0  0  0  0  0  0  0  0  0  0  0
    3.8873    2.4356    0.2064 H   0  0  0  0  0  0  0  0  0  0  0  0
    6.0480    2.9246   -0.1920 H   0  0  0  0  0  0  0  0  0  0  0  0
    7.6586    3.6665    0.7207 H   0  0  0  0  0  0  0  0  0  0  0  0
   10.6879    2.2160    2.6209 H   0  0  0  0  0  0  0  0  0  0  0  0
    9.4397   -0.2584    1.2552 H   0  0  0  0  0  0  0  0  0  0  0  0
   10.8167   -0.2545    2.3906 H   0  0  0  0  0  0  0  0  0  0  0  0
   10.6582    0.8119   -0.2247 H   0  0  0  0  0  0  0  0  0  0  0  0
    8.0269    0.7386    3.2046 H   0  0  0  0  0  0  0  0  0  0  0  0
   10.3620    1.2926    4.7664 H   0  0  0  0  0  0  0  0  0  0  0  0
    9.2617    3.3293    4.2397 H   0  0  0  0  0  0  0  0  0  0  0  0
    6.8141    2.0200    4.9206 H   0  0  0  0  0  0  0  0  0  0  0  0
    6.5057    3.4101    2.9937 H   0  0  0  0  0  0  0  0  0  0  0  0
    8.8694    4.9309    2.5455 H   0  0  0  0  0  0  0  0  0  0  0  0
    7.3530    2.2428   -2.1218 H   0  0  0  0  0  0  0  0  0  0  0  0
    5.5994    2.3831   -2.4722 H   0  0  0  0  0  0  0  0  0  0  0  0
    6.5592    1.0066   -3.1228 H   0  0  0  0  0  0  0  0  0  0  0  0
    8.2590    0.4575   -0.8198 H   0  0  0  0  0  0  0  0  0  0  0  0
    7.3263   -0.8374   -1.6425 H   0  0  0  0  0  0  0  0  0  0  0  0
    7.3469   -0.6803    0.1309 H   0  0  0  0  0  0  0  0  0  0  0  0
    4.1070    1.0131   -1.3721 H   0  0  0  0  0  0  0  0  0  0  0  0
    4.7650   -1.8135   -2.0551 H   0  0  0  0  0  0  0  0  0  0  0  0
    5.0025   -0.4770   -3.2056 H   0  0  0  0  0  0  0  0  0  0  0  0
    2.7585   -1.4300   -3.4496 H   0  0  0  0  0  0  0  0  0  0  0  0
    2.7757    0.2667   -3.2158 H   0  0  0  0  0  0  0  0  0  0  0  0
    2.1748    1.4627   -0.9090 H   0  0  0  0  0  0  0  0  0  0  0  0
    0.6708    0.8340   -0.3665 H   0  0  0  0  0  0  0  0  0  0  0  0
    0.9232    1.1787   -2.0885 H   0  0  0  0  0  0  0  0  0  0  0  0
  1  2  1  0  0  0  0
  1 65  1  0  0  0  0
  1 66  1  0  0  0  0
  1 67  1  0  0  0  0
  2  3  1  0  0  0  0
  2  4  2  0  0  0  0
  3 68  1  0  0  0  0
  3 69  1  0  0  0  0
  3 70  1  0  0  0  0
  4  5  1  0  0  0  0
  4 71  1  0  0  0  0
  5  6  1  0  0  0  0
  5 72  1  0  0  0  0
  5 73  1  0  0  0  0
  6  7  1  0  0  0  0
  6 74  1  0  0  0  0
  6 75  1  0  0  0  0
  7  8  1  0  0  0  0
  7  9  1  1  0  0  0
  7 30  1  0  0  0  0
  8 76  1  0  0  0  0
  8 77  1  0  0  0  0
  8 78  1  0  0  0  0
 10  9  1  0  0  0  0
 10 11  1  0  0  0  0
 10 79  1  1  0  0  0
 11 12  1  0  0  0  0
 12 13  1  0  0  0  0
 12 24  1  0  0  0  0
 12 80  1  6  0  0  0
 13 14  1  0  0  0  0
 13 81  1  0  0  0  0
 13 82  1  0  0  0  0
 15 14  1  0  0  0  0
 15 16  1  0  0  0  0
 15 83  1  6  0  0  0
 16 17  1  0  0  0  0
 17 18  1  0  0  0  0
 17 84  1  0  0  0  0
 17 85  1  0  0  0  0
 18 19  1  0  0  0  0
 18 20  1  0  0  0  0
 18 86  1  1  0  0  0
 19 87  1  0  0  0  0
 20 21  1  0  0  0  0
 20 22  1  0  0  0  0
 20 88  1  6  0  0  0
 21 89  1  0  0  0  0
 22 23  1  0  0  0  0
 22 15  1  0  0  0  0
 22 90  1  6  0  0  0
 23 91  1  0  0  0  0
 24 25  1  0  0  0  0
 24 26  1  0  0  0  0
 24 92  1  1  0  0  0
 25 93  1  0  0  0  0
 26 27  1  0  0  0  0
 26 28  1  0  0  0  0
 26 94  1  1  0  0  0
 27 95  1  0  0  0  0
 28 29  1  0  0  0  0
 28 10  1  0  0  0  0
 28 96  1  6  0  0  0
 29 97  1  0  0  0  0
 30 31  1  0  0  0  0
 30 98  1  6  0  0  0
 31 32  1  0  0  0  0
 31 99  1  0  0  0  0
 31100  1  0  0  0  0
 32 33  1  0  0  0  0
 32101  1  0  0  0  0
 32102  1  0  0  0  0
 33 34  1  6  0  0  0
 33 35  1  0  0  0  0
 34103  1  0  0  0  0
 34104  1  0  0  0  0
 34105  1  0  0  0  0
 35 36  1  0  0  0  0
 35 30  1  0  0  0  0
 35106  1  1  0  0  0
 36 37  1  0  0  0  0
 36 38  1  0  0  0  0
 36107  1  6  0  0  0
 37108  1  0  0  0  0
 38109  1  0  0  0  0
 38110  1  0  0  0  0
 39 38  1  0  0  0  0
 39 40  1  0  0  0  0
 39111  1  6  0  0  0
 40 41  1  1  0  0  0
 40 42  1  0  0  0  0
 41112  1  0  0  0  0
 41113  1  0  0  0  0
 41114  1  0  0  0  0
 42 43  1  0  0  0  0
 42115  1  0  0  0  0
 42116  1  0  0  0  0
 43 44  1  0  0  0  0
 43117  1  0  0  0  0
 43118  1  0  0  0  0
 44 45  1  0  0  0  0
 44 57  1  0  0  0  0
 44119  1  6  0  0  0
 46 45  1  0  0  0  0
 46 47  1  0  0  0  0
 46120  1  6  0  0  0
 47 48  1  0  0  0  0
 48 49  1  0  0  0  0
 48 51  1  0  0  0  0
 48121  1  1  0  0  0
 49 50  1  0  0  0  0
 49122  1  0  0  0  0
 49123  1  0  0  0  0
 50124  1  0  0  0  0
 51 52  1  0  0  0  0
 51 53  1  0  0  0  0
 51125  1  6  0  0  0
 52126  1  0  0  0  0
 53 54  1  0  0  0  0
 53 55  1  0  0  0  0
 53127  1  1  0  0  0
 54128  1  0  0  0  0
 55 56  1  0  0  0  0
 55 46  1  0  0  0  0
 55129  1  1  0  0  0
 56130  1  0  0  0  0
 57 58  1  0  0  0  0
 57 59  1  0  0  0  0
 57 60  1  0  0  0  0
 58131  1  0  0  0  0
 58132  1  0  0  0  0
 58133  1  0  0  0  0
 59134  1  0  0  0  0
 59135  1  0  0  0  0
 59136  1  0  0  0  0
 60 61  1  0  0  0  0
 60 40  1  0  0  0  0
 60137  1  6  0  0  0
 61 62  1  0  0  0  0
 61138  1  0  0  0  0
 61139  1  0  0  0  0
 62 63  1  0  0  0  0
 62140  1  0  0  0  0
 62141  1  0  0  0  0
 63 64  1  1  0  0  0
 63 39  1  0  0  0  0
 63 33  1  0  0  0  0
 64142  1  0  0  0  0
 64143  1  0  0  0  0
 64144  1  0  0  0  0
M  END
>  <IDENTIFIER>
CNP0253940.10

>  <Energy>
2179.6

$$$$
