
 OpenBabel09062509203D

130138  0  0  0  0  0  0  0  0999 V2000
   13.1590    0.7105   -0.2169 C   0  0  0  0  0  0  0  0  0  0  0  0
   11.9650    0.1888    0.5906 C   0  0  2  0  0  0  0  0  0  0  0  0
   10.9734   -0.5932   -0.3077 C   0  0  0  0  0  0  0  0  0  0  0  0
    9.7624    0.2821   -0.6161 C   0  0  0  0  0  0  0  0  0  0  0  0
    9.0671    0.6437    0.7481 C   0  0  1  0  0  0  0  0  0  0  0  0
    9.9949    1.0086    1.7878 O   0  0  0  0  0  0  0  0  0  0  0  0
   11.2612    1.3825    1.2895 C   0  0  0  0  0  0  0  0  0  0  0  0
    8.1791    1.7376    0.5539 O   0  0  0  0  0  0  0  0  0  0  0  0
    7.0898    1.5246    1.4279 C   0  0  1  0  0  0  0  0  0  0  0  0
    5.7807    2.1715    0.8816 C   0  0  0  0  0  0  0  0  0  0  0  0
    4.8217    0.9822    0.7562 C   0  0  1  0  0  0  0  0  0  0  0  0
    3.5474    1.1127   -0.1079 C   0  0  2  0  0  0  0  0  0  0  0  0
    2.5807    2.1458    0.5214 C   0  0  0  0  0  0  0  0  0  0  0  0
    1.1484    2.0273    0.0471 C   0  0  0  0  0  0  0  0  0  0  0  0
    0.6867    1.0181   -0.7296 C   0  0  0  0  0  0  0  0  0  0  0  0
   -0.7498    1.0428   -1.2141 C   0  0  0  0  0  0  0  0  0  0  0  0
   -1.4455   -0.3143   -1.0057 C   0  0  1  0  0  0  0  0  0  0  0  0
   -2.7404   -0.2223   -1.5711 O   0  0  0  0  0  0  0  0  0  0  0  0
   -3.6360   -1.2226   -1.1055 C   0  0  2  0  0  0  0  0  0  0  0  0
   -3.6539   -2.2851   -2.0475 O   0  0  0  0  0  0  0  0  0  0  0  0
   -4.5424   -3.3167   -1.6438 C   0  0  2  0  0  0  0  0  0  0  0  0
   -4.3657   -4.4989   -2.6156 C   0  0  0  0  0  0  0  0  0  0  0  0
   -5.1770   -5.5881   -2.2646 O   0  0  0  0  0  0  0  0  0  0  0  0
   -5.9988   -2.7817   -1.6507 C   0  0  1  0  0  0  0  0  0  0  0  0
   -6.9142   -3.7919   -1.3095 O   0  0  0  0  0  0  0  0  0  0  0  0
   -6.1155   -1.5819   -0.6857 C   0  0  2  0  0  0  0  0  0  0  0  0
   -7.3653   -0.9206   -0.8389 O   0  0  0  0  0  0  0  0  0  0  0  0
   -8.3669   -1.3560    0.0623 C   0  0  2  0  0  0  0  0  0  0  0  0
   -9.0436   -2.4702   -0.4810 O   0  0  0  0  0  0  0  0  0  0  0  0
  -10.0119   -3.0243    0.4159 C   0  0  0  0  0  0  0  0  0  0  0  0
  -10.6053   -2.0336    1.4641 C   0  0  1  0  0  0  0  0  0  0  0  0
   -9.7593   -1.9032    2.5780 O   0  0  0  0  0  0  0  0  0  0  0  0
  -10.7584   -0.6707    0.7752 C   0  0  2  0  0  0  0  0  0  0  0  0
  -11.6813   -0.7833   -0.2895 O   0  0  0  0  0  0  0  0  0  0  0  0
   -9.3616   -0.1767    0.2781 C   0  0  1  0  0  0  0  0  0  0  0  0
   -8.8038    0.7631    1.1612 O   0  0  0  0  0  0  0  0  0  0  0  0
   -5.0225   -0.5594   -1.0242 C   0  0  1  0  0  0  0  0  0  0  0  0
   -5.0147    0.4283   -0.0047 O   0  0  0  0  0  0  0  0  0  0  0  0
   -4.9342    1.7609   -0.4805 C   0  0  2  0  0  0  0  0  0  0  0  0
   -3.6562    2.3205   -0.1616 O   0  0  0  0  0  0  0  0  0  0  0  0
   -3.5208    2.9669    1.1111 C   0  0  1  0  0  0  0  0  0  0  0  0
   -3.4099    4.4901    0.9461 C   0  0  0  0  0  0  0  0  0  0  0  0
   -4.5705    2.5260    2.1768 C   0  0  2  0  0  0  0  0  0  0  0  0
   -4.3071    1.2114    2.6349 O   0  0  0  0  0  0  0  0  0  0  0  0
   -6.0258    2.5844    1.6329 C   0  0  1  0  0  0  0  0  0  0  0  0
   -6.7722    3.6472    2.1728 O   0  0  0  0  0  0  0  0  0  0  0  0
   -6.1053    2.5708    0.0904 C   0  0  1  0  0  0  0  0  0  0  0  0
   -6.0700    3.8722   -0.4285 O   0  0  0  0  0  0  0  0  0  0  0  0
   -0.6233   -1.4025   -1.7213 C   0  0  0  0  0  0  0  0  0  0  0  0
    0.7804   -1.4758   -1.1037 C   0  0  0  0  0  0  0  0  0  0  0  0
    1.5799   -0.1376   -1.1811 C   0  0  1  0  0  0  0  0  0  0  0  0
    1.9839    0.1473   -2.6557 C   0  0  0  0  0  0  0  0  0  0  0  0
    2.8168   -0.2561   -0.2021 C   0  0  1  0  0  0  0  0  0  0  0  0
    3.7592   -1.4563   -0.5287 C   0  0  0  0  0  0  0  0  0  0  0  0
    4.9838   -1.4831    0.4065 C   0  0  0  0  0  0  0  0  0  0  0  0
    5.7567   -0.1501    0.3117 C   0  0  1  0  0  0  0  0  0  0  0  0
    6.3134    0.0252   -1.1452 C   0  0  0  0  0  0  0  0  0  0  0  0
    6.8346    0.0253    1.4192 C   0  0  1  0  0  0  0  0  0  0  0  0
    8.2105   -0.5785    1.2329 C   0  0  2  0  0  0  0  0  0  0  0  0
    8.7173   -1.2079    2.5482 C   0  0  0  0  0  0  0  0  0  0  0  0
   13.6972   -0.1379   -0.6906 H   0  0  0  0  0  0  0  0  0  0  0  0
   13.8704    1.2430    0.4503 H   0  0  0  0  0  0  0  0  0  0  0  0
   12.8198    1.4063   -1.0144 H   0  0  0  0  0  0  0  0  0  0  0  0
   12.3566   -0.5266    1.3477 H   0  0  0  0  0  0  0  0  0  0  0  0
   10.5992   -1.4805    0.2438 H   0  0  0  0  0  0  0  0  0  0  0  0
   11.4687   -0.9884   -1.2211 H   0  0  0  0  0  0  0  0  0  0  0  0
    9.0710   -0.2250   -1.3141 H   0  0  0  0  0  0  0  0  0  0  0  0
   10.1203    1.1954   -1.1390 H   0  0  0  0  0  0  0  0  0  0  0  0
   11.8986    1.7654    2.1144 H   0  0  0  0  0  0  0  0  0  0  0  0
   11.1246    2.2439    0.5961 H   0  0  0  0  0  0  0  0  0  0  0  0
    7.3564    1.8785    2.4513 H   0  0  0  0  0  0  0  0  0  0  0  0
    5.9751    2.5816   -0.1324 H   0  0  0  0  0  0  0  0  0  0  0  0
    5.3839    2.9986    1.5071 H   0  0  0  0  0  0  0  0  0  0  0  0
    4.4684    0.7424    1.7912 H   0  0  0  0  0  0  0  0  0  0  0  0
    3.8444    1.4332   -1.1231 H   0  0  0  0  0  0  0  0  0  0  0  0
    2.9771    3.1627    0.3084 H   0  0  0  0  0  0  0  0  0  0  0  0
    2.5300    2.0205    1.6236 H   0  0  0  0  0  0  0  0  0  0  0  0
    0.4685    2.8146    0.3617 H   0  0  0  0  0  0  0  0  0  0  0  0
   -0.7457    1.2627   -2.3032 H   0  0  0  0  0  0  0  0  0  0  0  0
   -1.3198    1.8527   -0.7211 H   0  0  0  0  0  0  0  0  0  0  0  0
   -1.4869   -0.5065    0.0907 H   0  0  0  0  0  0  0  0  0  0  0  0
   -3.3624   -1.6049   -0.0899 H   0  0  0  0  0  0  0  0  0  0  0  0
   -4.2654   -3.6861   -0.6282 H   0  0  0  0  0  0  0  0  0  0  0  0
   -3.2999   -4.8204   -2.6361 H   0  0  0  0  0  0  0  0  0  0  0  0
   -4.6250   -4.1796   -3.6483 H   0  0  0  0  0  0  0  0  0  0  0  0
   -4.7599   -6.0097   -1.4680 H   0  0  0  0  0  0  0  0  0  0  0  0
   -6.2332   -2.4333   -2.6815 H   0  0  0  0  0  0  0  0  0  0  0  0
   -6.6941   -4.0971   -0.3906 H   0  0  0  0  0  0  0  0  0  0  0  0
   -5.9169   -1.9292    0.3570 H   0  0  0  0  0  0  0  0  0  0  0  0
   -7.9284   -1.6447    1.0456 H   0  0  0  0  0  0  0  0  0  0  0  0
   -9.6275   -3.9439    0.9056 H   0  0  0  0  0  0  0  0  0  0  0  0
  -10.8594   -3.3402   -0.2288 H   0  0  0  0  0  0  0  0  0  0  0  0
  -11.5944   -2.4004    1.8235 H   0  0  0  0  0  0  0  0  0  0  0  0
   -9.7723   -2.7755    3.0514 H   0  0  0  0  0  0  0  0  0  0  0  0
  -11.1843    0.0894    1.4659 H   0  0  0  0  0  0  0  0  0  0  0  0
  -11.2186   -1.1387   -1.0908 H   0  0  0  0  0  0  0  0  0  0  0  0
   -9.5404    0.3619   -0.6790 H   0  0  0  0  0  0  0  0  0  0  0  0
   -8.7342    0.3413    2.0558 H   0  0  0  0  0  0  0  0  0  0  0  0
   -5.2707   -0.1732   -2.0407 H   0  0  0  0  0  0  0  0  0  0  0  0
   -5.0405    1.8421   -1.5852 H   0  0  0  0  0  0  0  0  0  0  0  0
   -2.5286    2.6744    1.5226 H   0  0  0  0  0  0  0  0  0  0  0  0
   -4.3241    4.9722    0.5724 H   0  0  0  0  0  0  0  0  0  0  0  0
   -2.5839    4.7233    0.2394 H   0  0  0  0  0  0  0  0  0  0  0  0
   -3.1657    4.9559    1.9238 H   0  0  0  0  0  0  0  0  0  0  0  0
   -4.4686    3.1605    3.0847 H   0  0  0  0  0  0  0  0  0  0  0  0
   -3.6841    0.7414    2.0269 H   0  0  0  0  0  0  0  0  0  0  0  0
   -6.5093    1.6572    2.0103 H   0  0  0  0  0  0  0  0  0  0  0  0
   -6.2506    4.4793    2.0348 H   0  0  0  0  0  0  0  0  0  0  0  0
   -7.0877    2.1245   -0.1985 H   0  0  0  0  0  0  0  0  0  0  0  0
   -6.3663    3.8207   -1.3746 H   0  0  0  0  0  0  0  0  0  0  0  0
   -0.5680   -1.1913   -2.8122 H   0  0  0  0  0  0  0  0  0  0  0  0
   -1.1083   -2.3921   -1.5990 H   0  0  0  0  0  0  0  0  0  0  0  0
    1.3413   -2.2932   -1.6014 H   0  0  0  0  0  0  0  0  0  0  0  0
    0.6365   -1.7600   -0.0355 H   0  0  0  0  0  0  0  0  0  0  0  0
    2.6384   -0.6446   -3.0664 H   0  0  0  0  0  0  0  0  0  0  0  0
    2.5014    1.1223   -2.7602 H   0  0  0  0  0  0  0  0  0  0  0  0
    1.0995    0.2171   -3.3186 H   0  0  0  0  0  0  0  0  0  0  0  0
    2.4342   -0.4691    0.8262 H   0  0  0  0  0  0  0  0  0  0  0  0
    4.0917   -1.4289   -1.5796 H   0  0  0  0  0  0  0  0  0  0  0  0
    3.2195   -2.4163   -0.3964 H   0  0  0  0  0  0  0  0  0  0  0  0
    5.6454   -2.3394    0.1542 H   0  0  0  0  0  0  0  0  0  0  0  0
    4.6211   -1.6352    1.4482 H   0  0  0  0  0  0  0  0  0  0  0  0
    6.9341   -0.8520   -1.4159 H   0  0  0  0  0  0  0  0  0  0  0  0
    6.9154    0.9362   -1.2974 H   0  0  0  0  0  0  0  0  0  0  0  0
    5.5179    0.0956   -1.9075 H   0  0  0  0  0  0  0  0  0  0  0  0
    6.3614   -0.2822    2.3839 H   0  0  0  0  0  0  0  0  0  0  0  0
    8.1411   -1.4062    0.4952 H   0  0  0  0  0  0  0  0  0  0  0  0
    8.7391   -0.4601    3.3704 H   0  0  0  0  0  0  0  0  0  0  0  0
    9.7355   -1.6270    2.4152 H   0  0  0  0  0  0  0  0  0  0  0  0
    8.0414   -2.0349    2.8540 H   0  0  0  0  0  0  0  0  0  0  0  0
  1 61  1  0  0  0  0
  1 62  1  0  0  0  0
  1 63  1  0  0  0  0
  2  1  1  0  0  0  0
  2  3  1  0  0  0  0
  2 64  1  1  0  0  0
  3  4  1  0  0  0  0
  3 65  1  0  0  0  0
  3 66  1  0  0  0  0
  4 67  1  0  0  0  0
  4 68  1  0  0  0  0
  5  4  1  0  0  0  0
  5  6  1  1  0  0  0
  5  8  1  0  0  0  0
  6  7  1  0  0  0  0
  7  2  1  0  0  0  0
  7 69  1  0  0  0  0
  7 70  1  0  0  0  0
  8  9  1  0  0  0  0
  9 10  1  0  0  0  0
  9 71  1  1  0  0  0
 10 72  1  0  0  0  0
 10 73  1  0  0  0  0
 11 10  1  0  0  0  0
 11 12  1  0  0  0  0
 11 74  1  1  0  0  0
 12 13  1  0  0  0  0
 12 75  1  6  0  0  0
 13 14  1  0  0  0  0
 13 76  1  0  0  0  0
 13 77  1  0  0  0  0
 14 15  2  0  0  0  0
 14 78  1  0  0  0  0
 15 16  1  0  0  0  0
 16 17  1  0  0  0  0
 16 79  1  0  0  0  0
 16 80  1  0  0  0  0
 17 18  1  0  0  0  0
 17 49  1  0  0  0  0
 17 81  1  1  0  0  0
 19 18  1  0  0  0  0
 19 20  1  0  0  0  0
 19 82  1  1  0  0  0
 20 21  1  0  0  0  0
 21 22  1  0  0  0  0
 21 24  1  0  0  0  0
 21 83  1  1  0  0  0
 22 23  1  0  0  0  0
 22 84  1  0  0  0  0
 22 85  1  0  0  0  0
 23 86  1  0  0  0  0
 24 25  1  0  0  0  0
 24 26  1  0  0  0  0
 24 87  1  6  0  0  0
 25 88  1  0  0  0  0
 26 27  1  0  0  0  0
 26 37  1  0  0  0  0
 26 89  1  1  0  0  0
 28 27  1  0  0  0  0
 28 29  1  0  0  0  0
 28 90  1  1  0  0  0
 29 30  1  0  0  0  0
 30 31  1  0  0  0  0
 30 91  1  0  0  0  0
 30 92  1  0  0  0  0
 31 32  1  0  0  0  0
 31 33  1  0  0  0  0
 31 93  1  1  0  0  0
 32 94  1  0  0  0  0
 33 34  1  0  0  0  0
 33 35  1  0  0  0  0
 33 95  1  1  0  0  0
 34 96  1  0  0  0  0
 35 36  1  0  0  0  0
 35 28  1  0  0  0  0
 35 97  1  6  0  0  0
 36 98  1  0  0  0  0
 37 38  1  0  0  0  0
 37 19  1  0  0  0  0
 37 99  1  6  0  0  0
 39 38  1  0  0  0  0
 39 40  1  0  0  0  0
 39100  1  6  0  0  0
 40 41  1  0  0  0  0
 41 42  1  0  0  0  0
 41 43  1  0  0  0  0
 41101  1  1  0  0  0
 42102  1  0  0  0  0
 42103  1  0  0  0  0
 42104  1  0  0  0  0
 43 44  1  0  0  0  0
 43 45  1  0  0  0  0
 43105  1  1  0  0  0
 44106  1  0  0  0  0
 45 46  1  0  0  0  0
 45 47  1  0  0  0  0
 45107  1  1  0  0  0
 46108  1  0  0  0  0
 47 48  1  0  0  0  0
 47 39  1  0  0  0  0
 47109  1  6  0  0  0
 48110  1  0  0  0  0
 49 50  1  0  0  0  0
 49111  1  0  0  0  0
 49112  1  0  0  0  0
 50 51  1  0  0  0  0
 50113  1  0  0  0  0
 50114  1  0  0  0  0
 51 52  1  6  0  0  0
 51 53  1  0  0  0  0
 51 15  1  0  0  0  0
 52115  1  0  0  0  0
 52116  1  0  0  0  0
 52117  1  0  0  0  0
 53 54  1  0  0  0  0
 53 12  1  0  0  0  0
 53118  1  1  0  0  0
 54 55  1  0  0  0  0
 54119  1  0  0  0  0
 54120  1  0  0  0  0
 55 56  1  0  0  0  0
 55121  1  0  0  0  0
 55122  1  0  0  0  0
 56 57  1  6  0  0  0
 56 58  1  0  0  0  0
 56 11  1  0  0  0  0
 57123  1  0  0  0  0
 57124  1  0  0  0  0
 57125  1  0  0  0  0
 58 59  1  0  0  0  0
 58  9  1  0  0  0  0
 58126  1  1  0  0  0
 59 60  1  0  0  0  0
 59  5  1  0  0  0  0
 59127  1  6  0  0  0
 60128  1  0  0  0  0
 60129  1  0  0  0  0
 60130  1  0  0  0  0
M  END
>  <IDENTIFIER>
CNP0293672.4

>  <Energy>
1827.34

$$$$
