
 OpenBabel09092515543D

 83 85  0  0  0  0  0  0  0  0999 V2000
   -1.5028   -2.8775    1.0491 C   0  0  0  0  0  0  0  0  0  0  0  0
   -2.0845   -1.6897    1.2840 C   0  0  0  0  0  0  0  0  0  0  0  0
   -3.2800   -1.6050    2.1942 C   0  0  0  0  0  0  0  0  0  0  0  0
   -4.4723   -0.9278    1.4893 C   0  0  0  0  0  0  0  0  0  0  0  0
   -4.0599   -0.0675    0.2537 C   0  0  2  0  0  0  0  0  0  0  0  0
   -2.7025    0.7253    0.5528 C   0  0  2  0  0  0  0  0  0  0  0  0
   -2.7001    1.5878    1.8638 C   0  0  0  0  0  0  0  0  0  0  0  0
   -2.5085    1.6974   -0.6355 C   0  0  0  0  0  0  0  0  0  0  0  0
   -3.6656    2.7283   -0.7742 C   0  0  0  0  0  0  0  0  0  0  0  0
   -5.0530    2.2231   -0.2925 C   0  0  0  0  0  0  0  0  0  0  0  0
   -5.2432    0.7114   -0.5022 C   0  0  1  0  0  0  0  0  0  0  0  0
   -5.2451    0.4313   -2.0338 C   0  0  0  0  0  0  0  0  0  0  0  0
   -6.6189    0.2548   -0.0114 C   0  0  0  0  0  0  0  0  0  0  0  0
   -7.3809    1.0435    0.5348 O   0  0  0  0  0  0  0  0  0  0  0  0
   -6.9961   -1.0373   -0.2005 O   0  0  0  0  0  0  0  0  0  0  0  0
   -8.1771   -1.5767    0.2593 C   0  0  0  0  0  0  0  0  0  0  0  0
   -1.5605   -0.4055    0.6095 C   0  0  1  0  0  0  0  0  0  0  0  0
   -0.2011   -0.0484    1.2864 C   0  0  0  0  0  0  0  0  0  0  0  0
    0.6730    1.0307    0.6260 C   0  0  0  0  0  0  0  0  0  0  0  0
    1.2157    0.6291   -0.7216 C   0  0  0  0  0  0  0  0  0  0  0  0
    2.1747   -0.3387   -1.0026 C   0  0  0  0  0  0  0  0  0  0  0  0
    2.8933   -1.2325   -0.0178 C   0  0  0  0  0  0  0  0  0  0  0  0
    4.3453   -0.9755    0.0849 N   0  0  0  0  0  0  0  0  0  0  0  0
    5.1889   -1.3182   -1.0768 C   0  0  0  0  0  0  0  0  0  0  0  0
    5.3628   -2.8416   -1.2018 C   0  0  0  0  0  0  0  0  0  0  0  0
    5.8824   -3.5089    0.0881 C   0  0  0  0  0  0  0  0  0  0  0  0
    7.2576   -3.0041    0.5277 C   0  0  0  0  0  0  0  0  0  0  0  0
    4.7402    0.2488    0.8184 C   0  0  0  0  0  0  0  0  0  0  0  0
    4.6451    1.5439   -0.0022 C   0  0  0  0  0  0  0  0  0  0  0  0
    5.1108    2.7347    0.8464 C   0  0  0  0  0  0  0  0  0  0  0  0
    5.0002    4.0463    0.0760 C   0  0  0  0  0  0  0  0  0  0  0  0
    2.4038   -0.3573   -2.2960 O   0  0  0  0  0  0  0  0  0  0  0  0
    1.6551    0.5543   -2.8777 C   0  0  0  0  0  0  0  0  0  0  0  0
    0.8992    1.2074   -1.9298 C   0  0  0  0  0  0  0  0  0  0  0  0
   -1.8779   -3.7861    1.5110 H   0  0  0  0  0  0  0  0  0  0  0  0
   -0.6512   -2.9575    0.3808 H   0  0  0  0  0  0  0  0  0  0  0  0
   -2.9502   -1.0058    3.0585 H   0  0  0  0  0  0  0  0  0  0  0  0
   -3.5949   -2.5739    2.6397 H   0  0  0  0  0  0  0  0  0  0  0  0
   -5.0370   -0.3413    2.2466 H   0  0  0  0  0  0  0  0  0  0  0  0
   -5.1311   -1.7386    1.1200 H   0  0  0  0  0  0  0  0  0  0  0  0
   -3.7810   -0.8444   -0.4959 H   0  0  0  0  0  0  0  0  0  0  0  0
   -3.4505    2.3866    1.9004 H   0  0  0  0  0  0  0  0  0  0  0  0
   -1.7341    2.1201    1.9647 H   0  0  0  0  0  0  0  0  0  0  0  0
   -2.8409    1.0210    2.7907 H   0  0  0  0  0  0  0  0  0  0  0  0
   -2.4663    1.0691   -1.5466 H   0  0  0  0  0  0  0  0  0  0  0  0
   -1.5669    2.2626   -0.6341 H   0  0  0  0  0  0  0  0  0  0  0  0
   -3.6991    3.0235   -1.8454 H   0  0  0  0  0  0  0  0  0  0  0  0
   -3.4496    3.6525   -0.1951 H   0  0  0  0  0  0  0  0  0  0  0  0
   -5.8496    2.8345   -0.7705 H   0  0  0  0  0  0  0  0  0  0  0  0
   -5.1741    2.3995    0.7905 H   0  0  0  0  0  0  0  0  0  0  0  0
   -6.0806    0.9777   -2.5242 H   0  0  0  0  0  0  0  0  0  0  0  0
   -5.3846   -0.6530   -2.2344 H   0  0  0  0  0  0  0  0  0  0  0  0
   -4.3184    0.7362   -2.5482 H   0  0  0  0  0  0  0  0  0  0  0  0
   -8.2220   -2.6471   -0.0289 H   0  0  0  0  0  0  0  0  0  0  0  0
   -9.0426   -1.0455   -0.1896 H   0  0  0  0  0  0  0  0  0  0  0  0
   -8.2210   -1.5049    1.3673 H   0  0  0  0  0  0  0  0  0  0  0  0
   -1.3782   -0.7095   -0.4461 H   0  0  0  0  0  0  0  0  0  0  0  0
    0.4001   -0.9714    1.3513 H   0  0  0  0  0  0  0  0  0  0  0  0
   -0.3996    0.2513    2.3368 H   0  0  0  0  0  0  0  0  0  0  0  0
    1.5462    1.2420    1.2795 H   0  0  0  0  0  0  0  0  0  0  0  0
    0.1195    1.9805    0.5662 H   0  0  0  0  0  0  0  0  0  0  0  0
    2.7043   -2.2877   -0.2985 H   0  0  0  0  0  0  0  0  0  0  0  0
    2.4768   -1.1086    0.9971 H   0  0  0  0  0  0  0  0  0  0  0  0
    6.2018   -0.8771   -0.9579 H   0  0  0  0  0  0  0  0  0  0  0  0
    4.7803   -0.8952   -2.0158 H   0  0  0  0  0  0  0  0  0  0  0  0
    6.0606   -3.0567   -2.0402 H   0  0  0  0  0  0  0  0  0  0  0  0
    4.3865   -3.3023   -1.4582 H   0  0  0  0  0  0  0  0  0  0  0  0
    5.9540   -4.6030   -0.0911 H   0  0  0  0  0  0  0  0  0  0  0  0
    5.1566   -3.3467    0.9144 H   0  0  0  0  0  0  0  0  0  0  0  0
    8.0065   -3.1758   -0.2735 H   0  0  0  0  0  0  0  0  0  0  0  0
    7.5759   -3.5527    1.4392 H   0  0  0  0  0  0  0  0  0  0  0  0
    7.2275   -1.9249    0.7802 H   0  0  0  0  0  0  0  0  0  0  0  0
    5.7922    0.1226    1.1599 H   0  0  0  0  0  0  0  0  0  0  0  0
    4.1236    0.3425    1.7392 H   0  0  0  0  0  0  0  0  0  0  0  0
    3.6017    1.7276   -0.3130 H   0  0  0  0  0  0  0  0  0  0  0  0
    5.2822    1.4678   -0.9098 H   0  0  0  0  0  0  0  0  0  0  0  0
    6.1695    2.5840    1.1519 H   0  0  0  0  0  0  0  0  0  0  0  0
    4.4831    2.8087    1.7611 H   0  0  0  0  0  0  0  0  0  0  0  0
    5.6326    4.0125   -0.8366 H   0  0  0  0  0  0  0  0  0  0  0  0
    5.3463    4.8823    0.7195 H   0  0  0  0  0  0  0  0  0  0  0  0
    3.9454    4.2336   -0.2140 H   0  0  0  0  0  0  0  0  0  0  0  0
    1.6532    0.7541   -3.9395 H   0  0  0  0  0  0  0  0  0  0  0  0
    0.2044    2.0173   -2.1129 H   0  0  0  0  0  0  0  0  0  0  0  0
  1  2  2  0  0  0  0
  1 35  1  0  0  0  0
  1 36  1  0  0  0  0
  2  3  1  0  0  0  0
  3  4  1  0  0  0  0
  3 37  1  0  0  0  0
  3 38  1  0  0  0  0
  4 39  1  0  0  0  0
  4 40  1  0  0  0  0
  5  4  1  0  0  0  0
  5  6  1  0  0  0  0
  5 41  1  6  0  0  0
  6  7  1  1  0  0  0
  6  8  1  0  0  0  0
  6 17  1  0  0  0  0
  7 42  1  0  0  0  0
  7 43  1  0  0  0  0
  7 44  1  0  0  0  0
  8  9  1  0  0  0  0
  8 45  1  0  0  0  0
  8 46  1  0  0  0  0
  9 10  1  0  0  0  0
  9 47  1  0  0  0  0
  9 48  1  0  0  0  0
 10 11  1  0  0  0  0
 10 49  1  0  0  0  0
 10 50  1  0  0  0  0
 11 12  1  0  0  0  0
 11 13  1  1  0  0  0
 11  5  1  0  0  0  0
 12 51  1  0  0  0  0
 12 52  1  0  0  0  0
 12 53  1  0  0  0  0
 13 14  2  0  0  0  0
 13 15  1  0  0  0  0
 15 16  1  0  0  0  0
 16 54  1  0  0  0  0
 16 55  1  0  0  0  0
 16 56  1  0  0  0  0
 17 18  1  0  0  0  0
 17  2  1  0  0  0  0
 17 57  1  6  0  0  0
 18 19  1  0  0  0  0
 18 58  1  0  0  0  0
 18 59  1  0  0  0  0
 19 20  1  0  0  0  0
 19 60  1  0  0  0  0
 19 61  1  0  0  0  0
 20 21  2  0  0  0  0
 21 22  1  0  0  0  0
 21 32  1  0  0  0  0
 22 23  1  0  0  0  0
 22 62  1  0  0  0  0
 22 63  1  0  0  0  0
 23 24  1  0  0  0  0
 23 28  1  0  0  0  0
 24 25  1  0  0  0  0
 24 64  1  0  0  0  0
 24 65  1  0  0  0  0
 25 26  1  0  0  0  0
 25 66  1  0  0  0  0
 25 67  1  0  0  0  0
 26 27  1  0  0  0  0
 26 68  1  0  0  0  0
 26 69  1  0  0  0  0
 27 70  1  0  0  0  0
 27 71  1  0  0  0  0
 27 72  1  0  0  0  0
 28 29  1  0  0  0  0
 28 73  1  0  0  0  0
 28 74  1  0  0  0  0
 29 30  1  0  0  0  0
 29 75  1  0  0  0  0
 29 76  1  0  0  0  0
 30 31  1  0  0  0  0
 30 77  1  0  0  0  0
 30 78  1  0  0  0  0
 31 79  1  0  0  0  0
 31 80  1  0  0  0  0
 31 81  1  0  0  0  0
 32 33  1  0  0  0  0
 33 34  2  0  0  0  0
 33 82  1  0  0  0  0
 34 20  1  0  0  0  0
 34 83  1  0  0  0  0
M  END
>  <IDENTIFIER>
CNP0346133.1

>  <Energy>
838.01

$$$$
