
 OpenBabel09052520452D

181180  0  0  0  0  0  0  0  0999 V2000
   -6.0000  -10.3923    0.0000 C   0  0  0  0  0  0  0  0  0  0  0  0
   -5.2500   -9.0933    0.0000 C   0  0  0  0  0  0  0  0  0  0  0  0
   -4.5000   -7.7942    0.0000 C   0  0  0  0  0  0  0  0  0  0  0  0
   -3.7500   -6.4952    0.0000 C   0  0  0  0  0  0  0  0  0  0  0  0
   -3.0000   -5.1962    0.0000 C   0  0  0  0  0  0  0  0  0  0  0  0
   -2.9513   -4.0203   -0.9957 C   0  0  0  0  0  0  0  0  0  0  0  0
   -1.6149   -3.2421   -0.6989 C   0  0  0  0  0  0  0  0  0  0  0  0
   -1.4848   -1.8952   -1.4006 C   0  0  0  0  0  0  0  0  0  0  0  0
   -0.1852   -1.0846   -1.2466 C   0  0  0  0  0  0  0  0  0  0  0  0
    1.0633   -1.3134   -0.7304 C   0  0  0  0  0  0  0  0  0  0  0  0
    1.7020   -2.5403   -0.0899 C   0  0  0  0  0  0  0  0  0  0  0  0
    2.8091   -3.0304   -1.0148 C   0  0  0  0  0  0  0  0  0  0  0  0
    4.1416   -3.2272   -0.7887 C   0  0  0  0  0  0  0  0  0  0  0  0
    4.9565   -3.0749    0.4802 C   0  0  0  0  0  0  0  0  0  0  0  0
    5.9627   -1.9654    0.3151 C   0  0  0  0  0  0  0  0  0  0  0  0
    7.3211   -1.9714    0.2802 C   0  0  0  0  0  0  0  0  0  0  0  0
    8.4477   -3.0125    0.3244 C   0  0  0  0  0  0  0  0  0  0  0  0
    8.2928   -4.5607    0.2845 C   0  0  0  0  0  0  0  0  0  0  0  0
    9.7381   -5.1841    0.1927 C   0  0  0  0  0  0  0  0  0  0  0  0
    9.8897   -6.6808   -0.0849 C   0  0  0  0  0  0  0  0  0  0  0  0
    9.3436   -7.1405   -1.0778 O   0  0  0  0  0  0  0  0  0  0  0  0
   10.7641   -7.4566    0.6460 O   0  0  0  0  0  0  0  0  0  0  0  0
   11.3316   -8.6437    0.1507 C   0  0  0  0  0  0  0  0  0  0  0  0
   12.1565   -9.4593    1.2039 C   0  0  2  0  0  0  0  0  0  0  0  0
   13.3353   -8.6544    1.8283 C   0  0  0  0  0  0  0  0  0  0  0  0
   14.3189   -8.3643    0.9014 O   0  0  0  0  0  0  0  0  0  0  0  0
   15.4688   -7.6548    1.1325 C   0  0  0  0  0  0  0  0  0  0  0  0
   15.6853   -7.1062    2.2026 O   0  0  0  0  0  0  0  0  0  0  0  0
   16.4462   -7.5933    0.0000 C   0  0  0  0  0  0  0  0  0  0  0  0
   17.7452   -6.8433    0.0000 C   0  0  0  0  0  2  0  0  0  0  0  0
   19.0442   -6.0933    0.0000 C   0  0  0  0  0  0  0  0  0  0  0  0
   20.3433   -5.3433    0.0000 C   0  0  0  0  0  0  0  0  0  0  0  0
   21.6423   -4.5933    0.0000 C   0  0  0  0  0  2  0  0  0  0  0  0
   22.9413   -3.8433    0.0000 C   0  0  0  0  0  0  0  0  0  0  0  0
   24.4681   -3.2852   -0.4295 C   0  0  0  0  0  0  0  0  0  0  0  0
   25.3154   -2.1182    0.4768 C   0  0  0  0  0  0  0  0  0  0  0  0
   26.8385   -1.5933    0.0000 C   0  0  0  0  0  0  0  0  0  0  0  0
   28.1375   -0.8433    0.0000 C   0  0  0  0  0  0  0  0  0  0  0  0
   29.4365   -0.0933    0.0000 C   0  0  0  0  0  0  0  0  0  0  0  0
   30.7356    0.6567    0.0000 C   0  0  0  0  0  0  0  0  0  0  0  0
   32.0346    1.4067    0.0000 C   0  0  0  0  0  0  0  0  0  0  0  0
   33.3336    2.1567    0.0000 C   0  0  0  0  0  0  0  0  0  0  0  0
   34.8566    2.6818    0.4769 C   0  0  0  0  0  0  0  0  0  0  0  0
   35.7042    3.8483   -0.4297 C   0  0  0  0  0  0  0  0  0  0  0  0
   37.2308    4.4067    0.0000 C   0  0  0  0  0  0  0  0  0  0  0  0
   38.5298    5.1567    0.0000 C   0  0  0  0  0  2  0  0  0  0  0  0
   39.8288    5.9067    0.0000 C   0  0  0  0  0  0  0  0  0  0  0  0
   41.4601    6.2757    0.1698 C   0  0  0  0  0  0  0  0  0  0  0  0
   42.1073    7.7895   -0.2613 C   0  0  0  0  0  0  0  0  0  0  0  0
   43.7260    8.1567    0.0000 C   0  0  0  0  0  0  0  0  0  0  0  0
   45.0250    8.9067    0.0000 C   0  0  0  0  0  0  0  0  0  0  0  0
   12.5662  -10.6788    0.6210 O   0  0  0  0  0  0  0  0  0  0  0  0
   12.9924  -11.8227    1.2648 C   0  0  0  0  0  0  0  0  0  0  0  0
   13.2570  -11.7920    2.4567 O   0  0  0  0  0  0  0  0  0  0  0  0
   12.8432  -13.1852    0.5693 C   0  0  0  0  0  0  0  0  0  0  0  0
   13.9829  -14.2686    0.6922 C   0  0  0  0  0  0  0  0  0  0  0  0
   13.5000  -15.5885    0.0000 C   0  0  0  0  0  0  0  0  0  0  0  0
   14.2500  -16.8875    0.0000 C   0  0  0  0  0  2  0  0  0  0  0  0
   15.0000  -18.1865    0.0000 C   0  0  0  0  0  0  0  0  0  0  0  0
   15.7500  -19.4856    0.0000 C   0  0  0  0  0  0  0  0  0  0  0  0
   16.5000  -20.7846    0.0000 C   0  0  0  0  0  2  0  0  0  0  0  0
   17.2500  -22.0836    0.0000 C   0  0  0  0  0  0  0  0  0  0  0  0
   17.7576  -23.6389   -0.3875 C   0  0  0  0  0  0  0  0  0  0  0  0
   19.0295  -24.4255    0.4272 C   0  0  0  0  0  0  0  0  0  0  0  0
   19.5000  -25.9808    0.0000 C   0  0  0  0  0  0  0  0  0  0  0  0
   20.2500  -27.2798    0.0000 C   0  0  0  0  0  0  0  0  0  0  0  0
   21.0000  -28.5788    0.0000 C   0  0  0  0  0  0  0  0  0  0  0  0
   21.3385  -30.2202    0.1333 C   0  0  0  0  0  0  0  0  0  0  0  0
   22.8547  -30.8688   -0.2958 C   0  0  0  0  0  0  0  0  0  0  0  0
   23.2500  -32.4760    0.0000 C   0  0  0  0  0  0  0  0  0  0  0  0
   24.0000  -33.7750    0.0000 C   0  0  0  0  0  0  0  0  0  0  0  0
   -6.5016  -10.2542    0.9872 H   0  0  0  0  0  0  0  0  0  0  0  0
   -5.1700  -11.1569    0.0180 H   0  0  0  0  0  0  0  0  0  0  0  0
   -6.5350  -11.3189    0.0000 H   0  0  0  0  0  0  0  0  0  0  0  0
   -4.7635   -9.3979   -0.9719 H   0  0  0  0  0  0  0  0  0  0  0  0
   -4.5734   -9.4428    0.8413 H   0  0  0  0  0  0  0  0  0  0  0  0
   -5.2386   -7.4774   -0.8100 H   0  0  0  0  0  0  0  0  0  0  0  0
   -4.9501   -7.5177    1.0010 H   0  0  0  0  0  0  0  0  0  0  0  0
   -4.6544   -5.8075   -0.0046 H   0  0  0  0  0  0  0  0  0  0  0  0
   -3.3549   -6.7173   -1.0272 H   0  0  0  0  0  0  0  0  0  0  0  0
   -3.1083   -4.7504    1.0195 H   0  0  0  0  0  0  0  0  0  0  0  0
   -1.9503   -5.5838    0.0258 H   0  0  0  0  0  0  0  0  0  0  0  0
   -3.8518   -3.3872   -0.8401 H   0  0  0  0  0  0  0  0  0  0  0  0
   -2.9249   -4.3748   -2.0473 H   0  0  0  0  0  0  0  0  0  0  0  0
   -0.7871   -3.9001   -1.0286 H   0  0  0  0  0  0  0  0  0  0  0  0
   -1.5258   -3.0393    0.3925 H   0  0  0  0  0  0  0  0  0  0  0  0
   -2.3092   -1.2620   -1.0060 H   0  0  0  0  0  0  0  0  0  0  0  0
   -1.6601   -2.0329   -2.4888 H   0  0  0  0  0  0  0  0  0  0  0  0
   -0.2962   -0.0945   -1.6832 H   0  0  0  0  0  0  0  0  0  0  0  0
    1.7532   -0.4776   -0.8237 H   0  0  0  0  0  0  0  0  0  0  0  0
    0.9742   -3.3526    0.0427 H   0  0  0  0  0  0  0  0  0  0  0  0
    2.0909   -2.2706    0.9142 H   0  0  0  0  0  0  0  0  0  0  0  0
    2.4738   -3.2472   -2.0250 H   0  0  0  0  0  0  0  0  0  0  0  0
    4.7199   -3.5560   -1.6467 H   0  0  0  0  0  0  0  0  0  0  0  0
    4.3159   -2.8215    1.3490 H   0  0  0  0  0  0  0  0  0  0  0  0
    5.4674   -4.0374    0.6922 H   0  0  0  0  0  0  0  0  0  0  0  0
    5.5028   -0.9810    0.2170 H   0  0  0  0  0  0  0  0  0  0  0  0
    7.7417   -0.9720    0.1815 H   0  0  0  0  0  0  0  0  0  0  0  0
    9.0487   -2.7605   -0.5780 H   0  0  0  0  0  0  0  0  0  0  0  0
    9.0690   -2.7590    1.2110 H   0  0  0  0  0  0  0  0  0  0  0  0
    7.7587   -4.9322    1.1838 H   0  0  0  0  0  0  0  0  0  0  0  0
    7.7156   -4.8306   -0.6255 H   0  0  0  0  0  0  0  0  0  0  0  0
   10.2400   -4.6983   -0.6732 H   0  0  0  0  0  0  0  0  0  0  0  0
   10.3209   -4.9205    1.1020 H   0  0  0  0  0  0  0  0  0  0  0  0
   11.9795   -8.4006   -0.7195 H   0  0  0  0  0  0  0  0  0  0  0  0
   10.5131   -9.3062   -0.2061 H   0  0  0  0  0  0  0  0  0  0  0  0
   11.4372   -9.6915    2.0200 H   0  0  0  0  0  0  0  0  0  0  0  0
   12.9395   -7.7097    2.2617 H   0  0  0  0  0  0  0  0  0  0  0  0
   13.7860   -9.2477    2.6519 H   0  0  0  0  0  0  0  0  0  0  0  0
   15.8867   -7.1892   -0.8696 H   0  0  0  0  0  0  0  0  0  0  0  0
   16.7060   -8.6429   -0.2514 H   0  0  0  0  0  0  0  0  0  0  0  0
   18.6750   -5.5380    0.8962 H   0  0  0  0  0  0  0  0  0  0  0  0
   18.6749   -5.5374   -0.8957 H   0  0  0  0  0  0  0  0  0  0  0  0
   20.7123   -5.8989   -0.8960 H   0  0  0  0  0  0  0  0  0  0  0  0
   20.7124   -5.8990    0.8960 H   0  0  0  0  0  0  0  0  0  0  0  0
   23.2109   -4.1177    1.0412 H   0  0  0  0  0  0  0  0  0  0  0  0
   22.4714   -2.8397    0.0633 H   0  0  0  0  0  0  0  0  0  0  0  0
   25.1251   -4.1789   -0.4828 H   0  0  0  0  0  0  0  0  0  0  0  0
   24.3796   -2.8834   -1.4605 H   0  0  0  0  0  0  0  0  0  0  0  0
   24.6657   -1.2200    0.5445 H   0  0  0  0  0  0  0  0  0  0  0  0
   25.4188   -2.5263    1.5045 H   0  0  0  0  0  0  0  0  0  0  0  0
   27.1912   -2.6606   -0.0945 H   0  0  0  0  0  0  0  0  0  0  0  0
   26.4841   -1.2585   -1.0051 H   0  0  0  0  0  0  0  0  0  0  0  0
   28.4274   -1.3715    0.9498 H   0  0  0  0  0  0  0  0  0  0  0  0
   28.5480   -1.4223   -0.8828 H   0  0  0  0  0  0  0  0  0  0  0  0
   29.0915    0.5207   -0.8837 H   0  0  0  0  0  0  0  0  0  0  0  0
   29.0906    0.5342    0.8719 H   0  0  0  0  0  0  0  0  0  0  0  0
   31.0807    0.0425   -0.8836 H   0  0  0  0  0  0  0  0  0  0  0  0
   31.0814    0.0294    0.8720 H   0  0  0  0  0  0  0  0  0  0  0  0
   31.6242    1.9855   -0.8830 H   0  0  0  0  0  0  0  0  0  0  0  0
   31.7445    1.9351    0.9496 H   0  0  0  0  0  0  0  0  0  0  0  0
   33.6882    1.8216   -1.0049 H   0  0  0  0  0  0  0  0  0  0  0  0
   32.9809    3.2239   -0.0949 H   0  0  0  0  0  0  0  0  0  0  0  0
   34.7529    3.0905    1.5044 H   0  0  0  0  0  0  0  0  0  0  0  0
   35.5063    1.7836    0.5454 H   0  0  0  0  0  0  0  0  0  0  0  0
   35.0472    4.7419   -0.4839 H   0  0  0  0  0  0  0  0  0  0  0  0
   35.7931    3.4458   -1.4605 H   0  0  0  0  0  0  0  0  0  0  0  0
   37.7007    3.4031    0.0642 H   0  0  0  0  0  0  0  0  0  0  0  0
   36.9608    4.6818    1.0409 H   0  0  0  0  0  0  0  0  0  0  0  0
   39.4533    6.7613    0.6007 H   0  0  0  0  0  0  0  0  0  0  0  0
   39.7524    6.2266   -1.0601 H   0  0  0  0  0  0  0  0  0  0  0  0
   41.7114    6.1070    1.2377 H   0  0  0  0  0  0  0  0  0  0  0  0
   42.0212    5.5211   -0.4212 H   0  0  0  0  0  0  0  0  0  0  0  0
   41.9029    7.9321   -1.3429 H   0  0  0  0  0  0  0  0  0  0  0  0
   41.5193    8.5565    0.2869 H   0  0  0  0  0  0  0  0  0  0  0  0
   43.6577    7.9199    1.0929 H   0  0  0  0  0  0  0  0  0  0  0  0
   44.1028    7.2420   -0.5136 H   0  0  0  0  0  0  0  0  0  0  0  0
   45.6526    8.1830    0.5805 H   0  0  0  0  0  0  0  0  0  0  0  0
   44.6690    9.7567    0.6249 H   0  0  0  0  0  0  0  0  0  0  0  0
   45.9516    9.4417    0.0000 H   0  0  0  0  0  0  0  0  0  0  0  0
   12.6108  -13.0078   -0.5034 H   0  0  0  0  0  0  0  0  0  0  0  0
   11.9363  -13.6385    1.0264 H   0  0  0  0  0  0  0  0  0  0  0  0
   14.1750  -14.4724    1.7676 H   0  0  0  0  0  0  0  0  0  0  0  0
   14.9188  -13.9040    0.2181 H   0  0  0  0  0  0  0  0  0  0  0  0
   13.2999  -15.3524   -1.0667 H   0  0  0  0  0  0  0  0  0  0  0  0
   12.5198  -15.8499    0.4525 H   0  0  0  0  0  0  0  0  0  0  0  0
   15.5556  -17.8172    0.8959 H   0  0  0  0  0  0  0  0  0  0  0  0
   15.5556  -17.8173   -0.8959 H   0  0  0  0  0  0  0  0  0  0  0  0
   15.1942  -19.8547   -0.8959 H   0  0  0  0  0  0  0  0  0  0  0  0
   15.1945  -19.8546    0.8961 H   0  0  0  0  0  0  0  0  0  0  0  0
   17.1033  -22.2797    1.0827 H   0  0  0  0  0  0  0  0  0  0  0  0
   18.2522  -21.6149   -0.0897 H   0  0  0  0  0  0  0  0  0  0  0  0
   16.8668  -24.2942   -0.2867 H   0  0  0  0  0  0  0  0  0  0  0  0
   18.0315  -23.6237   -1.4632 H   0  0  0  0  0  0  0  0  0  0  0  0
   19.9262  -23.7764    0.3374 H   0  0  0  0  0  0  0  0  0  0  0  0
   18.7513  -24.4533    1.5020 H   0  0  0  0  0  0  0  0  0  0  0  0
   18.4345  -26.3397    0.0747 H   0  0  0  0  0  0  0  0  0  0  0  0
   19.7018  -25.7069   -1.0635 H   0  0  0  0  0  0  0  0  0  0  0  0
   19.9112  -27.4772    1.0487 H   0  0  0  0  0  0  0  0  0  0  0  0
   19.5558  -27.7671   -0.7455 H   0  0  0  0  0  0  0  0  0  0  0  0
   21.8246  -28.2608    0.6833 H   0  0  0  0  0  0  0  0  0  0  0  0
   21.4610  -28.4783   -1.0152 H   0  0  0  0  0  0  0  0  0  0  0  0
   21.1501  -30.4904    1.1939 H   0  0  0  0  0  0  0  0  0  0  0  0
   20.5881  -30.7623   -0.4794 H   0  0  0  0  0  0  0  0  0  0  0  0
   22.9733  -30.6907   -1.3852 H   0  0  0  0  0  0  0  0  0  0  0  0
   23.6281  -30.2599    0.2192 H   0  0  0  0  0  0  0  0  0  0  0  0
   23.0804  -32.3673    1.1022 H   0  0  0  0  0  0  0  0  0  0  0  0
   22.3089  -32.8747   -0.4445 H   0  0  0  0  0  0  0  0  0  0  0  0
   23.3242  -34.3758    0.6610 H   0  0  0  0  0  0  0  0  0  0  0  0
   24.8937  -33.3917    0.5419 H   0  0  0  0  0  0  0  0  0  0  0  0
   24.5350  -34.7016    0.0000 H   0  0  0  0  0  0  0  0  0  0  0  0
  1  2  1  0  0  0  0
  1 72  1  0  0  0  0
  1 73  1  0  0  0  0
  1 74  1  0  0  0  0
  2  3  1  0  0  0  0
  2 75  1  0  0  0  0
  2 76  1  0  0  0  0
  3  4  1  0  0  0  0
  3 77  1  0  0  0  0
  3 78  1  0  0  0  0
  4  5  1  0  0  0  0
  4 79  1  0  0  0  0
  4 80  1  0  0  0  0
  5  6  1  0  0  0  0
  5 81  1  0  0  0  0
  5 82  1  0  0  0  0
  6  7  1  0  0  0  0
  6 83  1  0  0  0  0
  6 84  1  0  0  0  0
  7  8  1  0  0  0  0
  7 85  1  0  0  0  0
  7 86  1  0  0  0  0
  8  9  1  0  0  0  0
  8 87  1  0  0  0  0
  8 88  1  0  0  0  0
  9 10  2  0  0  0  0
  9 89  1  0  0  0  0
 10 11  1  0  0  0  0
 10 90  1  0  0  0  0
 11 12  1  0  0  0  0
 11 91  1  0  0  0  0
 11 92  1  0  0  0  0
 12 13  2  0  0  0  0
 12 93  1  0  0  0  0
 13 14  1  0  0  0  0
 13 94  1  0  0  0  0
 14 15  1  0  0  0  0
 14 95  1  0  0  0  0
 14 96  1  0  0  0  0
 15 16  2  0  0  0  0
 15 97  1  0  0  0  0
 16 17  1  0  0  0  0
 16 98  1  0  0  0  0
 17 18  1  0  0  0  0
 17 99  1  0  0  0  0
 17100  1  0  0  0  0
 18 19  1  0  0  0  0
 18101  1  0  0  0  0
 18102  1  0  0  0  0
 19 20  1  0  0  0  0
 19103  1  0  0  0  0
 19104  1  0  0  0  0
 20 21  2  0  0  0  0
 20 22  1  0  0  0  0
 22 23  1  0  0  0  0
 23105  1  0  0  0  0
 23106  1  0  0  0  0
 24 23  1  0  0  0  0
 24 25  1  0  0  0  0
 24 52  1  0  0  0  0
 24107  1  1  0  0  0
 25 26  1  0  0  0  0
 25108  1  0  0  0  0
 25109  1  0  0  0  0
 26 27  1  0  0  0  0
 27 28  2  0  0  0  0
 27 29  1  0  0  0  0
 29 30  1  0  0  0  0
 29110  1  0  0  0  0
 29111  1  0  0  0  0
 30 31  1  0  0  0  0
 31 32  1  0  0  0  0
 31112  1  0  0  0  0
 31113  1  0  0  0  0
 32 33  1  0  0  0  0
 32114  1  0  0  0  0
 32115  1  0  0  0  0
 33 34  1  0  0  0  0
 34 35  1  0  0  0  0
 34116  1  0  0  0  0
 34117  1  0  0  0  0
 35 36  1  0  0  0  0
 35118  1  0  0  0  0
 35119  1  0  0  0  0
 36 37  1  0  0  0  0
 36120  1  0  0  0  0
 36121  1  0  0  0  0
 37 38  1  0  0  0  0
 37122  1  0  0  0  0
 37123  1  0  0  0  0
 38 39  1  0  0  0  0
 38124  1  0  0  0  0
 38125  1  0  0  0  0
 39 40  1  0  0  0  0
 39126  1  0  0  0  0
 39127  1  0  0  0  0
 40 41  1  0  0  0  0
 40128  1  0  0  0  0
 40129  1  0  0  0  0
 41 42  1  0  0  0  0
 41130  1  0  0  0  0
 41131  1  0  0  0  0
 42 43  1  0  0  0  0
 42132  1  0  0  0  0
 42133  1  0  0  0  0
 43 44  1  0  0  0  0
 43134  1  0  0  0  0
 43135  1  0  0  0  0
 44 45  1  0  0  0  0
 44136  1  0  0  0  0
 44137  1  0  0  0  0
 45 46  1  0  0  0  0
 45138  1  0  0  0  0
 45139  1  0  0  0  0
 46 47  1  0  0  0  0
 47 48  1  0  0  0  0
 47140  1  0  0  0  0
 47141  1  0  0  0  0
 48 49  1  0  0  0  0
 48142  1  0  0  0  0
 48143  1  0  0  0  0
 49 50  1  0  0  0  0
 49144  1  0  0  0  0
 49145  1  0  0  0  0
 50 51  1  0  0  0  0
 50146  1  0  0  0  0
 50147  1  0  0  0  0
 51148  1  0  0  0  0
 51149  1  0  0  0  0
 51150  1  0  0  0  0
 52 53  1  0  0  0  0
 53 54  2  0  0  0  0
 53 55  1  0  0  0  0
 55 56  1  0  0  0  0
 55151  1  0  0  0  0
 55152  1  0  0  0  0
 56 57  1  0  0  0  0
 56153  1  0  0  0  0
 56154  1  0  0  0  0
 57 58  1  0  0  0  0
 57155  1  0  0  0  0
 57156  1  0  0  0  0
 58 59  1  0  0  0  0
 59 60  1  0  0  0  0
 59157  1  0  0  0  0
 59158  1  0  0  0  0
 60 61  1  0  0  0  0
 60159  1  0  0  0  0
 60160  1  0  0  0  0
 61 62  1  0  0  0  0
 62 63  1  0  0  0  0
 62161  1  0  0  0  0
 62162  1  0  0  0  0
 63 64  1  0  0  0  0
 63163  1  0  0  0  0
 63164  1  0  0  0  0
 64 65  1  0  0  0  0
 64165  1  0  0  0  0
 64166  1  0  0  0  0
 65 66  1  0  0  0  0
 65167  1  0  0  0  0
 65168  1  0  0  0  0
 66 67  1  0  0  0  0
 66169  1  0  0  0  0
 66170  1  0  0  0  0
 67 68  1  0  0  0  0
 67171  1  0  0  0  0
 67172  1  0  0  0  0
 68 69  1  0  0  0  0
 68173  1  0  0  0  0
 68174  1  0  0  0  0
 69 70  1  0  0  0  0
 69175  1  0  0  0  0
 69176  1  0  0  0  0
 70 71  1  0  0  0  0
 70177  1  0  0  0  0
 70178  1  0  0  0  0
 71179  1  0  0  0  0
 71180  1  0  0  0  0
 71181  1  0  0  0  0
M  END
>  <IDENTIFIER>
CNP0481392.1

>  <Energy>
11013.9

$$$$
