
 OpenBabel09122520223D

114120  0  0  0  0  0  0  0  0999 V2000
    2.3972   -2.7787    1.8302 C   0  0  0  0  0  0  0  0  0  0  0  0
    2.1160   -1.7152    0.8176 C   0  0  0  0  0  0  0  0  0  0  0  0
    2.9722   -1.4291   -0.0078 O   0  0  0  0  0  0  0  0  0  0  0  0
    0.8981   -1.1071    0.8099 O   0  0  0  0  0  0  0  0  0  0  0  0
    0.4893   -0.1327   -0.0911 C   0  0  1  0  0  0  0  0  0  0  0  0
   -0.5539   -0.7876   -1.0321 C   0  0  0  0  0  0  0  0  0  0  0  0
   -1.0610    0.1621   -2.1486 C   0  0  1  0  0  0  0  0  0  0  0  0
   -0.0075    0.4877   -3.0203 O   0  0  0  0  0  0  0  0  0  0  0  0
   -2.2643   -0.3906   -2.9508 C   0  0  0  0  0  0  0  0  0  0  0  0
   -3.5292   -0.7911   -2.1391 C   0  0  0  0  0  0  0  0  0  0  0  0
   -4.1806    0.2779   -1.2009 C   0  0  2  0  0  0  0  0  0  0  0  0
   -3.2728    0.5519   -0.0823 C   0  0  0  0  0  0  0  0  0  0  0  0
   -2.4099    0.8171    0.7152 C   0  0  0  0  0  0  0  0  0  0  0  0
   -1.2450    0.9599    1.5803 C   0  0  0  0  0  0  0  0  0  0  0  0
    0.0121    1.1604    0.6905 C   0  0  1  0  0  0  0  0  0  0  0  0
    1.1534    1.7476    1.5530 C   0  0  0  0  0  0  0  0  0  0  0  0
    2.3224    2.1803    0.7037 C   0  0  0  0  0  0  0  0  0  0  0  0
    2.1660    3.1660   -0.2833 C   0  0  0  0  0  0  0  0  0  0  0  0
    3.2436    3.5362   -1.0855 C   0  0  0  0  0  0  0  0  0  0  0  0
    4.4983    2.9325   -0.9166 C   0  0  0  0  0  0  0  0  0  0  0  0
    5.5197    3.3071   -1.7119 O   0  0  0  0  0  0  0  0  0  0  0  0
    4.6660    1.9469    0.0889 C   0  0  0  0  0  0  0  0  0  0  0  0
    5.8252    1.2907    0.3449 O   0  0  0  0  0  0  0  0  0  0  0  0
    6.9994    1.2545   -0.3789 C   0  0  1  0  0  0  0  0  0  0  0  0
    7.9252    2.4110    0.0781 C   0  0  0  0  0  0  0  0  0  0  0  0
    9.3945    2.0068   -0.0585 C   0  0  0  0  0  0  0  0  0  0  0  0
    9.7152    0.8525    0.8191 N   0  0  0  0  0  0  0  0  0  0  0  0
    8.5825   -0.0747    1.0746 C   0  0  2  0  0  0  0  0  0  0  0  0
    9.0992   -1.4752    1.4529 C   0  0  0  0  0  0  0  0  0  0  0  0
    9.8881   -2.1258    0.3453 C   0  0  0  0  0  0  0  0  0  0  0  0
    9.2486   -2.9881   -0.5621 C   0  0  0  0  0  0  0  0  0  0  0  0
    9.9714   -3.5794   -1.6007 C   0  0  0  0  0  0  0  0  0  0  0  0
   11.3386   -3.3253   -1.7342 C   0  0  0  0  0  0  0  0  0  0  0  0
   11.9841   -2.4757   -0.8308 C   0  0  0  0  0  0  0  0  0  0  0  0
   11.2619   -1.8728    0.2039 C   0  0  0  0  0  0  0  0  0  0  0  0
    7.6541   -0.1221   -0.1500 C   0  0  0  0  0  0  0  0  0  0  0  0
    3.5753    1.5910    0.8867 C   0  0  0  0  0  0  0  0  0  0  0  0
   -5.4905   -0.2760   -0.6122 C   0  0  0  0  0  0  0  0  0  0  0  0
   -5.4907   -1.5490    0.2154 C   0  0  0  0  0  0  0  0  0  0  0  0
   -6.8516   -1.6050    0.7562 N   0  0  2  0  0  0  0  0  0  0  0  0
   -7.8521   -2.3491   -0.0203 C   0  0  0  0  0  0  0  0  0  0  0  0
   -9.2657   -1.8446    0.3474 C   0  0  1  0  0  0  0  0  0  0  0  0
   -9.4697   -2.0143    1.8584 C   0  0  0  0  0  0  0  0  0  0  0  0
   -8.4305   -1.1403    2.5739 C   0  0  1  0  0  0  0  0  0  0  0  0
   -7.0134   -1.6365    2.2133 C   0  0  0  0  0  0  0  0  0  0  0  0
   -8.6549    0.3427    2.1660 C   0  0  0  0  0  0  0  0  0  0  0  0
   -8.5650    0.5571    0.6967 N   0  0  2  0  0  0  0  0  0  0  0  0
   -8.7862    1.9956    0.3545 C   0  0  0  0  0  0  0  0  0  0  0  0
   -7.5211    2.6324    0.0095 N   0  0  0  0  0  0  0  0  0  0  0  0
   -6.7826    2.3258   -1.1803 C   0  0  0  0  0  0  0  0  0  0  0  0
   -7.3613    1.7902   -2.2010 N   0  0  0  0  0  0  0  0  0  0  0  0
   -5.3562    2.4967   -1.1865 N   0  0  0  0  0  0  0  0  0  0  0  0
   -4.5120    1.6023   -1.9810 C   0  0  0  0  0  0  0  0  0  0  0  0
   -9.4863   -0.3488   -0.0317 C   0  0  0  0  0  0  0  0  0  0  0  0
    3.4200   -3.1917    1.6928 H   0  0  0  0  0  0  0  0  0  0  0  0
    1.6625   -3.6030    1.7145 H   0  0  0  0  0  0  0  0  0  0  0  0
    2.3142   -2.3535    2.8513 H   0  0  0  0  0  0  0  0  0  0  0  0
    1.3364    0.1688   -0.7455 H   0  0  0  0  0  0  0  0  0  0  0  0
   -1.3778   -1.1775   -0.4097 H   0  0  0  0  0  0  0  0  0  0  0  0
   -0.1075   -1.6873   -1.5102 H   0  0  0  0  0  0  0  0  0  0  0  0
   -1.4072    1.1113   -1.7105 H   0  0  0  0  0  0  0  0  0  0  0  0
    0.2888   -0.3542   -3.4571 H   0  0  0  0  0  0  0  0  0  0  0  0
   -1.9393   -1.2907   -3.5178 H   0  0  0  0  0  0  0  0  0  0  0  0
   -2.5544    0.3816   -3.6953 H   0  0  0  0  0  0  0  0  0  0  0  0
   -3.2872   -1.6941   -1.5383 H   0  0  0  0  0  0  0  0  0  0  0  0
   -4.2884   -1.1070   -2.8877 H   0  0  0  0  0  0  0  0  0  0  0  0
   -1.1223    0.0841    2.2513 H   0  0  0  0  0  0  0  0  0  0  0  0
   -1.4309    1.8637    2.1995 H   0  0  0  0  0  0  0  0  0  0  0  0
   -0.2475    1.9535   -0.0412 H   0  0  0  0  0  0  0  0  0  0  0  0
    1.4604    0.9971    2.3146 H   0  0  0  0  0  0  0  0  0  0  0  0
    0.7924    2.6477    2.0971 H   0  0  0  0  0  0  0  0  0  0  0  0
    1.2091    3.6470   -0.4400 H   0  0  0  0  0  0  0  0  0  0  0  0
    3.0994    4.2938   -1.8459 H   0  0  0  0  0  0  0  0  0  0  0  0
    5.4210    3.9786   -2.4020 H   0  0  0  0  0  0  0  0  0  0  0  0
    6.7835    1.2750   -1.4692 H   0  0  0  0  0  0  0  0  0  0  0  0
    7.7703    2.6121    1.1618 H   0  0  0  0  0  0  0  0  0  0  0  0
    7.6854    3.3449   -0.4693 H   0  0  0  0  0  0  0  0  0  0  0  0
   10.0514    2.8642    0.2049 H   0  0  0  0  0  0  0  0  0  0  0  0
    9.5997    1.7411   -1.1183 H   0  0  0  0  0  0  0  0  0  0  0  0
   10.0672    1.1956    1.7434 H   0  0  0  0  0  0  0  0  0  0  0  0
    7.9847    0.2909    1.9420 H   0  0  0  0  0  0  0  0  0  0  0  0
    8.2205   -2.1111    1.7007 H   0  0  0  0  0  0  0  0  0  0  0  0
    9.7153   -1.4281    2.3776 H   0  0  0  0  0  0  0  0  0  0  0  0
    8.1881   -3.1901   -0.4728 H   0  0  0  0  0  0  0  0  0  0  0  0
    9.4699   -4.2334   -2.3022 H   0  0  0  0  0  0  0  0  0  0  0  0
   11.8972   -3.7864   -2.5379 H   0  0  0  0  0  0  0  0  0  0  0  0
   13.0438   -2.2826   -0.9336 H   0  0  0  0  0  0  0  0  0  0  0  0
   11.7723   -1.2151    0.8966 H   0  0  0  0  0  0  0  0  0  0  0  0
    6.8667   -0.9057   -0.0792 H   0  0  0  0  0  0  0  0  0  0  0  0
    8.2924   -0.3712   -1.0268 H   0  0  0  0  0  0  0  0  0  0  0  0
    3.7071    0.8306    1.6477 H   0  0  0  0  0  0  0  0  0  0  0  0
   -6.2261   -0.4066   -1.4337 H   0  0  0  0  0  0  0  0  0  0  0  0
   -5.8567    0.4801    0.1123 H   0  0  0  0  0  0  0  0  0  0  0  0
   -4.7427   -1.4588    1.0337 H   0  0  0  0  0  0  0  0  0  0  0  0
   -5.2480   -2.4462   -0.3938 H   0  0  0  0  0  0  0  0  0  0  0  0
   -7.7551   -3.4348    0.2016 H   0  0  0  0  0  0  0  0  0  0  0  0
   -7.6919   -2.2087   -1.1114 H   0  0  0  0  0  0  0  0  0  0  0  0
  -10.0089   -2.4615   -0.2030 H   0  0  0  0  0  0  0  0  0  0  0  0
   -9.3437   -3.0810    2.1498 H   0  0  0  0  0  0  0  0  0  0  0  0
  -10.4983   -1.7034    2.1433 H   0  0  0  0  0  0  0  0  0  0  0  0
   -8.5613   -1.2274    3.6745 H   0  0  0  0  0  0  0  0  0  0  0  0
   -6.8506   -2.6718    2.5841 H   0  0  0  0  0  0  0  0  0  0  0  0
   -6.2719   -0.9674    2.7045 H   0  0  0  0  0  0  0  0  0  0  0  0
   -7.9037    0.9781    2.6846 H   0  0  0  0  0  0  0  0  0  0  0  0
   -9.6647    0.6481    2.5260 H   0  0  0  0  0  0  0  0  0  0  0  0
   -9.2255    2.5393    1.2219 H   0  0  0  0  0  0  0  0  0  0  0  0
   -9.5244    2.1449   -0.4625 H   0  0  0  0  0  0  0  0  0  0  0  0
   -7.0698    3.2135    0.7319 H   0  0  0  0  0  0  0  0  0  0  0  0
   -8.3708    1.6088   -2.2510 H   0  0  0  0  0  0  0  0  0  0  0  0
   -4.9296    2.9117   -0.3444 H   0  0  0  0  0  0  0  0  0  0  0  0
   -3.5824    2.1321   -2.2807 H   0  0  0  0  0  0  0  0  0  0  0  0
   -5.0391    1.3442   -2.9239 H   0  0  0  0  0  0  0  0  0  0  0  0
   -9.3331   -0.2378   -1.1262 H   0  0  0  0  0  0  0  0  0  0  0  0
  -10.5408   -0.0729    0.1950 H   0  0  0  0  0  0  0  0  0  0  0  0
  1  2  1  0  0  0  0
  1 55  1  0  0  0  0
  1 56  1  0  0  0  0
  1 57  1  0  0  0  0
  2  3  2  0  0  0  0
  2  4  1  0  0  0  0
  5  4  1  0  0  0  0
  5  6  1  0  0  0  0
  5 58  1  6  0  0  0
  6  7  1  0  0  0  0
  6 59  1  0  0  0  0
  6 60  1  0  0  0  0
  7  8  1  0  0  0  0
  7  9  1  0  0  0  0
  7 61  1  1  0  0  0
  8 62  1  0  0  0  0
  9 10  1  0  0  0  0
  9 63  1  0  0  0  0
  9 64  1  0  0  0  0
 10 65  1  0  0  0  0
 10 66  1  0  0  0  0
 11 10  1  0  0  0  0
 11 12  1  1  0  0  0
 11 38  1  0  0  0  0
 12 13  3  0  0  0  0
 13 14  1  0  0  0  0
 14 15  1  0  0  0  0
 14 67  1  0  0  0  0
 14 68  1  0  0  0  0
 15 16  1  0  0  0  0
 15  5  1  0  0  0  0
 15 69  1  6  0  0  0
 16 17  1  0  0  0  0
 16 70  1  0  0  0  0
 16 71  1  0  0  0  0
 17 18  2  0  0  0  0
 18 19  1  0  0  0  0
 18 72  1  0  0  0  0
 19 20  2  0  0  0  0
 19 73  1  0  0  0  0
 20 21  1  0  0  0  0
 20 22  1  0  0  0  0
 21 74  1  0  0  0  0
 22 23  1  0  0  0  0
 22 37  2  0  0  0  0
 24 23  1  0  0  0  0
 24 25  1  0  0  0  0
 24 75  1  6  0  0  0
 25 26  1  0  0  0  0
 25 76  1  0  0  0  0
 25 77  1  0  0  0  0
 26 27  1  0  0  0  0
 26 78  1  0  0  0  0
 26 79  1  0  0  0  0
 27 28  1  0  0  0  0
 27 80  1  0  0  0  0
 28 29  1  0  0  0  0
 28 36  1  0  0  0  0
 28 81  1  1  0  0  0
 29 30  1  0  0  0  0
 29 82  1  0  0  0  0
 29 83  1  0  0  0  0
 30 31  2  0  0  0  0
 31 32  1  0  0  0  0
 31 84  1  0  0  0  0
 32 33  2  0  0  0  0
 32 85  1  0  0  0  0
 33 34  1  0  0  0  0
 33 86  1  0  0  0  0
 34 35  2  0  0  0  0
 34 87  1  0  0  0  0
 35 30  1  0  0  0  0
 35 88  1  0  0  0  0
 36 24  1  0  0  0  0
 36 89  1  0  0  0  0
 36 90  1  0  0  0  0
 37 17  1  0  0  0  0
 37 91  1  0  0  0  0
 38 39  1  0  0  0  0
 38 92  1  0  0  0  0
 38 93  1  0  0  0  0
 39 94  1  0  0  0  0
 39 95  1  0  0  0  0
 40 39  1  6  0  0  0
 40 41  1  0  0  0  0
 41 96  1  0  0  0  0
 41 97  1  0  0  0  0
 42 41  1  0  0  0  0
 42 43  1  0  0  0  0
 42 98  1  6  0  0  0
 43 99  1  0  0  0  0
 43100  1  0  0  0  0
 44 43  1  0  0  0  0
 44 45  1  0  0  0  0
 44 46  1  0  0  0  0
 44101  1  1  0  0  0
 45 40  1  0  0  0  0
 45102  1  0  0  0  0
 45103  1  0  0  0  0
 46104  1  0  0  0  0
 46105  1  0  0  0  0
 47 46  1  1  0  0  0
 47 48  1  0  0  0  0
 47 54  1  0  0  0  0
 48 49  1  0  0  0  0
 48106  1  0  0  0  0
 48107  1  0  0  0  0
 49 50  1  0  0  0  0
 49108  1  0  0  0  0
 50 51  2  0  0  0  0
 50 52  1  0  0  0  0
 51109  1  0  0  0  0
 52 53  1  0  0  0  0
 52110  1  0  0  0  0
 53 11  1  0  0  0  0
 53111  1  0  0  0  0
 53112  1  0  0  0  0
 54 42  1  0  0  0  0
 54113  1  0  0  0  0
 54114  1  0  0  0  0
M  END
>  <IDENTIFIER>
CNP0280184.2

>  <Energy>
938.658

$$$$
