
 OpenBabel09082500073D

 81 85  0  0  0  0  0  0  0  0999 V2000
    6.1834    1.1482   -2.1125 C   0  0  0  0  0  0  0  0  0  0  0  0
    5.4243    1.0831   -0.7702 C   0  0  0  0  0  0  0  0  0  0  0  0
    5.6259    2.4311   -0.0405 C   0  0  0  0  0  0  0  0  0  0  0  0
    6.0125   -0.0479    0.1417 C   0  0  0  0  0  0  0  0  0  0  0  0
    5.2615   -1.3604   -0.0636 C   0  0  0  0  0  0  0  0  0  0  0  0
    3.7675   -1.2377    0.4148 C   0  0  2  0  0  0  0  0  0  0  0  0
    3.6969   -1.4334    1.9601 C   0  0  0  0  0  0  0  0  0  0  0  0
    2.9570   -2.3570   -0.2962 C   0  0  1  0  0  0  0  0  0  0  0  0
    3.4593   -3.6429    0.0035 O   0  0  0  0  0  0  0  0  0  0  0  0
    1.4894   -2.2099    0.0527 C   0  0  0  0  0  0  0  0  0  0  0  0
    0.9314   -3.1123    0.6561 O   0  0  0  0  0  0  0  0  0  0  0  0
    0.7485   -0.9211   -0.3372 C   0  0  2  0  0  0  0  0  0  0  0  0
    0.6344   -0.9867   -1.8998 C   0  0  0  0  0  0  0  0  0  0  0  0
    1.6480    0.2943   -0.0571 C   0  0  0  0  0  0  0  0  0  0  0  0
    1.1027    1.5295    0.0609 C   0  0  0  0  0  0  0  0  0  0  0  0
   -0.3742    1.8373    0.0834 C   0  0  0  0  0  0  0  0  0  0  0  0
   -1.3201    0.6267   -0.1526 C   0  0  2  0  0  0  0  0  0  0  0  0
   -2.8565    0.9374    0.1640 C   0  0  1  0  0  0  0  0  0  0  0  0
   -3.0719    1.4188    1.6343 C   0  0  0  0  0  0  0  0  0  0  0  0
   -3.3540    2.0876   -0.8103 C   0  0  0  0  0  0  0  0  0  0  0  0
   -4.7321    1.8435   -1.4866 C   0  0  0  0  0  0  0  0  0  0  0  0
   -5.7494    1.2514   -0.5071 C   0  0  2  0  0  0  0  0  0  0  0  0
   -5.9247    2.1418    0.5652 O   0  0  0  0  0  0  0  0  0  0  0  0
   -5.2801   -0.1872   -0.0330 C   0  0  0  0  0  0  0  0  0  0  0  0
   -5.9264   -1.2335   -0.9887 C   0  0  0  0  0  0  0  0  0  0  0  0
   -5.8468   -0.4993    1.3798 C   0  0  0  0  0  0  0  0  0  0  0  0
   -3.6932   -0.3526   -0.1515 C   0  0  2  0  0  0  0  0  0  0  0  0
   -3.1230   -1.6061    0.5568 C   0  0  0  0  0  0  0  0  0  0  0  0
   -1.6810   -1.8779    0.0925 C   0  0  0  0  0  0  0  0  0  0  0  0
   -0.6820   -0.7155    0.4040 C   0  0  1  0  0  0  0  0  0  0  0  0
   -0.4271   -0.6699    1.9458 C   0  0  0  0  0  0  0  0  0  0  0  0
    3.1783    0.2030    0.0973 C   0  0  2  0  0  0  0  0  0  0  0  0
    3.9062    0.8453   -1.0937 C   0  0  0  0  0  0  0  0  0  0  0  0
    7.2648    1.3427   -1.9432 H   0  0  0  0  0  0  0  0  0  0  0  0
    5.7811    1.9665   -2.7487 H   0  0  0  0  0  0  0  0  0  0  0  0
    6.0883    0.1925   -2.6697 H   0  0  0  0  0  0  0  0  0  0  0  0
    6.7046    2.6074    0.1637 H   0  0  0  0  0  0  0  0  0  0  0  0
    5.0887    2.4478    0.9315 H   0  0  0  0  0  0  0  0  0  0  0  0
    5.2451    3.2748   -0.6544 H   0  0  0  0  0  0  0  0  0  0  0  0
    5.8970    0.2058    1.2159 H   0  0  0  0  0  0  0  0  0  0  0  0
    7.1058   -0.1543   -0.0311 H   0  0  0  0  0  0  0  0  0  0  0  0
    5.7607   -2.2078    0.4552 H   0  0  0  0  0  0  0  0  0  0  0  0
    5.3174   -1.5788   -1.1537 H   0  0  0  0  0  0  0  0  0  0  0  0
    4.1320   -2.4052    2.2710 H   0  0  0  0  0  0  0  0  0  0  0  0
    2.6501   -1.3832    2.3246 H   0  0  0  0  0  0  0  0  0  0  0  0
    4.2678   -0.6501    2.4984 H   0  0  0  0  0  0  0  0  0  0  0  0
    3.0673   -2.2469   -1.3893 H   0  0  0  0  0  0  0  0  0  0  0  0
    3.2001   -3.8918    0.9268 H   0  0  0  0  0  0  0  0  0  0  0  0
    1.6208   -1.0837   -2.3887 H   0  0  0  0  0  0  0  0  0  0  0  0
    0.2426   -0.0676   -2.3706 H   0  0  0  0  0  0  0  0  0  0  0  0
    0.0339   -1.8551   -2.2353 H   0  0  0  0  0  0  0  0  0  0  0  0
    1.7559    2.3779    0.2522 H   0  0  0  0  0  0  0  0  0  0  0  0
   -0.6063    2.6479   -0.6376 H   0  0  0  0  0  0  0  0  0  0  0  0
   -0.5149    2.2368    1.1019 H   0  0  0  0  0  0  0  0  0  0  0  0
   -1.3548    0.4654   -1.2388 H   0  0  0  0  0  0  0  0  0  0  0  0
   -2.4665    2.3105    1.8751 H   0  0  0  0  0  0  0  0  0  0  0  0
   -2.8937    0.6551    2.3949 H   0  0  0  0  0  0  0  0  0  0  0  0
   -4.0875    1.7652    1.8273 H   0  0  0  0  0  0  0  0  0  0  0  0
   -2.6643    2.2362   -1.6687 H   0  0  0  0  0  0  0  0  0  0  0  0
   -3.3536    3.0572   -0.2654 H   0  0  0  0  0  0  0  0  0  0  0  0
   -4.6183    1.1245   -2.3266 H   0  0  0  0  0  0  0  0  0  0  0  0
   -5.0943    2.7955   -1.9312 H   0  0  0  0  0  0  0  0  0  0  0  0
   -6.7465    1.1490   -0.9983 H   0  0  0  0  0  0  0  0  0  0  0  0
   -6.4525    2.9118    0.2253 H   0  0  0  0  0  0  0  0  0  0  0  0
   -7.0355   -1.1600   -0.9634 H   0  0  0  0  0  0  0  0  0  0  0  0
   -5.6701   -2.2737   -0.7045 H   0  0  0  0  0  0  0  0  0  0  0  0
   -5.6051   -1.0741   -2.0397 H   0  0  0  0  0  0  0  0  0  0  0  0
   -6.9533   -0.3926    1.3816 H   0  0  0  0  0  0  0  0  0  0  0  0
   -5.4546    0.1631    2.1687 H   0  0  0  0  0  0  0  0  0  0  0  0
   -5.6137   -1.5414    1.6832 H   0  0  0  0  0  0  0  0  0  0  0  0
   -3.5025   -0.5272   -1.2359 H   0  0  0  0  0  0  0  0  0  0  0  0
   -3.7128   -2.5013    0.2763 H   0  0  0  0  0  0  0  0  0  0  0  0
   -3.1870   -1.5110    1.6580 H   0  0  0  0  0  0  0  0  0  0  0  0
   -1.7414   -2.0444   -1.0008 H   0  0  0  0  0  0  0  0  0  0  0  0
   -1.3606   -2.8311    0.5514 H   0  0  0  0  0  0  0  0  0  0  0  0
    0.0726   -1.5904    2.2998 H   0  0  0  0  0  0  0  0  0  0  0  0
   -1.3329   -0.6252    2.5537 H   0  0  0  0  0  0  0  0  0  0  0  0
    0.2209    0.1795    2.2393 H   0  0  0  0  0  0  0  0  0  0  0  0
    3.4313    0.8528    0.9641 H   0  0  0  0  0  0  0  0  0  0  0  0
    3.4516    1.8054   -1.4224 H   0  0  0  0  0  0  0  0  0  0  0  0
    3.7841    0.1335   -1.9399 H   0  0  0  0  0  0  0  0  0  0  0  0
  1  2  1  0  0  0  0
  1 34  1  0  0  0  0
  1 35  1  0  0  0  0
  1 36  1  0  0  0  0
  2  3  1  0  0  0  0
  2  4  1  0  0  0  0
  3 37  1  0  0  0  0
  3 38  1  0  0  0  0
  3 39  1  0  0  0  0
  4  5  1  0  0  0  0
  4 40  1  0  0  0  0
  4 41  1  0  0  0  0
  5  6  1  0  0  0  0
  5 42  1  0  0  0  0
  5 43  1  0  0  0  0
  6  7  1  1  0  0  0
  6  8  1  0  0  0  0
  7 44  1  0  0  0  0
  7 45  1  0  0  0  0
  7 46  1  0  0  0  0
  8  9  1  0  0  0  0
  8 10  1  0  0  0  0
  8 47  1  6  0  0  0
  9 48  1  0  0  0  0
 10 11  2  0  0  0  0
 10 12  1  0  0  0  0
 12 13  1  6  0  0  0
 12 14  1  0  0  0  0
 13 49  1  0  0  0  0
 13 50  1  0  0  0  0
 13 51  1  0  0  0  0
 14 15  2  0  0  0  0
 14 32  1  0  0  0  0
 15 16  1  0  0  0  0
 15 52  1  0  0  0  0
 16 53  1  0  0  0  0
 16 54  1  0  0  0  0
 17 16  1  0  0  0  0
 17 18  1  0  0  0  0
 17 55  1  6  0  0  0
 18 19  1  1  0  0  0
 18 20  1  0  0  0  0
 19 56  1  0  0  0  0
 19 57  1  0  0  0  0
 19 58  1  0  0  0  0
 20 21  1  0  0  0  0
 20 59  1  0  0  0  0
 20 60  1  0  0  0  0
 21 22  1  0  0  0  0
 21 61  1  0  0  0  0
 21 62  1  0  0  0  0
 22 23  1  0  0  0  0
 22 24  1  0  0  0  0
 22 63  1  6  0  0  0
 23 64  1  0  0  0  0
 24 25  1  0  0  0  0
 24 26  1  0  0  0  0
 24 27  1  0  0  0  0
 25 65  1  0  0  0  0
 25 66  1  0  0  0  0
 25 67  1  0  0  0  0
 26 68  1  0  0  0  0
 26 69  1  0  0  0  0
 26 70  1  0  0  0  0
 27 28  1  0  0  0  0
 27 18  1  0  0  0  0
 27 71  1  6  0  0  0
 28 29  1  0  0  0  0
 28 72  1  0  0  0  0
 28 73  1  0  0  0  0
 29 30  1  0  0  0  0
 29 74  1  0  0  0  0
 29 75  1  0  0  0  0
 30 31  1  1  0  0  0
 30 12  1  0  0  0  0
 30 17  1  0  0  0  0
 31 76  1  0  0  0  0
 31 77  1  0  0  0  0
 31 78  1  0  0  0  0
 32 33  1  0  0  0  0
 32  6  1  0  0  0  0
 32 79  1  1  0  0  0
 33  2  1  0  0  0  0
 33 80  1  0  0  0  0
 33 81  1  0  0  0  0
M  END
>  <IDENTIFIER>
CNP0315895.1

>  <Energy>
981.374

$$$$
