
 OpenBabel09092506533D

 74 76  0  0  0  0  0  0  0  0999 V2000
    9.7135   -0.4407    4.5553 C   0  0  0  0  0  0  0  0  0  0  0  0
    8.8204   -0.7787    3.3990 C   0  0  0  0  0  0  0  0  0  0  0  0
    8.9114   -1.8870    2.8964 O   0  0  0  0  0  0  0  0  0  0  0  0
    7.8958    0.1318    2.9713 N   0  0  0  0  0  0  0  0  0  0  0  0
    6.9451   -0.0523    1.9114 C   0  0  0  0  0  0  0  0  0  0  0  0
    5.8268    0.7939    1.8731 C   0  0  0  0  0  0  0  0  0  0  0  0
    4.8327    0.6368    0.9050 C   0  0  0  0  0  0  0  0  0  0  0  0
    4.9362   -0.3675   -0.0798 C   0  0  0  0  0  0  0  0  0  0  0  0
    3.8743   -0.6054   -1.1132 C   0  0  0  0  0  0  0  0  0  0  0  0
    4.0965   -1.4063   -2.0122 O   0  0  0  0  0  0  0  0  0  0  0  0
    2.6556    0.0063   -1.0531 N   0  0  0  0  0  0  0  0  0  0  0  0
    1.6148   -0.2523   -2.0398 C   0  0  0  0  0  0  0  0  0  0  0  0
    0.3010    0.4902   -1.6957 C   0  0  2  0  0  0  0  0  0  0  0  0
   -0.1936    0.0279   -0.3215 C   0  0  0  0  0  0  0  0  0  0  0  0
   -1.4958   -0.1074    0.0261 C   0  0  0  0  0  0  0  0  0  0  0  0
   -1.8280   -0.5724    1.4280 C   0  0  0  0  0  0  0  0  0  0  0  0
   -2.6252    0.2512   -0.9377 C   0  0  2  0  0  0  0  0  0  0  0  0
   -3.4577   -0.9820   -1.4100 C   0  0  0  0  0  0  0  0  0  0  0  0
   -4.2633   -1.6882   -0.3362 C   0  0  0  0  0  0  0  0  0  0  0  0
   -3.9300   -2.8349   -0.0636 O   0  0  0  0  0  0  0  0  0  0  0  0
   -5.3447   -1.1260    0.3072 N   0  0  0  0  0  0  0  0  0  0  0  0
   -5.8823    0.1969    0.0074 C   0  0  0  0  0  0  0  0  0  0  0  0
   -5.8373    1.0418    1.2862 C   0  0  0  0  0  0  0  0  0  0  0  0
   -6.5847    0.3571    2.3643 N   0  0  0  0  0  0  0  0  0  0  0  0
   -6.5786    1.1713    3.5882 C   0  0  0  0  0  0  0  0  0  0  0  0
   -6.0111   -0.9784    2.6377 C   0  0  0  0  0  0  0  0  0  0  0  0
   -6.0518   -1.8351    1.3697 C   0  0  0  0  0  0  0  0  0  0  0  0
   -2.0889    1.0297   -2.1613 C   0  0  0  0  0  0  0  0  0  0  0  0
   -0.8391    0.3576   -2.7730 C   0  0  1  0  0  0  0  0  0  0  0  0
   -0.5858    0.9565   -4.2070 C   0  0  0  0  0  0  0  0  0  0  0  0
    0.2616    0.0717   -5.1423 C   0  0  0  0  0  0  0  0  0  0  0  0
   -0.0548    2.3969   -4.1909 C   0  0  0  0  0  0  0  0  0  0  0  0
    6.0816   -1.1850   -0.0705 C   0  0  0  0  0  0  0  0  0  0  0  0
    7.0670   -1.0388    0.9098 C   0  0  0  0  0  0  0  0  0  0  0  0
   10.3662   -1.3027    4.8124 H   0  0  0  0  0  0  0  0  0  0  0  0
    9.0951   -0.1886    5.4427 H   0  0  0  0  0  0  0  0  0  0  0  0
   10.3512    0.4282    4.2926 H   0  0  0  0  0  0  0  0  0  0  0  0
    7.8323    1.0116    3.5078 H   0  0  0  0  0  0  0  0  0  0  0  0
    5.7073    1.5690    2.6206 H   0  0  0  0  0  0  0  0  0  0  0  0
    3.9954    1.3136    0.9551 H   0  0  0  0  0  0  0  0  0  0  0  0
    2.4511    0.6622   -0.2914 H   0  0  0  0  0  0  0  0  0  0  0  0
    1.4066   -1.3435   -2.0994 H   0  0  0  0  0  0  0  0  0  0  0  0
    2.0171    0.1043   -2.9931 H   0  0  0  0  0  0  0  0  0  0  0  0
    0.5677    1.5635   -1.5837 H   0  0  0  0  0  0  0  0  0  0  0  0
    0.5500   -0.1861    0.4391 H   0  0  0  0  0  0  0  0  0  0  0  0
   -0.9187   -0.7465    2.0422 H   0  0  0  0  0  0  0  0  0  0  0  0
   -2.3811   -1.5267    1.4155 H   0  0  0  0  0  0  0  0  0  0  0  0
   -2.4411    0.1981    1.9385 H   0  0  0  0  0  0  0  0  0  0  0  0
   -3.2890    0.9692   -0.4236 H   0  0  0  0  0  0  0  0  0  0  0  0
   -2.7584   -1.7131   -1.8677 H   0  0  0  0  0  0  0  0  0  0  0  0
   -4.1759   -0.6865   -2.2045 H   0  0  0  0  0  0  0  0  0  0  0  0
   -6.9393    0.0915   -0.3170 H   0  0  0  0  0  0  0  0  0  0  0  0
   -5.3618    0.7139   -0.8179 H   0  0  0  0  0  0  0  0  0  0  0  0
   -6.2965    2.0316    1.0731 H   0  0  0  0  0  0  0  0  0  0  0  0
   -4.7777    1.2022    1.5882 H   0  0  0  0  0  0  0  0  0  0  0  0
   -7.0415    2.1622    3.3918 H   0  0  0  0  0  0  0  0  0  0  0  0
   -5.5428    1.3235    3.9661 H   0  0  0  0  0  0  0  0  0  0  0  0
   -7.1821    0.6758    4.3792 H   0  0  0  0  0  0  0  0  0  0  0  0
   -6.5983   -1.4930    3.4297 H   0  0  0  0  0  0  0  0  0  0  0  0
   -4.9554   -0.8856    2.9827 H   0  0  0  0  0  0  0  0  0  0  0  0
   -7.1094   -1.9897    1.0638 H   0  0  0  0  0  0  0  0  0  0  0  0
   -5.6156   -2.8334    1.5906 H   0  0  0  0  0  0  0  0  0  0  0  0
   -1.8095    2.0597   -1.8462 H   0  0  0  0  0  0  0  0  0  0  0  0
   -2.9179    1.1365   -2.8947 H   0  0  0  0  0  0  0  0  0  0  0  0
   -1.0866   -0.7125   -2.9321 H   0  0  0  0  0  0  0  0  0  0  0  0
   -1.5771    0.9680   -4.7139 H   0  0  0  0  0  0  0  0  0  0  0  0
    1.3305    0.0246   -4.8986 H   0  0  0  0  0  0  0  0  0  0  0  0
    0.2124    0.4803   -6.1746 H   0  0  0  0  0  0  0  0  0  0  0  0
   -0.1498   -0.9595   -5.1716 H   0  0  0  0  0  0  0  0  0  0  0  0
    0.9587    2.4371   -3.7410 H   0  0  0  0  0  0  0  0  0  0  0  0
   -0.7337    3.0639   -3.6223 H   0  0  0  0  0  0  0  0  0  0  0  0
    0.0092    2.7891   -5.2283 H   0  0  0  0  0  0  0  0  0  0  0  0
    6.2115   -1.9615   -0.8142 H   0  0  0  0  0  0  0  0  0  0  0  0
    7.9111   -1.7046    0.8514 H   0  0  0  0  0  0  0  0  0  0  0  0
  1  2  1  0  0  0  0
  1 35  1  0  0  0  0
  1 36  1  0  0  0  0
  1 37  1  0  0  0  0
  2  3  2  0  0  0  0
  2  4  1  0  0  0  0
  4  5  1  0  0  0  0
  4 38  1  0  0  0  0
  5  6  2  0  0  0  0
  6  7  1  0  0  0  0
  6 39  1  0  0  0  0
  7  8  2  0  0  0  0
  7 40  1  0  0  0  0
  8  9  1  0  0  0  0
  8 33  1  0  0  0  0
  9 10  2  0  0  0  0
  9 11  1  0  0  0  0
 11 12  1  0  0  0  0
 11 41  1  0  0  0  0
 12 42  1  0  0  0  0
 12 43  1  0  0  0  0
 13 12  1  0  0  0  0
 13 14  1  0  0  0  0
 13 44  1  1  0  0  0
 14 15  2  0  0  0  0
 14 45  1  0  0  0  0
 15 16  1  0  0  0  0
 15 17  1  0  0  0  0
 16 46  1  0  0  0  0
 16 47  1  0  0  0  0
 16 48  1  0  0  0  0
 17 18  1  0  0  0  0
 17 28  1  0  0  0  0
 17 49  1  1  0  0  0
 18 19  1  0  0  0  0
 18 50  1  0  0  0  0
 18 51  1  0  0  0  0
 19 20  2  0  0  0  0
 19 21  1  0  0  0  0
 21 22  1  0  0  0  0
 22 23  1  0  0  0  0
 22 52  1  0  0  0  0
 22 53  1  0  0  0  0
 23 24  1  0  0  0  0
 23 54  1  0  0  0  0
 23 55  1  0  0  0  0
 24 25  1  0  0  0  0
 24 26  1  0  0  0  0
 25 56  1  0  0  0  0
 25 57  1  0  0  0  0
 25 58  1  0  0  0  0
 26 27  1  0  0  0  0
 26 59  1  0  0  0  0
 26 60  1  0  0  0  0
 27 21  1  0  0  0  0
 27 61  1  0  0  0  0
 27 62  1  0  0  0  0
 28 29  1  0  0  0  0
 28 63  1  0  0  0  0
 28 64  1  0  0  0  0
 29 30  1  0  0  0  0
 29 13  1  0  0  0  0
 29 65  1  6  0  0  0
 30 31  1  0  0  0  0
 30 32  1  0  0  0  0
 30 66  1  0  0  0  0
 31 67  1  0  0  0  0
 31 68  1  0  0  0  0
 31 69  1  0  0  0  0
 32 70  1  0  0  0  0
 32 71  1  0  0  0  0
 32 72  1  0  0  0  0
 33 34  2  0  0  0  0
 33 73  1  0  0  0  0
 34  5  1  0  0  0  0
 34 74  1  0  0  0  0
M  END
>  <IDENTIFIER>
CNP0191959.1

>  <Energy>
475.574

$$$$
