
 OpenBabel09132508043D

 98100  0  0  0  0  0  0  0  0999 V2000
    2.5838   -0.8400   -5.7099 C   0  0  0  0  0  0  0  0  0  0  0  0
    1.9435   -0.3676   -4.6284 C   0  0  0  0  0  0  0  0  0  0  0  0
    0.7662    0.5259   -4.8335 C   0  0  0  0  0  0  0  0  0  0  0  0
   -0.0714    0.9009   -3.8484 C   0  0  0  0  0  0  0  0  0  0  0  0
   -1.1905    1.8306   -4.1411 C   0  0  0  0  0  0  0  0  0  0  0  0
   -2.1996    2.2757   -3.3313 C   0  0  0  0  0  0  0  0  0  0  0  0
   -3.2700    3.1894   -3.9436 C   0  0  0  0  0  0  0  0  0  0  0  0
   -3.1000    3.4376   -5.3159 O   0  0  0  0  0  0  0  0  0  0  0  0
   -2.4789    1.9101   -1.8519 C   0  0  2  0  0  0  0  0  0  0  0  0
   -2.7761    3.0990   -0.9352 C   0  0  0  0  0  0  0  0  0  0  0  0
   -3.1378    2.3986    0.3650 C   0  0  0  0  0  0  0  0  0  0  0  0
   -2.1959    1.1413    0.4776 C   0  0  2  0  0  0  0  0  0  0  0  0
   -1.4764    1.1376   -0.9415 C   0  0  2  0  0  0  0  0  0  0  0  0
   -0.2316    1.7953   -0.8540 O   0  0  0  0  0  0  0  0  0  0  0  0
   -3.1109   -0.1702    0.5717 C   0  0  2  0  0  0  0  0  0  0  0  0
   -3.9828   -0.0821    1.8188 C   0  0  0  0  0  0  0  0  0  0  0  0
   -5.3611   -0.0025    1.8055 C   0  0  0  0  0  0  0  0  0  0  0  0
   -6.2074    0.1015    3.0637 C   0  0  0  0  0  0  0  0  0  0  0  0
   -6.1588   -0.0046    0.5357 C   0  0  0  0  0  0  0  0  0  0  0  0
   -7.3773    0.0773    0.5729 O   0  0  0  0  0  0  0  0  0  0  0  0
   -3.1038   -0.0988    3.0655 C   0  0  1  0  0  0  0  0  0  0  0  0
   -2.2923   -1.3643    3.1063 C   0  0  0  0  0  0  0  0  0  0  0  0
   -1.9561   -2.0272    1.9914 C   0  0  0  0  0  0  0  0  0  0  0  0
   -2.3720   -1.5712    0.5958 C   0  0  1  0  0  0  0  0  0  0  0  0
   -3.2740   -2.6521   -0.0533 C   0  0  0  0  0  0  0  0  0  0  0  0
   -2.5778   -4.0124   -0.2211 C   0  0  0  0  0  0  0  0  0  0  0  0
   -3.3952   -4.8892   -0.9471 O   0  0  0  0  0  0  0  0  0  0  0  0
   -2.1623    1.1209    3.0536 C   0  0  0  0  0  0  0  0  0  0  0  0
   -1.2615    1.2427    1.7691 C   0  0  2  0  0  0  0  0  0  0  0  0
   -0.4746    2.5803    1.9145 C   0  0  0  0  0  0  0  0  0  0  0  0
   -0.3152    0.2012    1.7171 O   0  0  0  0  0  0  0  0  0  0  0  0
    2.4569   -0.7244   -3.2440 C   0  0  0  0  0  0  0  0  0  0  0  0
    2.9703    0.5357   -2.5284 C   0  0  0  0  0  0  0  0  0  0  0  0
    3.5102    0.1900   -1.1611 C   0  0  0  0  0  0  0  0  0  0  0  0
    4.7752    0.4102   -0.7059 C   0  0  0  0  0  0  0  0  0  0  0  0
    5.8759    1.0513   -1.5285 C   0  0  0  0  0  0  0  0  0  0  0  0
    5.2150    0.0251    0.7031 C   0  0  0  0  0  0  0  0  0  0  0  0
    4.1557   -0.6319    1.6079 C   0  0  0  0  0  0  0  0  0  0  0  0
    4.6881   -0.9250    3.0259 C   0  0  0  0  0  0  0  0  0  0  0  0
    5.9015   -1.8876    3.0976 C   0  0  0  0  0  0  0  0  0  0  0  0
    6.3501   -2.0441    4.5560 C   0  0  0  0  0  0  0  0  0  0  0  0
    5.5824   -3.2681    2.5043 C   0  0  0  0  0  0  0  0  0  0  0  0
    2.2484   -0.5918   -6.7136 H   0  0  0  0  0  0  0  0  0  0  0  0
    3.4537   -1.4830   -5.6164 H   0  0  0  0  0  0  0  0  0  0  0  0
    0.5807    0.8864   -5.8430 H   0  0  0  0  0  0  0  0  0  0  0  0
    0.0952    0.5047   -2.8726 H   0  0  0  0  0  0  0  0  0  0  0  0
   -1.1853    2.1717   -5.1704 H   0  0  0  0  0  0  0  0  0  0  0  0
   -3.3090    4.1618   -3.4050 H   0  0  0  0  0  0  0  0  0  0  0  0
   -4.2632    2.7110   -3.8146 H   0  0  0  0  0  0  0  0  0  0  0  0
   -2.4703    4.2021   -5.3940 H   0  0  0  0  0  0  0  0  0  0  0  0
   -3.4177    1.3191   -1.9265 H   0  0  0  0  0  0  0  0  0  0  0  0
   -3.6097    3.7567   -1.2553 H   0  0  0  0  0  0  0  0  0  0  0  0
   -1.8654    3.7244   -0.8039 H   0  0  0  0  0  0  0  0  0  0  0  0
   -4.1836    2.0570    0.2031 H   0  0  0  0  0  0  0  0  0  0  0  0
   -3.2005    3.0833    1.2319 H   0  0  0  0  0  0  0  0  0  0  0  0
   -1.2877    0.1217   -1.3220 H   0  0  0  0  0  0  0  0  0  0  0  0
   -0.1067    2.4204   -1.6119 H   0  0  0  0  0  0  0  0  0  0  0  0
   -3.6843   -0.1594   -0.3609 H   0  0  0  0  0  0  0  0  0  0  0  0
   -5.6758    0.1164    4.0245 H   0  0  0  0  0  0  0  0  0  0  0  0
   -6.9098   -0.7579    3.1014 H   0  0  0  0  0  0  0  0  0  0  0  0
   -6.8003    1.0399    3.0215 H   0  0  0  0  0  0  0  0  0  0  0  0
   -5.7159   -0.0771   -0.4434 H   0  0  0  0  0  0  0  0  0  0  0  0
   -3.6576   -0.0543    4.0142 H   0  0  0  0  0  0  0  0  0  0  0  0
   -1.9545   -1.7390    4.0683 H   0  0  0  0  0  0  0  0  0  0  0  0
   -1.3678   -2.9316    2.1005 H   0  0  0  0  0  0  0  0  0  0  0  0
   -1.4628   -1.5179   -0.0293 H   0  0  0  0  0  0  0  0  0  0  0  0
   -3.5468   -2.3069   -1.0752 H   0  0  0  0  0  0  0  0  0  0  0  0
   -4.2101   -2.7782    0.5335 H   0  0  0  0  0  0  0  0  0  0  0  0
   -2.3159   -4.4705    0.7573 H   0  0  0  0  0  0  0  0  0  0  0  0
   -1.6317   -3.8763   -0.7879 H   0  0  0  0  0  0  0  0  0  0  0  0
   -4.1166   -5.1809   -0.3321 H   0  0  0  0  0  0  0  0  0  0  0  0
   -1.5248    1.1016    3.9660 H   0  0  0  0  0  0  0  0  0  0  0  0
   -2.8064    2.0209    3.1451 H   0  0  0  0  0  0  0  0  0  0  0  0
    0.1032    2.5697    2.8645 H   0  0  0  0  0  0  0  0  0  0  0  0
   -1.1437    3.4613    1.9574 H   0  0  0  0  0  0  0  0  0  0  0  0
    0.2762    2.7535    1.1280 H   0  0  0  0  0  0  0  0  0  0  0  0
    0.1742    0.1776    2.5815 H   0  0  0  0  0  0  0  0  0  0  0  0
    3.3069   -1.4389   -3.3195 H   0  0  0  0  0  0  0  0  0  0  0  0
    1.6553   -1.2227   -2.6571 H   0  0  0  0  0  0  0  0  0  0  0  0
    2.1544    1.2688   -2.3830 H   0  0  0  0  0  0  0  0  0  0  0  0
    3.7057    1.0186   -3.1894 H   0  0  0  0  0  0  0  0  0  0  0  0
    2.7757   -0.2691   -0.5102 H   0  0  0  0  0  0  0  0  0  0  0  0
    5.6132    1.3455   -2.5552 H   0  0  0  0  0  0  0  0  0  0  0  0
    6.7280    0.3450   -1.6080 H   0  0  0  0  0  0  0  0  0  0  0  0
    6.2252    1.9696   -1.0123 H   0  0  0  0  0  0  0  0  0  0  0  0
    5.5745    0.9473    1.2087 H   0  0  0  0  0  0  0  0  0  0  0  0
    6.0675   -0.6728    0.5869 H   0  0  0  0  0  0  0  0  0  0  0  0
    3.7840   -1.5687    1.1431 H   0  0  0  0  0  0  0  0  0  0  0  0
    3.2952    0.0642    1.7183 H   0  0  0  0  0  0  0  0  0  0  0  0
    3.8524   -1.3502    3.6243 H   0  0  0  0  0  0  0  0  0  0  0  0
    4.9755    0.0446    3.4899 H   0  0  0  0  0  0  0  0  0  0  0  0
    6.7582   -1.4523    2.5420 H   0  0  0  0  0  0  0  0  0  0  0  0
    5.5388   -2.4858    5.1732 H   0  0  0  0  0  0  0  0  0  0  0  0
    6.6257   -1.0547    4.9801 H   0  0  0  0  0  0  0  0  0  0  0  0
    7.2435   -2.7024    4.6138 H   0  0  0  0  0  0  0  0  0  0  0  0
    4.7321   -3.7389    3.0426 H   0  0  0  0  0  0  0  0  0  0  0  0
    6.4694   -3.9318    2.5859 H   0  0  0  0  0  0  0  0  0  0  0  0
    5.3312   -3.1898    1.4271 H   0  0  0  0  0  0  0  0  0  0  0  0
  1  2  2  0  0  0  0
  1 43  1  0  0  0  0
  1 44  1  0  0  0  0
  2  3  1  0  0  0  0
  2 32  1  0  0  0  0
  3  4  2  0  0  0  0
  3 45  1  0  0  0  0
  4  5  1  0  0  0  0
  4 46  1  0  0  0  0
  5  6  2  0  0  0  0
  5 47  1  0  0  0  0
  6  7  1  0  0  0  0
  7  8  1  0  0  0  0
  7 48  1  0  0  0  0
  7 49  1  0  0  0  0
  8 50  1  0  0  0  0
  9  6  1  0  0  0  0
  9 10  1  0  0  0  0
  9 51  1  6  0  0  0
 10 11  1  0  0  0  0
 10 52  1  0  0  0  0
 10 53  1  0  0  0  0
 11 54  1  0  0  0  0
 11 55  1  0  0  0  0
 12 11  1  1  0  0  0
 12 13  1  0  0  0  0
 12 15  1  0  0  0  0
 13 14  1  0  0  0  0
 13  9  1  0  0  0  0
 13 56  1  6  0  0  0
 14 57  1  0  0  0  0
 15 16  1  0  0  0  0
 15 58  1  6  0  0  0
 16 17  2  0  0  0  0
 16 21  1  0  0  0  0
 17 18  1  0  0  0  0
 17 19  1  0  0  0  0
 18 59  1  0  0  0  0
 18 60  1  0  0  0  0
 18 61  1  0  0  0  0
 19 20  2  0  0  0  0
 19 62  1  0  0  0  0
 21 22  1  0  0  0  0
 21 28  1  0  0  0  0
 21 63  1  1  0  0  0
 22 23  2  0  0  0  0
 22 64  1  0  0  0  0
 23 24  1  0  0  0  0
 23 65  1  0  0  0  0
 24 25  1  0  0  0  0
 24 15  1  0  0  0  0
 24 66  1  6  0  0  0
 25 26  1  0  0  0  0
 25 67  1  0  0  0  0
 25 68  1  0  0  0  0
 26 27  1  0  0  0  0
 26 69  1  0  0  0  0
 26 70  1  0  0  0  0
 27 71  1  0  0  0  0
 28 29  1  0  0  0  0
 28 72  1  0  0  0  0
 28 73  1  0  0  0  0
 29 30  1  0  0  0  0
 29 31  1  6  0  0  0
 29 12  1  0  0  0  0
 30 74  1  0  0  0  0
 30 75  1  0  0  0  0
 30 76  1  0  0  0  0
 31 77  1  0  0  0  0
 32 33  1  0  0  0  0
 32 78  1  0  0  0  0
 32 79  1  0  0  0  0
 33 34  1  0  0  0  0
 33 80  1  0  0  0  0
 33 81  1  0  0  0  0
 34 35  2  0  0  0  0
 34 82  1  0  0  0  0
 35 36  1  0  0  0  0
 35 37  1  0  0  0  0
 36 83  1  0  0  0  0
 36 84  1  0  0  0  0
 36 85  1  0  0  0  0
 37 38  1  0  0  0  0
 37 86  1  0  0  0  0
 37 87  1  0  0  0  0
 38 39  1  0  0  0  0
 38 88  1  0  0  0  0
 38 89  1  0  0  0  0
 39 40  1  0  0  0  0
 39 90  1  0  0  0  0
 39 91  1  0  0  0  0
 40 41  1  0  0  0  0
 40 42  1  0  0  0  0
 40 92  1  0  0  0  0
 41 93  1  0  0  0  0
 41 94  1  0  0  0  0
 41 95  1  0  0  0  0
 42 96  1  0  0  0  0
 42 97  1  0  0  0  0
 42 98  1  0  0  0  0
M  END
>  <IDENTIFIER>
CNP0420769.1

>  <Energy>
900.784

$$$$
