
 OpenBabel09052518483D

129134  0  0  0  0  0  0  0  0999 V2000
  -11.4153   -1.3763   -4.1728 O   0  0  0  0  0  0  0  0  0  0  0  0
  -10.9547   -2.3826   -3.3208 C   0  0  0  0  0  0  0  0  0  0  0  0
  -10.4923   -1.8369   -1.9550 C   0  0  1  0  0  0  0  0  0  0  0  0
   -9.3911   -0.9310   -2.1148 O   0  0  0  0  0  0  0  0  0  0  0  0
   -9.6220    0.4316   -1.7395 C   0  0  2  0  0  0  0  0  0  0  0  0
   -9.4111    0.6000   -0.3463 O   0  0  0  0  0  0  0  0  0  0  0  0
   -8.0949    1.0241   -0.0396 C   0  0  2  0  0  0  0  0  0  0  0  0
   -7.0617   -0.1242   -0.2067 C   0  0  1  0  0  0  0  0  0  0  0  0
   -6.6853   -0.2313   -1.5567 O   0  0  0  0  0  0  0  0  0  0  0  0
   -5.8286    0.0287    0.7404 C   0  0  1  0  0  0  0  0  0  0  0  0
   -4.7251   -0.5962    0.1063 O   0  0  0  0  0  0  0  0  0  0  0  0
   -3.6347   -0.8585    0.9719 C   0  0  2  0  0  0  0  0  0  0  0  0
   -2.6065    0.3101    0.9512 C   0  0  1  0  0  0  0  0  0  0  0  0
   -2.8785    1.1952    2.0078 O   0  0  0  0  0  0  0  0  0  0  0  0
   -1.1269   -0.1876    0.9742 C   0  0  1  0  0  0  0  0  0  0  0  0
   -0.2997    0.8875    1.3852 O   0  0  0  0  0  0  0  0  0  0  0  0
    1.0176    0.8316    0.8549 C   0  0  2  0  0  0  0  0  0  0  0  0
    1.9950    1.2653    1.9593 C   0  0  1  0  0  0  0  0  0  0  0  0
    1.9858    0.3660    3.0400 O   0  0  0  0  0  0  0  0  0  0  0  0
    3.4292    1.4904    1.4224 C   0  0  1  0  0  0  0  0  0  0  0  0
    4.0688    0.2674    1.0576 O   0  0  0  0  0  0  0  0  0  0  0  0
    5.4157    0.2111    1.5238 C   0  0  2  0  0  0  0  0  0  0  0  0
    6.4079    0.7984    0.4821 C   0  0  1  0  0  0  0  0  0  0  0  0
    6.5073    2.1895    0.6572 O   0  0  0  0  0  0  0  0  0  0  0  0
    7.8000    0.0906    0.5365 C   0  0  1  0  0  0  0  0  0  0  0  0
    8.7715    0.9381   -0.0556 O   0  0  0  0  0  0  0  0  0  0  0  0
    9.9195    0.2427   -0.5277 C   0  0  2  0  0  0  0  0  0  0  0  0
   11.1459    0.5958    0.3350 C   0  0  1  0  0  0  0  0  0  0  0  0
   11.0015    0.1592    1.6627 O   0  0  0  0  0  0  0  0  0  0  0  0
   12.4575    0.0587   -0.2976 C   0  0  1  0  0  0  0  0  0  0  0  0
   12.6237   -1.3389   -0.2150 O   0  0  0  0  0  0  0  0  0  0  0  0
   12.6292    0.5251   -1.6285 O   0  0  0  0  0  0  0  0  0  0  0  0
   11.5594    0.1421   -2.4846 C   0  0  2  0  0  0  0  0  0  0  0  0
   11.8898    0.6852   -3.8866 C   0  0  0  0  0  0  0  0  0  0  0  0
   10.9201    0.3151   -4.8297 O   0  0  0  0  0  0  0  0  0  0  0  0
   10.2036    0.7109   -1.9684 C   0  0  1  0  0  0  0  0  0  0  0  0
    9.1337    0.3624   -2.8102 O   0  0  0  0  0  0  0  0  0  0  0  0
    8.1597   -0.2020    1.8722 O   0  0  0  0  0  0  0  0  0  0  0  0
    7.2734   -1.1443    2.4926 C   0  0  2  0  0  0  0  0  0  0  0  0
    7.9558   -2.5143    2.5980 C   0  0  0  0  0  0  0  0  0  0  0  0
    7.1710   -3.4192    3.3272 O   0  0  0  0  0  0  0  0  0  0  0  0
    5.8408   -1.2273    1.8423 C   0  0  1  0  0  0  0  0  0  0  0  0
    4.9267   -1.8665    2.7000 O   0  0  0  0  0  0  0  0  0  0  0  0
    3.4358    2.4088    0.3410 O   0  0  0  0  0  0  0  0  0  0  0  0
    2.6310    1.9717   -0.7466 C   0  0  2  0  0  0  0  0  0  0  0  0
    2.7870    3.0170   -1.8662 C   0  0  0  0  0  0  0  0  0  0  0  0
    2.0664    2.6641   -3.0159 O   0  0  0  0  0  0  0  0  0  0  0  0
    1.1441    1.8343   -0.3079 C   0  0  1  0  0  0  0  0  0  0  0  0
    0.3122    1.4543   -1.3754 O   0  0  0  0  0  0  0  0  0  0  0  0
   -0.9818   -1.2744    1.8672 O   0  0  0  0  0  0  0  0  0  0  0  0
   -1.7300   -2.4297    1.4602 C   0  0  2  0  0  0  0  0  0  0  0  0
   -0.7778   -3.4819    0.8699 C   0  0  0  0  0  0  0  0  0  0  0  0
   -1.4551   -4.6690    0.5556 O   0  0  0  0  0  0  0  0  0  0  0  0
   -2.9270   -2.1300    0.4918 C   0  0  1  0  0  0  0  0  0  0  0  0
   -3.8137   -3.2202    0.4146 O   0  0  0  0  0  0  0  0  0  0  0  0
   -5.5446    1.3917    0.9902 O   0  0  0  0  0  0  0  0  0  0  0  0
   -6.6077    2.0684    1.6777 C   0  0  2  0  0  0  0  0  0  0  0  0
   -6.3412    2.1519    3.1854 C   0  0  0  0  0  0  0  0  0  0  0  0
   -5.1018    2.7639    3.4230 O   0  0  0  0  0  0  0  0  0  0  0  0
   -8.0333    1.4858    1.4129 C   0  0  1  0  0  0  0  0  0  0  0  0
   -9.0282    2.4369    1.7115 O   0  0  0  0  0  0  0  0  0  0  0  0
  -11.0337    0.9112   -2.1325 C   0  0  2  0  0  0  0  0  0  0  0  0
  -11.2150    2.2906   -1.9352 O   0  0  0  0  0  0  0  0  0  0  0  0
  -12.1398    0.0930   -1.4327 C   0  0  1  0  0  0  0  0  0  0  0  0
  -13.3018    0.0803   -2.2281 O   0  0  0  0  0  0  0  0  0  0  0  0
  -11.6326   -1.3200   -1.0271 C   0  0  2  0  0  0  0  0  0  0  0  0
  -11.1132   -1.2354    0.2797 O   0  0  0  0  0  0  0  0  0  0  0  0
  -11.7509   -1.8351   -4.9863 H   0  0  0  0  0  0  0  0  0  0  0  0
  -10.0854   -2.8833   -3.8031 H   0  0  0  0  0  0  0  0  0  0  0  0
  -11.7570   -3.1363   -3.1518 H   0  0  0  0  0  0  0  0  0  0  0  0
  -10.0927   -2.7366   -1.4363 H   0  0  0  0  0  0  0  0  0  0  0  0
   -8.9348    1.0643   -2.3497 H   0  0  0  0  0  0  0  0  0  0  0  0
   -7.8080    1.9204   -0.6408 H   0  0  0  0  0  0  0  0  0  0  0  0
   -7.5221   -1.0945    0.0859 H   0  0  0  0  0  0  0  0  0  0  0  0
   -6.1751    0.5907   -1.7884 H   0  0  0  0  0  0  0  0  0  0  0  0
   -6.0704   -0.4693    1.7115 H   0  0  0  0  0  0  0  0  0  0  0  0
   -3.9524   -1.0855    2.0182 H   0  0  0  0  0  0  0  0  0  0  0  0
   -2.6932    0.8842    0.0023 H   0  0  0  0  0  0  0  0  0  0  0  0
   -2.6348    0.7321    2.8517 H   0  0  0  0  0  0  0  0  0  0  0  0
   -0.8585   -0.5277   -0.0556 H   0  0  0  0  0  0  0  0  0  0  0  0
    1.3172   -0.1888    0.5116 H   0  0  0  0  0  0  0  0  0  0  0  0
    1.6390    2.2515    2.3351 H   0  0  0  0  0  0  0  0  0  0  0  0
    2.2441   -0.5263    2.6896 H   0  0  0  0  0  0  0  0  0  0  0  0
    3.9362    1.9986    2.2736 H   0  0  0  0  0  0  0  0  0  0  0  0
    5.5490    0.7227    2.5070 H   0  0  0  0  0  0  0  0  0  0  0  0
    6.0385    0.6160   -0.5515 H   0  0  0  0  0  0  0  0  0  0  0  0
    6.9946    2.3469    1.5077 H   0  0  0  0  0  0  0  0  0  0  0  0
    7.7081   -0.8667   -0.0328 H   0  0  0  0  0  0  0  0  0  0  0  0
    9.7930   -0.8644   -0.5435 H   0  0  0  0  0  0  0  0  0  0  0  0
   11.2302    1.7055    0.3508 H   0  0  0  0  0  0  0  0  0  0  0  0
   10.9050   -0.8284    1.6450 H   0  0  0  0  0  0  0  0  0  0  0  0
   13.2814    0.4950    0.3071 H   0  0  0  0  0  0  0  0  0  0  0  0
   11.7938   -1.7845   -0.5129 H   0  0  0  0  0  0  0  0  0  0  0  0
   11.5147   -0.9656   -2.5696 H   0  0  0  0  0  0  0  0  0  0  0  0
   12.8929    0.3194   -4.2086 H   0  0  0  0  0  0  0  0  0  0  0  0
   11.9515    1.7942   -3.8620 H   0  0  0  0  0  0  0  0  0  0  0  0
   11.1733   -0.5833   -5.1661 H   0  0  0  0  0  0  0  0  0  0  0  0
   10.2876    1.8207   -1.9579 H   0  0  0  0  0  0  0  0  0  0  0  0
    9.0825   -0.6293   -2.8315 H   0  0  0  0  0  0  0  0  0  0  0  0
    7.1298   -0.7572    3.5261 H   0  0  0  0  0  0  0  0  0  0  0  0
    8.9538   -2.4077    3.0822 H   0  0  0  0  0  0  0  0  0  0  0  0
    8.1294   -2.9272    1.5826 H   0  0  0  0  0  0  0  0  0  0  0  0
    7.2531   -3.1598    4.2830 H   0  0  0  0  0  0  0  0  0  0  0  0
    5.8627   -1.7996    0.8885 H   0  0  0  0  0  0  0  0  0  0  0  0
    4.8333   -1.3083    3.5158 H   0  0  0  0  0  0  0  0  0  0  0  0
    3.0146    1.0019   -1.1387 H   0  0  0  0  0  0  0  0  0  0  0  0
    3.8635    3.1457   -2.1229 H   0  0  0  0  0  0  0  0  0  0  0  0
    2.4252    4.0062   -1.5102 H   0  0  0  0  0  0  0  0  0  0  0  0
    2.5938    1.9608   -3.4768 H   0  0  0  0  0  0  0  0  0  0  0  0
    0.8056    2.8323    0.0517 H   0  0  0  0  0  0  0  0  0  0  0  0
    0.6575    0.5940   -1.7304 H   0  0  0  0  0  0  0  0  0  0  0  0
   -2.1697   -2.8355    2.3977 H   0  0  0  0  0  0  0  0  0  0  0  0
    0.0504   -3.6977    1.5816 H   0  0  0  0  0  0  0  0  0  0  0  0
   -0.3142   -3.0837   -0.0577 H   0  0  0  0  0  0  0  0  0  0  0  0
   -1.6585   -5.1171    1.4176 H   0  0  0  0  0  0  0  0  0  0  0  0
   -2.5521   -1.9327   -0.5374 H   0  0  0  0  0  0  0  0  0  0  0  0
   -4.2171   -3.3464    1.3130 H   0  0  0  0  0  0  0  0  0  0  0  0
   -6.6028    3.0991    1.2603 H   0  0  0  0  0  0  0  0  0  0  0  0
   -6.3790    1.1259    3.6244 H   0  0  0  0  0  0  0  0  0  0  0  0
   -7.1338    2.7521    3.6829 H   0  0  0  0  0  0  0  0  0  0  0  0
   -4.5424    2.1105    3.9183 H   0  0  0  0  0  0  0  0  0  0  0  0
   -8.2208    0.5885    2.0455 H   0  0  0  0  0  0  0  0  0  0  0  0
   -8.9468    3.1793    1.0540 H   0  0  0  0  0  0  0  0  0  0  0  0
  -11.0901    0.7376   -3.2236 H   0  0  0  0  0  0  0  0  0  0  0  0
  -11.0549    2.4782   -0.9740 H   0  0  0  0  0  0  0  0  0  0  0  0
  -12.4321    0.5782   -0.4747 H   0  0  0  0  0  0  0  0  0  0  0  0
  -13.3083   -0.7427   -2.7777 H   0  0  0  0  0  0  0  0  0  0  0  0
  -12.4969   -2.0237   -0.9797 H   0  0  0  0  0  0  0  0  0  0  0  0
  -11.0678   -2.1586    0.6431 H   0  0  0  0  0  0  0  0  0  0  0  0
  1  2  1  0  0  0  0
  1 68  1  0  0  0  0
  2 69  1  0  0  0  0
  2 70  1  0  0  0  0
  3  2  1  0  0  0  0
  3  4  1  0  0  0  0
  3 71  1  1  0  0  0
  4  5  1  0  0  0  0
  5  6  1  0  0  0  0
  5 62  1  0  0  0  0
  5 72  1  6  0  0  0
  7  6  1  0  0  0  0
  7  8  1  0  0  0  0
  7 73  1  6  0  0  0
  8  9  1  0  0  0  0
  8 10  1  0  0  0  0
  8 74  1  1  0  0  0
  9 75  1  0  0  0  0
 10 11  1  0  0  0  0
 10 56  1  0  0  0  0
 10 76  1  1  0  0  0
 12 11  1  0  0  0  0
 12 13  1  0  0  0  0
 12 77  1  1  0  0  0
 13 14  1  0  0  0  0
 13 15  1  0  0  0  0
 13 78  1  6  0  0  0
 14 79  1  0  0  0  0
 15 16  1  0  0  0  0
 15 50  1  0  0  0  0
 15 80  1  6  0  0  0
 17 16  1  0  0  0  0
 17 18  1  0  0  0  0
 17 81  1  6  0  0  0
 18 19  1  0  0  0  0
 18 20  1  0  0  0  0
 18 82  1  1  0  0  0
 19 83  1  0  0  0  0
 20 21  1  0  0  0  0
 20 44  1  0  0  0  0
 20 84  1  1  0  0  0
 22 21  1  0  0  0  0
 22 23  1  0  0  0  0
 22 85  1  1  0  0  0
 23 24  1  0  0  0  0
 23 25  1  0  0  0  0
 23 86  1  6  0  0  0
 24 87  1  0  0  0  0
 25 26  1  0  0  0  0
 25 38  1  0  0  0  0
 25 88  1  6  0  0  0
 27 26  1  0  0  0  0
 27 28  1  0  0  0  0
 27 89  1  1  0  0  0
 28 29  1  0  0  0  0
 28 30  1  0  0  0  0
 28 90  1  1  0  0  0
 29 91  1  0  0  0  0
 30 31  1  0  0  0  0
 30 32  1  0  0  0  0
 30 92  1  1  0  0  0
 31 93  1  0  0  0  0
 32 33  1  0  0  0  0
 33 34  1  0  0  0  0
 33 36  1  0  0  0  0
 33 94  1  6  0  0  0
 34 35  1  0  0  0  0
 34 95  1  0  0  0  0
 34 96  1  0  0  0  0
 35 97  1  0  0  0  0
 36 37  1  0  0  0  0
 36 27  1  0  0  0  0
 36 98  1  1  0  0  0
 37 99  1  0  0  0  0
 38 39  1  0  0  0  0
 39 40  1  0  0  0  0
 39 42  1  0  0  0  0
 39100  1  1  0  0  0
 40 41  1  0  0  0  0
 40101  1  0  0  0  0
 40102  1  0  0  0  0
 41103  1  0  0  0  0
 42 43  1  0  0  0  0
 42 22  1  0  0  0  0
 42104  1  6  0  0  0
 43105  1  0  0  0  0
 44 45  1  0  0  0  0
 45 46  1  0  0  0  0
 45 48  1  0  0  0  0
 45106  1  6  0  0  0
 46 47  1  0  0  0  0
 46107  1  0  0  0  0
 46108  1  0  0  0  0
 47109  1  0  0  0  0
 48 49  1  0  0  0  0
 48 17  1  0  0  0  0
 48110  1  1  0  0  0
 49111  1  0  0  0  0
 50 51  1  0  0  0  0
 51 52  1  0  0  0  0
 51 54  1  0  0  0  0
 51112  1  1  0  0  0
 52 53  1  0  0  0  0
 52113  1  0  0  0  0
 52114  1  0  0  0  0
 53115  1  0  0  0  0
 54 55  1  0  0  0  0
 54 12  1  0  0  0  0
 54116  1  6  0  0  0
 55117  1  0  0  0  0
 56 57  1  0  0  0  0
 57 58  1  0  0  0  0
 57 60  1  0  0  0  0
 57118  1  6  0  0  0
 58 59  1  0  0  0  0
 58119  1  0  0  0  0
 58120  1  0  0  0  0
 59121  1  0  0  0  0
 60 61  1  0  0  0  0
 60  7  1  0  0  0  0
 60122  1  1  0  0  0
 61123  1  0  0  0  0
 62 63  1  0  0  0  0
 62 64  1  0  0  0  0
 62124  1  6  0  0  0
 63125  1  0  0  0  0
 64 65  1  0  0  0  0
 64 66  1  0  0  0  0
 64126  1  1  0  0  0
 65127  1  0  0  0  0
 66 67  1  0  0  0  0
 66  3  1  0  0  0  0
 66128  1  6  0  0  0
 67129  1  0  0  0  0
M  END
>  <IDENTIFIER>
CNP0181732.1

>  <Energy>
1750.38

$$$$
