
 OpenBabel09052518173D

 79 81  0  0  0  0  0  0  0  0999 V2000
    4.5505   -1.9181   -1.9701 C   0  0  0  0  0  0  0  0  0  0  0  0
    4.7206   -1.1042   -0.9121 C   0  0  0  0  0  0  0  0  0  0  0  0
    6.1029   -0.5071   -0.7151 C   0  0  0  0  0  0  0  0  0  0  0  0
    3.6075   -0.8028    0.1235 C   0  0  2  0  0  0  0  0  0  0  0  0
    2.6630   -1.9864    0.4735 C   0  0  0  0  0  0  0  0  0  0  0  0
    1.4359   -2.1223   -0.4435 C   0  0  0  0  0  0  0  0  0  0  0  0
    0.5650   -0.8122   -0.5967 C   0  0  2  0  0  0  0  0  0  0  0  0
    0.4141   -0.5300   -2.1248 C   0  0  0  0  0  0  0  0  0  0  0  0
    1.2748    0.3857    0.1676 C   0  0  2  0  0  0  0  0  0  0  0  0
    0.4415    1.6844    0.0426 C   0  0  0  0  0  0  0  0  0  0  0  0
   -1.0387    1.5071   -0.0708 C   0  0  0  0  0  0  0  0  0  0  0  0
   -1.7188    0.3311   -0.0964 C   0  0  0  0  0  0  0  0  0  0  0  0
   -3.2251    0.4273   -0.4868 C   0  0  2  0  0  0  0  0  0  0  0  0
   -4.0125    1.5334    0.3625 C   0  0  1  0  0  0  0  0  0  0  0  0
   -5.5012    1.7115    0.0373 C   0  0  0  0  0  0  0  0  0  0  0  0
   -3.7462    1.6107    1.8948 C   0  0  0  0  0  0  0  0  0  0  0  0
   -4.2952    0.4969    2.7707 C   0  0  0  0  0  0  0  0  0  0  0  0
   -3.8990   -0.9652   -0.8650 C   0  0  0  0  0  0  0  0  0  0  0  0
   -5.0285   -0.7853   -1.9203 C   0  0  0  0  0  0  0  0  0  0  0  0
   -4.5233   -1.7396    0.3191 C   0  0  0  0  0  0  0  0  0  0  0  0
   -2.8162   -1.8304   -1.5665 C   0  0  0  0  0  0  0  0  0  0  0  0
   -1.6778   -2.2119   -0.6198 C   0  0  0  0  0  0  0  0  0  0  0  0
   -0.9174   -0.9968    0.0418 C   0  0  1  0  0  0  0  0  0  0  0  0
   -0.8492   -1.3153    1.5737 C   0  0  0  0  0  0  0  0  0  0  0  0
    2.8584    0.6048    0.0009 C   0  0  2  0  0  0  0  0  0  0  0  0
    3.2152    1.3269   -1.3353 C   0  0  0  0  0  0  0  0  0  0  0  0
    3.2843    1.5537    1.1940 C   0  0  0  0  0  0  0  0  0  0  0  0
    4.7667    1.9333    1.3558 C   0  0  0  0  0  0  0  0  0  0  0  0
    5.0293    2.8455    2.5413 C   0  0  0  0  0  0  0  0  0  0  0  0
    6.1747    3.2054    2.7505 O   0  0  0  0  0  0  0  0  0  0  0  0
    4.0540    3.2779    3.3790 O   0  0  0  0  0  0  0  0  0  0  0  0
    5.3653   -2.1173   -2.6603 H   0  0  0  0  0  0  0  0  0  0  0  0
    3.6308   -2.4144   -2.1978 H   0  0  0  0  0  0  0  0  0  0  0  0
    6.8170   -0.8198   -1.5075 H   0  0  0  0  0  0  0  0  0  0  0  0
    6.5157   -0.8372    0.2594 H   0  0  0  0  0  0  0  0  0  0  0  0
    6.0835    0.5946   -0.7330 H   0  0  0  0  0  0  0  0  0  0  0  0
    4.1943   -0.7939    1.0661 H   0  0  0  0  0  0  0  0  0  0  0  0
    2.2674   -1.8237    1.5006 H   0  0  0  0  0  0  0  0  0  0  0  0
    3.2331   -2.9409    0.5142 H   0  0  0  0  0  0  0  0  0  0  0  0
    0.8470   -2.9713   -0.0472 H   0  0  0  0  0  0  0  0  0  0  0  0
    1.7367   -2.4897   -1.4350 H   0  0  0  0  0  0  0  0  0  0  0  0
    1.3821   -0.4739   -2.6385 H   0  0  0  0  0  0  0  0  0  0  0  0
   -0.1523    0.3976   -2.3383 H   0  0  0  0  0  0  0  0  0  0  0  0
   -0.1078   -1.3629   -2.6341 H   0  0  0  0  0  0  0  0  0  0  0  0
    1.1995    0.0992    1.2214 H   0  0  0  0  0  0  0  0  0  0  0  0
    0.6930    2.1951   -0.9029 H   0  0  0  0  0  0  0  0  0  0  0  0
    0.6410    2.3725    0.8876 H   0  0  0  0  0  0  0  0  0  0  0  0
   -1.5465    2.4457   -0.2341 H   0  0  0  0  0  0  0  0  0  0  0  0
   -3.1556    0.9033   -1.4934 H   0  0  0  0  0  0  0  0  0  0  0  0
   -3.5985    2.5017    0.0166 H   0  0  0  0  0  0  0  0  0  0  0  0
   -6.1102    0.8567    0.3803 H   0  0  0  0  0  0  0  0  0  0  0  0
   -5.6365    1.8794   -1.0518 H   0  0  0  0  0  0  0  0  0  0  0  0
   -5.8949    2.6170    0.5476 H   0  0  0  0  0  0  0  0  0  0  0  0
   -4.2032    2.5562    2.2631 H   0  0  0  0  0  0  0  0  0  0  0  0
   -2.6563    1.6980    2.0879 H   0  0  0  0  0  0  0  0  0  0  0  0
   -5.3883    0.3884    2.6408 H   0  0  0  0  0  0  0  0  0  0  0  0
   -4.0923    0.7473    3.8339 H   0  0  0  0  0  0  0  0  0  0  0  0
   -3.7762   -0.4470    2.5692 H   0  0  0  0  0  0  0  0  0  0  0  0
   -5.9182   -0.2658   -1.5346 H   0  0  0  0  0  0  0  0  0  0  0  0
   -5.4002   -1.7755   -2.2641 H   0  0  0  0  0  0  0  0  0  0  0  0
   -4.6590   -0.2427   -2.8170 H   0  0  0  0  0  0  0  0  0  0  0  0
   -5.3526   -1.1744    0.7797 H   0  0  0  0  0  0  0  0  0  0  0  0
   -3.8048   -1.9896    1.1076 H   0  0  0  0  0  0  0  0  0  0  0  0
   -4.9485   -2.7037   -0.0345 H   0  0  0  0  0  0  0  0  0  0  0  0
   -2.4099   -1.2856   -2.4456 H   0  0  0  0  0  0  0  0  0  0  0  0
   -3.2667   -2.7769   -1.9419 H   0  0  0  0  0  0  0  0  0  0  0  0
   -0.9935   -2.8931   -1.1606 H   0  0  0  0  0  0  0  0  0  0  0  0
   -2.1125   -2.8824    0.1489 H   0  0  0  0  0  0  0  0  0  0  0  0
   -0.2386   -2.2158    1.7828 H   0  0  0  0  0  0  0  0  0  0  0  0
   -1.8532   -1.5167    1.9824 H   0  0  0  0  0  0  0  0  0  0  0  0
   -0.4891   -0.4783    2.1998 H   0  0  0  0  0  0  0  0  0  0  0  0
    2.7316    2.3170   -1.4238 H   0  0  0  0  0  0  0  0  0  0  0  0
    2.9825    0.7328   -2.2263 H   0  0  0  0  0  0  0  0  0  0  0  0
    4.2888    1.5475   -1.4155 H   0  0  0  0  0  0  0  0  0  0  0  0
    2.9751    1.0676    2.1462 H   0  0  0  0  0  0  0  0  0  0  0  0
    2.7519    2.5184    1.0904 H   0  0  0  0  0  0  0  0  0  0  0  0
    5.1176    2.4640    0.4470 H   0  0  0  0  0  0  0  0  0  0  0  0
    5.3789    1.0234    1.5072 H   0  0  0  0  0  0  0  0  0  0  0  0
    3.1230    3.0486    3.2985 H   0  0  0  0  0  0  0  0  0  0  0  0
  1  2  2  0  0  0  0
  1 32  1  0  0  0  0
  1 33  1  0  0  0  0
  2  3  1  0  0  0  0
  3 34  1  0  0  0  0
  3 35  1  0  0  0  0
  3 36  1  0  0  0  0
  4  2  1  0  0  0  0
  4  5  1  0  0  0  0
  4 37  1  1  0  0  0
  5  6  1  0  0  0  0
  5 38  1  0  0  0  0
  5 39  1  0  0  0  0
  6  7  1  0  0  0  0
  6 40  1  0  0  0  0
  6 41  1  0  0  0  0
  7  8  1  6  0  0  0
  7  9  1  0  0  0  0
  8 42  1  0  0  0  0
  8 43  1  0  0  0  0
  8 44  1  0  0  0  0
  9 10  1  0  0  0  0
  9 25  1  0  0  0  0
  9 45  1  1  0  0  0
 10 11  1  0  0  0  0
 10 46  1  0  0  0  0
 10 47  1  0  0  0  0
 11 12  2  0  0  0  0
 11 48  1  0  0  0  0
 12 13  1  0  0  0  0
 13 14  1  0  0  0  0
 13 18  1  0  0  0  0
 13 49  1  6  0  0  0
 14 15  1  0  0  0  0
 14 16  1  0  0  0  0
 14 50  1  6  0  0  0
 15 51  1  0  0  0  0
 15 52  1  0  0  0  0
 15 53  1  0  0  0  0
 16 17  1  0  0  0  0
 16 54  1  0  0  0  0
 16 55  1  0  0  0  0
 17 56  1  0  0  0  0
 17 57  1  0  0  0  0
 17 58  1  0  0  0  0
 18 19  1  0  0  0  0
 18 20  1  0  0  0  0
 18 21  1  0  0  0  0
 19 59  1  0  0  0  0
 19 60  1  0  0  0  0
 19 61  1  0  0  0  0
 20 62  1  0  0  0  0
 20 63  1  0  0  0  0
 20 64  1  0  0  0  0
 21 22  1  0  0  0  0
 21 65  1  0  0  0  0
 21 66  1  0  0  0  0
 22 23  1  0  0  0  0
 22 67  1  0  0  0  0
 22 68  1  0  0  0  0
 23 24  1  1  0  0  0
 23  7  1  0  0  0  0
 23 12  1  0  0  0  0
 24 69  1  0  0  0  0
 24 70  1  0  0  0  0
 24 71  1  0  0  0  0
 25 26  1  6  0  0  0
 25 27  1  0  0  0  0
 25  4  1  0  0  0  0
 26 72  1  0  0  0  0
 26 73  1  0  0  0  0
 26 74  1  0  0  0  0
 27 28  1  0  0  0  0
 27 75  1  0  0  0  0
 27 76  1  0  0  0  0
 28 29  1  0  0  0  0
 28 77  1  0  0  0  0
 28 78  1  0  0  0  0
 29 30  2  0  0  0  0
 29 31  1  0  0  0  0
 31 79  1  0  0  0  0
M  END
>  <IDENTIFIER>
CNP0127702.1

>  <Energy>
1021.69

$$$$
