
 OpenBabel09072506413D

 51 53  0  0  0  0  0  0  0  0999 V2000
   -2.7630   -3.5066   -0.5113 C   0  0  0  0  0  0  0  0  0  0  0  0
   -1.3883   -2.9902   -0.0830 C   0  0  0  0  0  0  0  0  0  0  0  0
   -1.2434   -1.4441   -0.0885 C   0  0  1  0  0  0  0  0  0  0  0  0
   -2.2708   -0.7778    0.8657 C   0  0  0  0  0  0  0  0  0  0  0  0
   -2.2994    0.7802    1.0383 C   0  0  2  0  0  0  0  0  0  0  0  0
   -3.6075    1.1094    1.7945 C   0  0  0  0  0  0  0  0  0  0  0  0
   -2.1309    1.6140   -0.3026 C   0  0  2  0  0  0  0  0  0  0  0  0
   -2.7224    3.0457   -0.2213 C   0  0  0  0  0  0  0  0  0  0  0  0
   -2.7265    0.9560   -1.3924 O   0  0  0  0  0  0  0  0  0  0  0  0
   -0.6401    1.8145   -0.5532 C   0  0  0  0  0  0  0  0  0  0  0  0
   -0.0103    2.4682    0.2688 O   0  0  0  0  0  0  0  0  0  0  0  0
   -0.0049    1.3288   -1.6616 O   0  0  0  0  0  0  0  0  0  0  0  0
    1.2954    1.6921   -2.0002 C   0  0  0  0  0  0  0  0  0  0  0  0
    2.2861    1.3341   -0.9124 C   0  0  0  0  0  0  0  0  0  0  0  0
    2.8794    2.2069   -0.0839 C   0  0  0  0  0  0  0  0  0  0  0  0
    3.7625    1.4713    0.8988 C   0  0  0  0  0  0  0  0  0  0  0  0
    3.2923    0.0995    0.7370 N   0  0  2  0  0  0  0  0  0  0  0  0
    4.1109   -1.0882    0.9162 C   0  0  0  0  0  0  0  0  0  0  0  0
    3.2086   -2.1551    0.2638 C   0  0  0  0  0  0  0  0  0  0  0  0
    2.4536   -1.3935   -0.8649 C   0  0  1  0  0  0  0  0  0  0  0  0
    1.0810   -1.5371   -0.7859 O   0  0  0  0  0  0  0  0  0  0  0  0
    0.2042   -1.1362    0.1759 C   0  0  0  0  0  0  0  0  0  0  0  0
    0.5673   -0.5210    1.1669 O   0  0  0  0  0  0  0  0  0  0  0  0
    2.9386    0.0275   -0.6563 C   0  0  1  0  0  0  0  0  0  0  0  0
   -2.7451   -4.6161   -0.5252 H   0  0  0  0  0  0  0  0  0  0  0  0
   -3.0082   -3.1408   -1.5310 H   0  0  0  0  0  0  0  0  0  0  0  0
   -3.5561   -3.2004    0.1990 H   0  0  0  0  0  0  0  0  0  0  0  0
   -0.6505   -3.4270   -0.7917 H   0  0  0  0  0  0  0  0  0  0  0  0
   -1.1594   -3.3825    0.9332 H   0  0  0  0  0  0  0  0  0  0  0  0
   -1.4534   -1.0795   -1.1140 H   0  0  0  0  0  0  0  0  0  0  0  0
   -2.1882   -1.2331    1.8771 H   0  0  0  0  0  0  0  0  0  0  0  0
   -3.2626   -1.0488    0.4528 H   0  0  0  0  0  0  0  0  0  0  0  0
   -1.4875    1.0800    1.7360 H   0  0  0  0  0  0  0  0  0  0  0  0
   -4.4974    0.8710    1.1734 H   0  0  0  0  0  0  0  0  0  0  0  0
   -3.6468    2.1789    2.0869 H   0  0  0  0  0  0  0  0  0  0  0  0
   -3.6661    0.5248    2.7377 H   0  0  0  0  0  0  0  0  0  0  0  0
   -3.8256    3.0179   -0.0948 H   0  0  0  0  0  0  0  0  0  0  0  0
   -2.5193    3.5984   -1.1654 H   0  0  0  0  0  0  0  0  0  0  0  0
   -2.2859    3.6203    0.6243 H   0  0  0  0  0  0  0  0  0  0  0  0
   -3.6956    0.8647   -1.1961 H   0  0  0  0  0  0  0  0  0  0  0  0
    1.3107    2.7933   -2.1621 H   0  0  0  0  0  0  0  0  0  0  0  0
    1.5990    1.2123   -2.9543 H   0  0  0  0  0  0  0  0  0  0  0  0
    2.7125    3.2758   -0.0861 H   0  0  0  0  0  0  0  0  0  0  0  0
    3.5476    1.7913    1.9392 H   0  0  0  0  0  0  0  0  0  0  0  0
    4.8370    1.6061    0.6462 H   0  0  0  0  0  0  0  0  0  0  0  0
    4.3388   -1.3083    1.9803 H   0  0  0  0  0  0  0  0  0  0  0  0
    5.0649   -0.9837    0.3480 H   0  0  0  0  0  0  0  0  0  0  0  0
    2.4579   -2.4363    1.0387 H   0  0  0  0  0  0  0  0  0  0  0  0
    3.7331   -3.0823   -0.0499 H   0  0  0  0  0  0  0  0  0  0  0  0
    2.7715   -1.7332   -1.8741 H   0  0  0  0  0  0  0  0  0  0  0  0
    3.8893    0.0901   -1.2557 H   0  0  0  0  0  0  0  0  0  0  0  0
  1  2  1  0  0  0  0
  1 25  1  0  0  0  0
  1 26  1  0  0  0  0
  1 27  1  0  0  0  0
  2 28  1  0  0  0  0
  2 29  1  0  0  0  0
  3  2  1  0  0  0  0
  3  4  1  0  0  0  0
  3 30  1  6  0  0  0
  4  5  1  0  0  0  0
  4 31  1  0  0  0  0
  4 32  1  0  0  0  0
  5  6  1  0  0  0  0
  5  7  1  0  0  0  0
  5 33  1  1  0  0  0
  6 34  1  0  0  0  0
  6 35  1  0  0  0  0
  6 36  1  0  0  0  0
  7  8  1  0  0  0  0
  7  9  1  6  0  0  0
  7 10  1  0  0  0  0
  8 37  1  0  0  0  0
  8 38  1  0  0  0  0
  8 39  1  0  0  0  0
  9 40  1  0  0  0  0
 10 11  2  0  0  0  0
 10 12  1  0  0  0  0
 12 13  1  0  0  0  0
 13 14  1  0  0  0  0
 13 41  1  0  0  0  0
 13 42  1  0  0  0  0
 14 15  2  0  0  0  0
 15 16  1  0  0  0  0
 15 43  1  0  0  0  0
 16 44  1  0  0  0  0
 16 45  1  0  0  0  0
 17 16  1  6  0  0  0
 17 18  1  0  0  0  0
 18 19  1  0  0  0  0
 18 46  1  0  0  0  0
 18 47  1  0  0  0  0
 19 48  1  0  0  0  0
 19 49  1  0  0  0  0
 20 19  1  0  0  0  0
 20 21  1  0  0  0  0
 20 24  1  0  0  0  0
 20 50  1  6  0  0  0
 21 22  1  0  0  0  0
 22 23  2  0  0  0  0
 22  3  1  0  0  0  0
 24 14  1  0  0  0  0
 24 17  1  0  0  0  0
 24 51  1  6  0  0  0
M  END
>  <IDENTIFIER>
CNP0145159.1

>  <Energy>
730.072

$$$$
