
 OpenBabel09092522293D

134138  0  0  0  0  0  0  0  0999 V2000
   15.1742    1.7135    4.7251 C   0  0  0  0  0  0  0  0  0  0  0  0
   14.7867    1.5211    3.2622 C   0  0  0  0  0  0  0  0  0  0  0  0
   13.8507    0.3136    3.0943 C   0  0  0  0  0  0  0  0  0  0  0  0
   13.4824    0.0265    1.6287 C   0  0  0  0  0  0  0  0  0  0  0  0
   12.6686    1.1597    0.9784 C   0  0  0  0  0  0  0  0  0  0  0  0
   12.3082    0.8891   -0.4907 C   0  0  0  0  0  0  0  0  0  0  0  0
   11.3635   -0.3104   -0.6794 C   0  0  0  0  0  0  0  0  0  0  0  0
   10.9876   -0.5478   -2.1547 C   0  0  0  0  0  0  0  0  0  0  0  0
   10.2661    0.6243   -2.8492 C   0  0  0  0  0  0  0  0  0  0  0  0
    8.9456    0.9977   -2.1633 C   0  0  0  0  0  0  0  0  0  0  0  0
    8.2221    2.1159   -2.9302 C   0  0  0  0  0  0  0  0  0  0  0  0
    6.8998    2.5468   -2.2702 C   0  0  0  0  0  0  0  0  0  0  0  0
    5.8847    1.3993   -2.1987 C   0  0  0  0  0  0  0  0  0  0  0  0
    4.5336    1.8637   -1.6402 C   0  0  0  0  0  0  0  0  0  0  0  0
    3.5532    0.6953   -1.4407 C   0  0  0  0  0  0  0  0  0  0  0  0
    3.1962   -0.0338   -2.7526 C   0  0  0  0  0  0  0  0  0  0  0  0
    2.2588   -1.2290   -2.5256 C   0  0  0  0  0  0  0  0  0  0  0  0
    0.8768   -0.8709   -2.0561 C   0  0  0  0  0  0  0  0  0  0  0  0
    0.5371    0.2963   -1.9178 O   0  0  0  0  0  0  0  0  0  0  0  0
    0.0063   -1.8834   -1.8164 O   0  0  0  0  0  0  0  0  0  0  0  0
   -1.2981   -1.7371   -1.3701 C   0  0  1  0  0  0  0  0  0  0  0  0
   -2.2357   -2.2523   -2.4618 C   0  0  0  0  0  0  0  0  0  0  0  0
   -3.6612   -1.9134   -2.0695 C   0  0  0  0  0  0  0  0  0  0  0  0
   -4.1586   -2.5491   -0.7195 C   0  0  1  0  0  0  0  0  0  0  0  0
   -4.4862   -4.0430   -0.9845 C   0  0  0  0  0  0  0  0  0  0  0  0
   -3.0413   -2.4413    0.4317 C   0  0  2  0  0  0  0  0  0  0  0  0
   -3.4013   -1.3349    1.4742 C   0  0  0  0  0  0  0  0  0  0  0  0
   -4.7518   -1.7141    2.1339 C   0  0  0  0  0  0  0  0  0  0  0  0
   -5.9746   -1.6855    1.1547 C   0  0  2  0  0  0  0  0  0  0  0  0
   -6.8366   -2.9581    1.4425 C   0  0  0  0  0  0  0  0  0  0  0  0
   -5.4560   -1.6909   -0.3249 C   0  0  2  0  0  0  0  0  0  0  0  0
   -6.6381   -1.7729   -1.3070 C   0  0  0  0  0  0  0  0  0  0  0  0
   -7.7814   -0.8714   -0.9244 C   0  0  0  0  0  0  0  0  0  0  0  0
   -7.8895   -0.1456    0.2276 C   0  0  0  0  0  0  0  0  0  0  0  0
   -9.2197    0.6246    0.4576 C   0  0  2  0  0  0  0  0  0  0  0  0
   -9.7316    1.4729   -0.7928 C   0  0  1  0  0  0  0  0  0  0  0  0
  -11.2308    1.2520   -1.0937 C   0  0  0  0  0  0  0  0  0  0  0  0
   -9.4206    2.9866   -0.7062 C   0  0  2  0  0  0  0  0  0  0  0  0
   -7.9331    3.2829   -0.9630 C   0  0  0  0  0  0  0  0  0  0  0  0
   -9.9303    3.5609    0.6305 C   0  0  0  0  0  0  0  0  0  0  0  0
   -9.2438    2.8842    1.8163 C   0  0  0  0  0  0  0  0  0  0  0  0
   -9.4431    1.3313    1.8821 C   0  0  1  0  0  0  0  0  0  0  0  0
  -10.8909    1.0396    2.3674 C   0  0  0  0  0  0  0  0  0  0  0  0
   -8.4806    0.8145    3.0150 C   0  0  0  0  0  0  0  0  0  0  0  0
   -7.7028   -0.4526    2.6793 C   0  0  0  0  0  0  0  0  0  0  0  0
   -6.8596   -0.3331    1.3612 C   0  0  1  0  0  0  0  0  0  0  0  0
   -5.9386    0.9343    1.4206 C   0  0  0  0  0  0  0  0  0  0  0  0
   -1.5074   -2.5017   -0.0343 C   0  0  0  0  0  0  0  0  0  0  0  0
   -0.5586   -1.8775    1.0261 C   0  0  0  0  0  0  0  0  0  0  0  0
   -1.0359   -3.9802   -0.1766 C   0  0  0  0  0  0  0  0  0  0  0  0
   15.8517    2.5884    4.8178 H   0  0  0  0  0  0  0  0  0  0  0  0
   15.7013    0.8133    5.1068 H   0  0  0  0  0  0  0  0  0  0  0  0
   14.2689    1.8970    5.3422 H   0  0  0  0  0  0  0  0  0  0  0  0
   15.7103    1.3612    2.6645 H   0  0  0  0  0  0  0  0  0  0  0  0
   14.2904    2.4510    2.9167 H   0  0  0  0  0  0  0  0  0  0  0  0
   12.9218    0.4693    3.6860 H   0  0  0  0  0  0  0  0  0  0  0  0
   14.3678   -0.5872    3.4920 H   0  0  0  0  0  0  0  0  0  0  0  0
   12.8798   -0.9049    1.6259 H   0  0  0  0  0  0  0  0  0  0  0  0
   14.4105   -0.1544    1.0437 H   0  0  0  0  0  0  0  0  0  0  0  0
   13.2702    2.0913    0.9868 H   0  0  0  0  0  0  0  0  0  0  0  0
   11.7380    1.3384    1.5606 H   0  0  0  0  0  0  0  0  0  0  0  0
   13.2375    0.7350   -1.0815 H   0  0  0  0  0  0  0  0  0  0  0  0
   11.8043    1.8049   -0.8628 H   0  0  0  0  0  0  0  0  0  0  0  0
   10.4456   -0.1636   -0.0725 H   0  0  0  0  0  0  0  0  0  0  0  0
   11.8577   -1.2361   -0.3201 H   0  0  0  0  0  0  0  0  0  0  0  0
   10.3324   -1.4453   -2.2030 H   0  0  0  0  0  0  0  0  0  0  0  0
   11.9125   -0.7758   -2.7279 H   0  0  0  0  0  0  0  0  0  0  0  0
   10.0497    0.3112   -3.8943 H   0  0  0  0  0  0  0  0  0  0  0  0
   10.9295    1.5122   -2.9010 H   0  0  0  0  0  0  0  0  0  0  0  0
    9.1377    1.3500   -1.1282 H   0  0  0  0  0  0  0  0  0  0  0  0
    8.3151    0.0859   -2.1295 H   0  0  0  0  0  0  0  0  0  0  0  0
    8.0164    1.7788   -3.9700 H   0  0  0  0  0  0  0  0  0  0  0  0
    8.8866    3.0061   -2.9793 H   0  0  0  0  0  0  0  0  0  0  0  0
    6.4696    3.3700   -2.8817 H   0  0  0  0  0  0  0  0  0  0  0  0
    7.0972    2.9379   -1.2480 H   0  0  0  0  0  0  0  0  0  0  0  0
    6.2720    0.6004   -1.5336 H   0  0  0  0  0  0  0  0  0  0  0  0
    5.7492    0.9966   -3.2231 H   0  0  0  0  0  0  0  0  0  0  0  0
    4.0855    2.6259   -2.3147 H   0  0  0  0  0  0  0  0  0  0  0  0
    4.7007    2.3327   -0.6456 H   0  0  0  0  0  0  0  0  0  0  0  0
    2.6366    1.1085   -0.9734 H   0  0  0  0  0  0  0  0  0  0  0  0
    3.9997   -0.0311   -0.7267 H   0  0  0  0  0  0  0  0  0  0  0  0
    4.1202   -0.4542   -3.1978 H   0  0  0  0  0  0  0  0  0  0  0  0
    2.7447    0.6730   -3.4826 H   0  0  0  0  0  0  0  0  0  0  0  0
    2.7255   -1.9165   -1.7873 H   0  0  0  0  0  0  0  0  0  0  0  0
    2.1487   -1.7776   -3.4856 H   0  0  0  0  0  0  0  0  0  0  0  0
   -1.5313   -0.6598   -1.2006 H   0  0  0  0  0  0  0  0  0  0  0  0
   -2.1074   -3.3338   -2.6641 H   0  0  0  0  0  0  0  0  0  0  0  0
   -2.0093   -1.7183   -3.4105 H   0  0  0  0  0  0  0  0  0  0  0  0
   -4.3326   -2.1935   -2.9085 H   0  0  0  0  0  0  0  0  0  0  0  0
   -3.6719   -0.8025   -2.0084 H   0  0  0  0  0  0  0  0  0  0  0  0
   -3.6243   -4.5964   -1.3826 H   0  0  0  0  0  0  0  0  0  0  0  0
   -5.2826   -4.1541   -1.7466 H   0  0  0  0  0  0  0  0  0  0  0  0
   -4.7955   -4.5721   -0.0682 H   0  0  0  0  0  0  0  0  0  0  0  0
   -3.1421   -3.3385    1.0816 H   0  0  0  0  0  0  0  0  0  0  0  0
   -3.3930   -0.3176    1.0320 H   0  0  0  0  0  0  0  0  0  0  0  0
   -2.6769   -1.3429    2.3124 H   0  0  0  0  0  0  0  0  0  0  0  0
   -4.9424   -1.1265    3.0515 H   0  0  0  0  0  0  0  0  0  0  0  0
   -4.6116   -2.7423    2.5371 H   0  0  0  0  0  0  0  0  0  0  0  0
   -6.2784   -3.8876    1.2575 H   0  0  0  0  0  0  0  0  0  0  0  0
   -7.7633   -2.9880    0.8350 H   0  0  0  0  0  0  0  0  0  0  0  0
   -7.1286   -3.0170    2.5108 H   0  0  0  0  0  0  0  0  0  0  0  0
   -5.0847   -0.6678   -0.4467 H   0  0  0  0  0  0  0  0  0  0  0  0
   -7.0381   -2.8045   -1.3712 H   0  0  0  0  0  0  0  0  0  0  0  0
   -6.3092   -1.4668   -2.3190 H   0  0  0  0  0  0  0  0  0  0  0  0
   -8.5806   -0.8622   -1.6547 H   0  0  0  0  0  0  0  0  0  0  0  0
   -9.8663   -0.2826    0.4704 H   0  0  0  0  0  0  0  0  0  0  0  0
   -9.2685    1.1099   -1.7291 H   0  0  0  0  0  0  0  0  0  0  0  0
  -11.9156    1.6497   -0.3339 H   0  0  0  0  0  0  0  0  0  0  0  0
  -11.4367    0.1693   -1.2315 H   0  0  0  0  0  0  0  0  0  0  0  0
  -11.4974    1.7601   -2.0459 H   0  0  0  0  0  0  0  0  0  0  0  0
   -9.9554    3.5135   -1.5285 H   0  0  0  0  0  0  0  0  0  0  0  0
   -7.2698    2.7720   -0.2523 H   0  0  0  0  0  0  0  0  0  0  0  0
   -7.7461    4.3767   -0.9067 H   0  0  0  0  0  0  0  0  0  0  0  0
   -7.6502    2.9382   -1.9801 H   0  0  0  0  0  0  0  0  0  0  0  0
  -11.0284    3.4413    0.7139 H   0  0  0  0  0  0  0  0  0  0  0  0
   -9.7247    4.6532    0.6654 H   0  0  0  0  0  0  0  0  0  0  0  0
   -9.5883    3.3507    2.7659 H   0  0  0  0  0  0  0  0  0  0  0  0
   -8.1768    3.1471    1.7351 H   0  0  0  0  0  0  0  0  0  0  0  0
  -11.0736    1.5031    3.3610 H   0  0  0  0  0  0  0  0  0  0  0  0
  -11.0523   -0.0551    2.4721 H   0  0  0  0  0  0  0  0  0  0  0  0
  -11.6696    1.4406    1.7092 H   0  0  0  0  0  0  0  0  0  0  0  0
   -9.0118    0.6895    3.9845 H   0  0  0  0  0  0  0  0  0  0  0  0
   -7.7195    1.5768    3.2754 H   0  0  0  0  0  0  0  0  0  0  0  0
   -8.4534   -1.2665    2.5924 H   0  0  0  0  0  0  0  0  0  0  0  0
   -7.0508   -0.6767    3.5483 H   0  0  0  0  0  0  0  0  0  0  0  0
   -6.4966    1.8598    1.5628 H   0  0  0  0  0  0  0  0  0  0  0  0
   -5.3676    1.1246    0.4955 H   0  0  0  0  0  0  0  0  0  0  0  0
   -5.2264    0.8962    2.2665 H   0  0  0  0  0  0  0  0  0  0  0  0
   -0.6545   -2.3960    2.0040 H   0  0  0  0  0  0  0  0  0  0  0  0
   -0.7696   -0.7955    1.1634 H   0  0  0  0  0  0  0  0  0  0  0  0
    0.5053   -1.9545    0.7127 H   0  0  0  0  0  0  0  0  0  0  0  0
   -1.1434   -4.5152    0.7917 H   0  0  0  0  0  0  0  0  0  0  0  0
    0.0390   -4.0272   -0.4565 H   0  0  0  0  0  0  0  0  0  0  0  0
   -1.5765   -4.5615   -0.9338 H   0  0  0  0  0  0  0  0  0  0  0  0
  1  2  1  0  0  0  0
  1 51  1  0  0  0  0
  1 52  1  0  0  0  0
  1 53  1  0  0  0  0
  2  3  1  0  0  0  0
  2 54  1  0  0  0  0
  2 55  1  0  0  0  0
  3  4  1  0  0  0  0
  3 56  1  0  0  0  0
  3 57  1  0  0  0  0
  4  5  1  0  0  0  0
  4 58  1  0  0  0  0
  4 59  1  0  0  0  0
  5  6  1  0  0  0  0
  5 60  1  0  0  0  0
  5 61  1  0  0  0  0
  6  7  1  0  0  0  0
  6 62  1  0  0  0  0
  6 63  1  0  0  0  0
  7  8  1  0  0  0  0
  7 64  1  0  0  0  0
  7 65  1  0  0  0  0
  8  9  1  0  0  0  0
  8 66  1  0  0  0  0
  8 67  1  0  0  0  0
  9 10  1  0  0  0  0
  9 68  1  0  0  0  0
  9 69  1  0  0  0  0
 10 11  1  0  0  0  0
 10 70  1  0  0  0  0
 10 71  1  0  0  0  0
 11 12  1  0  0  0  0
 11 72  1  0  0  0  0
 11 73  1  0  0  0  0
 12 13  1  0  0  0  0
 12 74  1  0  0  0  0
 12 75  1  0  0  0  0
 13 14  1  0  0  0  0
 13 76  1  0  0  0  0
 13 77  1  0  0  0  0
 14 15  1  0  0  0  0
 14 78  1  0  0  0  0
 14 79  1  0  0  0  0
 15 16  1  0  0  0  0
 15 80  1  0  0  0  0
 15 81  1  0  0  0  0
 16 17  1  0  0  0  0
 16 82  1  0  0  0  0
 16 83  1  0  0  0  0
 17 18  1  0  0  0  0
 17 84  1  0  0  0  0
 17 85  1  0  0  0  0
 18 19  2  0  0  0  0
 18 20  1  0  0  0  0
 21 20  1  0  0  0  0
 21 22  1  0  0  0  0
 21 86  1  1  0  0  0
 22 23  1  0  0  0  0
 22 87  1  0  0  0  0
 22 88  1  0  0  0  0
 23 24  1  0  0  0  0
 23 89  1  0  0  0  0
 23 90  1  0  0  0  0
 24 25  1  6  0  0  0
 24 26  1  0  0  0  0
 25 91  1  0  0  0  0
 25 92  1  0  0  0  0
 25 93  1  0  0  0  0
 26 27  1  0  0  0  0
 26 48  1  0  0  0  0
 26 94  1  1  0  0  0
 27 28  1  0  0  0  0
 27 95  1  0  0  0  0
 27 96  1  0  0  0  0
 28 29  1  0  0  0  0
 28 97  1  0  0  0  0
 28 98  1  0  0  0  0
 29 30  1  1  0  0  0
 29 31  1  0  0  0  0
 30 99  1  0  0  0  0
 30100  1  0  0  0  0
 30101  1  0  0  0  0
 31 32  1  0  0  0  0
 31 24  1  0  0  0  0
 31102  1  6  0  0  0
 32 33  1  0  0  0  0
 32103  1  0  0  0  0
 32104  1  0  0  0  0
 33 34  2  0  0  0  0
 33105  1  0  0  0  0
 35 34  1  0  0  0  0
 35 36  1  0  0  0  0
 35106  1  1  0  0  0
 36 37  1  0  0  0  0
 36 38  1  0  0  0  0
 36107  1  6  0  0  0
 37108  1  0  0  0  0
 37109  1  0  0  0  0
 37110  1  0  0  0  0
 38 39  1  0  0  0  0
 38 40  1  0  0  0  0
 38111  1  6  0  0  0
 39112  1  0  0  0  0
 39113  1  0  0  0  0
 39114  1  0  0  0  0
 40 41  1  0  0  0  0
 40115  1  0  0  0  0
 40116  1  0  0  0  0
 41 42  1  0  0  0  0
 41117  1  0  0  0  0
 41118  1  0  0  0  0
 42 43  1  1  0  0  0
 42 44  1  0  0  0  0
 42 35  1  0  0  0  0
 43119  1  0  0  0  0
 43120  1  0  0  0  0
 43121  1  0  0  0  0
 44 45  1  0  0  0  0
 44122  1  0  0  0  0
 44123  1  0  0  0  0
 45 46  1  0  0  0  0
 45124  1  0  0  0  0
 45125  1  0  0  0  0
 46 47  1  1  0  0  0
 46 34  1  0  0  0  0
 46 29  1  0  0  0  0
 47126  1  0  0  0  0
 47127  1  0  0  0  0
 47128  1  0  0  0  0
 48 49  1  0  0  0  0
 48 50  1  0  0  0  0
 48 21  1  0  0  0  0
 49129  1  0  0  0  0
 49130  1  0  0  0  0
 49131  1  0  0  0  0
 50132  1  0  0  0  0
 50133  1  0  0  0  0
 50134  1  0  0  0  0
M  END
>  <IDENTIFIER>
CNP0287885.2

>  <Energy>
1181.03

$$$$
