
 OpenBabel09052506103D

 54 57  0  0  0  0  0  0  0  0999 V2000
   -7.4776    3.2790    1.6911 N   0  0  0  0  0  0  0  0  0  0  0  0
   -6.6081    2.4130    0.8875 C   0  0  1  0  0  0  0  0  0  0  0  0
   -6.5919    0.9891    1.5006 C   0  0  0  0  0  0  0  0  0  0  0  0
   -5.5986    0.0610    0.8466 C   0  0  0  0  0  0  0  0  0  0  0  0
   -6.0418   -1.0591    0.1343 C   0  0  0  0  0  0  0  0  0  0  0  0
   -5.1220   -1.9120   -0.4877 C   0  0  0  0  0  0  0  0  0  0  0  0
   -5.5570   -2.9818   -1.1870 O   0  0  0  0  0  0  0  0  0  0  0  0
   -3.7429   -1.6600   -0.3901 C   0  0  0  0  0  0  0  0  0  0  0  0
   -2.8625   -2.5536   -1.0450 N   0  0  0  0  0  0  0  0  0  0  0  0
   -1.5774   -2.5239   -1.0607 C   0  0  0  0  0  0  0  0  0  0  0  0
   -0.7416   -1.5062   -0.3497 C   0  0  0  0  0  0  0  0  0  0  0  0
    0.6348   -1.5493   -0.3495 C   0  0  0  0  0  0  0  0  0  0  0  0
    1.4077   -2.6048   -1.0764 C   0  0  0  0  0  0  0  0  0  0  0  0
    2.6909   -2.6865   -1.0998 N   0  0  0  0  0  0  0  0  0  0  0  0
    3.6285   -1.8412   -0.4593 C   0  0  0  0  0  0  0  0  0  0  0  0
    5.0025   -2.1288   -0.6141 C   0  0  0  0  0  0  0  0  0  0  0  0
    5.4251   -3.1725   -1.3610 O   0  0  0  0  0  0  0  0  0  0  0  0
    5.9624   -1.3283    0.0094 C   0  0  0  0  0  0  0  0  0  0  0  0
    5.5770   -0.2337    0.7912 C   0  0  0  0  0  0  0  0  0  0  0  0
    6.6208    0.6255    1.4669 C   0  0  0  0  0  0  0  0  0  0  0  0
    7.0740    1.8299    0.6126 C   0  0  2  0  0  0  0  0  0  0  0  0
    5.9522    2.7475    0.3846 N   0  0  0  0  0  0  0  0  0  0  0  0
    7.7173    1.3885   -0.6920 C   0  0  0  0  0  0  0  0  0  0  0  0
    7.2522    1.7414   -1.7654 O   0  0  0  0  0  0  0  0  0  0  0  0
    8.8215    0.6111   -0.6845 O   0  0  0  0  0  0  0  0  0  0  0  0
    4.2134    0.0503    0.9432 C   0  0  0  0  0  0  0  0  0  0  0  0
    3.2382   -0.7414    0.3217 C   0  0  0  0  0  0  0  0  0  0  0  0
    1.5290   -0.2661    0.5750 S   0  0  0  0  0  0  0  0  0  0  0  0
   -1.5560   -0.1490    0.5457 S   0  0  0  0  0  0  0  0  0  0  0  0
   -3.2906   -0.5497    0.3394 C   0  0  0  0  0  0  0  0  0  0  0  0
   -4.2207    0.3064    0.9466 C   0  0  0  0  0  0  0  0  0  0  0  0
   -7.0829    2.4075   -0.5606 C   0  0  0  0  0  0  0  0  0  0  0  0
   -8.1156    2.9832   -0.8688 O   0  0  0  0  0  0  0  0  0  0  0  0
   -6.3680    1.8051   -1.5360 O   0  0  0  0  0  0  0  0  0  0  0  0
   -7.0935    3.3617    2.6605 H   0  0  0  0  0  0  0  0  0  0  0  0
   -8.4421    2.8753    1.7493 H   0  0  0  0  0  0  0  0  0  0  0  0
   -5.5864    2.8502    0.9141 H   0  0  0  0  0  0  0  0  0  0  0  0
   -7.6216    0.5735    1.4274 H   0  0  0  0  0  0  0  0  0  0  0  0
   -6.3342    1.0456    2.5805 H   0  0  0  0  0  0  0  0  0  0  0  0
   -7.1023   -1.2639    0.0493 H   0  0  0  0  0  0  0  0  0  0  0  0
   -6.4978   -3.1889   -1.2811 H   0  0  0  0  0  0  0  0  0  0  0  0
   -1.1239   -3.3184   -1.6255 H   0  0  0  0  0  0  0  0  0  0  0  0
    0.9067   -3.3700   -1.6412 H   0  0  0  0  0  0  0  0  0  0  0  0
    4.8237   -3.7675   -1.8297 H   0  0  0  0  0  0  0  0  0  0  0  0
    7.0126   -1.5617   -0.1182 H   0  0  0  0  0  0  0  0  0  0  0  0
    7.4998   -0.0039    1.7260 H   0  0  0  0  0  0  0  0  0  0  0  0
    6.2237    0.9906    2.4393 H   0  0  0  0  0  0  0  0  0  0  0  0
    7.8453    2.3791    1.1966 H   0  0  0  0  0  0  0  0  0  0  0  0
    5.2340    2.3084   -0.2365 H   0  0  0  0  0  0  0  0  0  0  0  0
    6.3022    3.6149   -0.0839 H   0  0  0  0  0  0  0  0  0  0  0  0
    9.2386    0.3236    0.1392 H   0  0  0  0  0  0  0  0  0  0  0  0
    3.9080    0.8960    1.5480 H   0  0  0  0  0  0  0  0  0  0  0  0
   -3.8693    1.1660    1.5049 H   0  0  0  0  0  0  0  0  0  0  0  0
   -5.5080    1.3966   -1.3778 H   0  0  0  0  0  0  0  0  0  0  0  0
  1 35  1  0  0  0  0
  1 36  1  0  0  0  0
  2  1  1  0  0  0  0
  2  3  1  0  0  0  0
  2 32  1  0  0  0  0
  2 37  1  1  0  0  0
  3  4  1  0  0  0  0
  3 38  1  0  0  0  0
  3 39  1  0  0  0  0
  4  5  2  0  0  0  0
  5  6  1  0  0  0  0
  5 40  1  0  0  0  0
  6  7  1  0  0  0  0
  6  8  2  0  0  0  0
  7 41  1  0  0  0  0
  8  9  1  0  0  0  0
  9 10  2  0  0  0  0
 10 11  1  0  0  0  0
 10 42  1  0  0  0  0
 11 12  2  0  0  0  0
 11 29  1  0  0  0  0
 12 13  1  0  0  0  0
 13 14  2  0  0  0  0
 13 43  1  0  0  0  0
 14 15  1  0  0  0  0
 15 16  2  0  0  0  0
 16 17  1  0  0  0  0
 16 18  1  0  0  0  0
 17 44  1  0  0  0  0
 18 19  2  0  0  0  0
 18 45  1  0  0  0  0
 19 20  1  0  0  0  0
 19 26  1  0  0  0  0
 20 21  1  0  0  0  0
 20 46  1  0  0  0  0
 20 47  1  0  0  0  0
 21 22  1  0  0  0  0
 21 23  1  0  0  0  0
 21 48  1  1  0  0  0
 22 49  1  0  0  0  0
 22 50  1  0  0  0  0
 23 24  2  0  0  0  0
 23 25  1  0  0  0  0
 25 51  1  0  0  0  0
 26 27  2  0  0  0  0
 26 52  1  0  0  0  0
 27 28  1  0  0  0  0
 27 15  1  0  0  0  0
 28 12  1  0  0  0  0
 29 30  1  0  0  0  0
 30 31  2  0  0  0  0
 30  8  1  0  0  0  0
 31  4  1  0  0  0  0
 31 53  1  0  0  0  0
 32 33  2  0  0  0  0
 32 34  1  0  0  0  0
 34 54  1  0  0  0  0
M  END
>  <IDENTIFIER>
CNP0192057.1

>  <Energy>
393.945

$$$$
