
 OpenBabel09052502313D

 57 61  0  0  0  0  0  0  0  0999 V2000
   -1.7031    2.6322    1.7268 C   0  0  0  0  0  0  0  0  0  0  0  0
   -1.6741    2.2976    0.2296 C   0  0  0  0  0  0  0  0  0  0  0  0
   -1.7718    0.8502   -0.0312 N   0  0  0  0  0  0  0  0  0  0  0  0
   -3.0044    0.2847   -0.5568 C   0  0  0  0  0  0  0  0  0  0  0  0
   -3.9453    1.0301   -1.3074 C   0  0  0  0  0  0  0  0  0  0  0  0
   -5.1419    0.4444   -1.7497 C   0  0  0  0  0  0  0  0  0  0  0  0
   -6.1378    1.2394   -2.5427 C   0  0  0  0  0  0  0  0  0  0  0  0
   -5.4149   -0.8919   -1.4445 C   0  0  0  0  0  0  0  0  0  0  0  0
   -4.5074   -1.6441   -0.7031 C   0  0  0  0  0  0  0  0  0  0  0  0
   -3.3056   -1.0702   -0.2628 C   0  0  0  0  0  0  0  0  0  0  0  0
   -2.3774   -1.8060    0.5436 N   0  0  0  0  0  0  0  0  0  0  0  0
   -2.5248   -2.9990    1.1585 C   0  0  0  0  0  0  0  0  0  0  0  0
   -1.3674   -3.3039    1.8476 C   0  0  0  0  0  0  0  0  0  0  0  0
   -0.4845   -2.2610    1.6329 C   0  0  0  0  0  0  0  0  0  0  0  0
   -1.1471   -1.3527    0.8220 C   0  0  0  0  0  0  0  0  0  0  0  0
   -0.6239   -0.0825    0.1780 C   0  0  0  0  0  0  0  0  0  0  0  0
    0.5683    0.5269    1.0016 C   0  0  0  0  0  0  0  0  0  0  0  0
    1.9139    0.0136    0.5132 C   0  0  0  0  0  0  0  0  0  0  0  0
    2.1421    0.4866   -0.8714 N   0  0  0  0  0  0  0  0  0  0  0  0
    3.6108   -0.2870   -1.5047 S   0  0  0  0  0  0  0  0  0  0  0  0
    3.8649    0.3625   -2.8749 O   0  0  0  0  0  0  0  0  0  0  0  0
    3.2249   -1.7323   -1.8565 O   0  0  0  0  0  0  0  0  0  0  0  0
    5.0012   -0.1395   -0.3858 C   0  0  0  0  0  0  0  0  0  0  0  0
    5.8844    0.9402   -0.5010 C   0  0  0  0  0  0  0  0  0  0  0  0
    6.9280    1.0900    0.4171 C   0  0  0  0  0  0  0  0  0  0  0  0
    7.0873    0.1644    1.4533 C   0  0  0  0  0  0  0  0  0  0  0  0
    6.2063   -0.9154    1.5689 C   0  0  0  0  0  0  0  0  0  0  0  0
    5.1638   -1.0678    0.6504 C   0  0  0  0  0  0  0  0  0  0  0  0
    0.9683    0.3999   -1.7803 C   0  0  0  0  0  0  0  0  0  0  0  0
   -0.1009   -0.5458   -1.2299 C   0  0  0  0  0  0  0  0  0  0  0  0
   -1.6606    3.7356    1.8501 H   0  0  0  0  0  0  0  0  0  0  0  0
   -0.8684    2.2100    2.3081 H   0  0  0  0  0  0  0  0  0  0  0  0
   -2.6515    2.2650    2.1710 H   0  0  0  0  0  0  0  0  0  0  0  0
   -0.7939    2.7283   -0.2912 H   0  0  0  0  0  0  0  0  0  0  0  0
   -2.5391    2.8547   -0.1574 H   0  0  0  0  0  0  0  0  0  0  0  0
   -3.7731    2.0578   -1.5782 H   0  0  0  0  0  0  0  0  0  0  0  0
   -5.7951    2.2836   -2.7042 H   0  0  0  0  0  0  0  0  0  0  0  0
   -7.1049    1.2714   -1.9973 H   0  0  0  0  0  0  0  0  0  0  0  0
   -6.2933    0.7632   -3.5331 H   0  0  0  0  0  0  0  0  0  0  0  0
   -6.3378   -1.3507   -1.7781 H   0  0  0  0  0  0  0  0  0  0  0  0
   -4.7497   -2.6725   -0.4752 H   0  0  0  0  0  0  0  0  0  0  0  0
   -3.4129   -3.6145    1.1243 H   0  0  0  0  0  0  0  0  0  0  0  0
   -1.1816   -4.1946    2.4325 H   0  0  0  0  0  0  0  0  0  0  0  0
    0.5248   -2.1995    2.0124 H   0  0  0  0  0  0  0  0  0  0  0  0
    0.4228    0.3621    2.0909 H   0  0  0  0  0  0  0  0  0  0  0  0
    0.6857    1.6131    0.8383 H   0  0  0  0  0  0  0  0  0  0  0  0
    1.9557   -1.0947    0.5758 H   0  0  0  0  0  0  0  0  0  0  0  0
    2.7114    0.4257    1.1682 H   0  0  0  0  0  0  0  0  0  0  0  0
    5.7559    1.6700   -1.2901 H   0  0  0  0  0  0  0  0  0  0  0  0
    7.6054    1.9295    0.3318 H   0  0  0  0  0  0  0  0  0  0  0  0
    7.8890    0.2868    2.1696 H   0  0  0  0  0  0  0  0  0  0  0  0
    6.3241   -1.6274    2.3751 H   0  0  0  0  0  0  0  0  0  0  0  0
    4.4749   -1.8966    0.7556 H   0  0  0  0  0  0  0  0  0  0  0  0
    1.2722    0.0658   -2.7954 H   0  0  0  0  0  0  0  0  0  0  0  0
    0.5250    1.4114   -1.8915 H   0  0  0  0  0  0  0  0  0  0  0  0
    0.4131   -1.5315   -1.1514 H   0  0  0  0  0  0  0  0  0  0  0  0
   -0.9354   -0.6903   -1.9491 H   0  0  0  0  0  0  0  0  0  0  0  0
  1  2  1  0  0  0  0
  1 31  1  0  0  0  0
  1 32  1  0  0  0  0
  1 33  1  0  0  0  0
  2  3  1  0  0  0  0
  2 34  1  0  0  0  0
  2 35  1  0  0  0  0
  3  4  1  0  0  0  0
  4  5  2  0  0  0  0
  5  6  1  0  0  0  0
  5 36  1  0  0  0  0
  6  7  1  0  0  0  0
  6  8  2  0  0  0  0
  7 37  1  0  0  0  0
  7 38  1  0  0  0  0
  7 39  1  0  0  0  0
  8  9  1  0  0  0  0
  8 40  1  0  0  0  0
  9 10  2  0  0  0  0
  9 41  1  0  0  0  0
 10 11  1  0  0  0  0
 10  4  1  0  0  0  0
 11 12  1  0  0  0  0
 12 13  2  0  0  0  0
 12 42  1  0  0  0  0
 13 14  1  0  0  0  0
 13 43  1  0  0  0  0
 14 15  2  0  0  0  0
 14 44  1  0  0  0  0
 15 16  1  0  0  0  0
 15 11  1  0  0  0  0
 16 17  1  0  0  0  0
 16  3  1  0  0  0  0
 17 18  1  0  0  0  0
 17 45  1  0  0  0  0
 17 46  1  0  0  0  0
 18 19  1  0  0  0  0
 18 47  1  0  0  0  0
 18 48  1  0  0  0  0
 19 20  1  0  0  0  0
 19 29  1  0  0  0  0
 20 21  2  0  0  0  0
 20 22  2  0  0  0  0
 20 23  1  0  0  0  0
 23 24  2  0  0  0  0
 24 25  1  0  0  0  0
 24 49  1  0  0  0  0
 25 26  2  0  0  0  0
 25 50  1  0  0  0  0
 26 27  1  0  0  0  0
 26 51  1  0  0  0  0
 27 28  2  0  0  0  0
 27 52  1  0  0  0  0
 28 23  1  0  0  0  0
 28 53  1  0  0  0  0
 29 30  1  0  0  0  0
 29 54  1  0  0  0  0
 29 55  1  0  0  0  0
 30 16  1  0  0  0  0
 30 56  1  0  0  0  0
 30 57  1  0  0  0  0
M  END
>  <IDENTIFIER>
CNP0602758.0

>  <Energy>
1063.19

$$$$
