
 OpenBabel09042520123D

155159  0  0  0  0  0  0  0  0999 V2000
   10.6651   -3.3904    0.2547 C   0  0  0  0  0  0  0  0  0  0  0  0
    9.6241   -2.8684    1.2430 C   0  0  0  0  0  0  0  0  0  0  0  0
    8.9121   -1.6273    0.6897 C   0  0  0  0  0  0  0  0  0  0  0  0
    7.8660   -1.1033    1.6859 C   0  0  0  0  0  0  0  0  0  0  0  0
    7.1216    0.1957    1.2839 C   0  0  0  0  0  0  0  0  0  0  0  0
    6.0316    0.0983    0.1886 C   0  0  1  0  0  0  0  0  0  0  0  0
    6.3886   -0.2371   -1.2886 C   0  0  0  0  0  0  0  0  0  0  0  0
    7.0193    0.8353   -2.2169 C   0  0  0  0  0  0  0  0  0  0  0  0
    8.5510    0.9779   -2.3389 C   0  0  0  0  0  0  0  0  0  0  0  0
    9.2471    1.7321   -1.2055 C   0  0  0  0  0  0  0  0  0  0  0  0
   10.7117    2.0866   -1.5098 C   0  0  0  0  0  0  0  0  0  0  0  0
   11.6091    0.8487   -1.6856 C   0  0  0  0  0  0  0  0  0  0  0  0
   13.0861    1.2075   -1.9383 C   0  0  0  0  0  0  0  0  0  0  0  0
   13.7771    1.9970   -0.8083 C   0  0  0  0  0  0  0  0  0  0  0  0
   13.7907    1.2421    0.5333 C   0  0  0  0  0  0  0  0  0  0  0  0
   14.5215    1.9886    1.6235 C   0  0  0  0  0  0  0  0  0  0  0  0
   15.0302    3.0785    1.4095 O   0  0  0  0  0  0  0  0  0  0  0  0
   14.6158    1.4512    2.8577 O   0  0  0  0  0  0  0  0  0  0  0  0
    5.0981   -0.8832    0.6304 O   0  0  0  0  0  0  0  0  0  0  0  0
    3.7752   -0.3981    0.8406 C   0  0  2  0  0  0  0  0  0  0  0  0
    3.4089   -0.6090    2.2100 O   0  0  0  0  0  0  0  0  0  0  0  0
    2.6560   -1.7986    2.4703 C   0  0  2  0  0  0  0  0  0  0  0  0
    2.8112   -2.1764    3.9487 C   0  0  0  0  0  0  0  0  0  0  0  0
    3.0652   -2.9791    1.5425 C   0  0  2  0  0  0  0  0  0  0  0  0
    4.4357   -3.3171    1.6436 O   0  0  0  0  0  0  0  0  0  0  0  0
    2.7209   -2.5893    0.0868 C   0  0  2  0  0  0  0  0  0  0  0  0
    3.4811   -3.3376   -0.8309 O   0  0  0  0  0  0  0  0  0  0  0  0
    2.8087   -1.0556   -0.1716 C   0  0  1  0  0  0  0  0  0  0  0  0
    1.5247   -0.4508    0.0014 O   0  0  0  0  0  0  0  0  0  0  0  0
    0.8507   -0.1668   -1.2302 C   0  0  2  0  0  0  0  0  0  0  0  0
    0.3026    1.1470   -1.2003 O   0  0  0  0  0  0  0  0  0  0  0  0
   -0.6825    1.3049   -0.1817 C   0  0  1  0  0  0  0  0  0  0  0  0
   -1.1622    2.7584   -0.2348 C   0  0  0  0  0  0  0  0  0  0  0  0
   -1.8779    0.3337   -0.3881 C   0  0  2  0  0  0  0  0  0  0  0  0
   -2.7933    0.4289    0.7003 O   0  0  0  0  0  0  0  0  0  0  0  0
   -4.1093    0.7926    0.3016 C   0  0  2  0  0  0  0  0  0  0  0  0
   -4.2854    2.1812    0.5853 O   0  0  0  0  0  0  0  0  0  0  0  0
   -5.6225    2.6047    0.8496 C   0  0  1  0  0  0  0  0  0  0  0  0
   -5.7223    4.0702    0.4303 C   0  0  0  0  0  0  0  0  0  0  0  0
   -6.6642    1.7036    0.1321 C   0  0  2  0  0  0  0  0  0  0  0  0
   -7.9903    2.1944    0.2505 O   0  0  0  0  0  0  0  0  0  0  0  0
   -8.4071    2.9445   -0.8861 C   0  0  2  0  0  0  0  0  0  0  0  0
   -8.9104    4.2114   -0.4518 O   0  0  0  0  0  0  0  0  0  0  0  0
  -10.3055    4.1835   -0.2558 C   0  0  1  0  0  0  0  0  0  0  0  0
  -10.7383    5.4434    0.4879 C   0  0  0  0  0  0  0  0  0  0  0  0
  -11.0444    4.0368   -1.6209 C   0  0  2  0  0  0  0  0  0  0  0  0
  -12.3549    3.5795   -1.3919 O   0  0  0  0  0  0  0  0  0  0  0  0
  -10.2657    3.0844   -2.5881 C   0  0  1  0  0  0  0  0  0  0  0  0
   -9.4392    3.8071   -3.4767 O   0  0  0  0  0  0  0  0  0  0  0  0
   -9.4163    2.1144   -1.7449 C   0  0  1  0  0  0  0  0  0  0  0  0
   -8.7558    1.1512   -2.5271 O   0  0  0  0  0  0  0  0  0  0  0  0
   -6.5955    0.2910    0.7568 C   0  0  1  0  0  0  0  0  0  0  0  0
   -7.2008   -0.6189   -0.1563 O   0  0  0  0  0  0  0  0  0  0  0  0
   -8.0555   -1.5488    0.4964 C   0  0  2  0  0  0  0  0  0  0  0  0
   -7.2962   -2.4292    1.3041 O   0  0  0  0  0  0  0  0  0  0  0  0
   -8.1231   -3.2602    2.1257 C   0  0  2  0  0  0  0  0  0  0  0  0
   -7.2252   -4.3726    2.6941 C   0  0  0  0  0  0  0  0  0  0  0  0
   -6.1952   -3.8228    3.4724 O   0  0  0  0  0  0  0  0  0  0  0  0
   -9.3415   -3.8855    1.3453 C   0  0  1  0  0  0  0  0  0  0  0  0
  -10.5662   -3.2460    1.6340 O   0  0  0  0  0  0  0  0  0  0  0  0
   -9.0638   -3.8199   -0.1603 C   0  0  2  0  0  0  0  0  0  0  0  0
   -7.9427   -4.6255   -0.4619 O   0  0  0  0  0  0  0  0  0  0  0  0
   -8.8574   -2.3304   -0.5860 C   0  0  1  0  0  0  0  0  0  0  0  0
  -10.1080   -1.6699   -0.7324 O   0  0  0  0  0  0  0  0  0  0  0  0
  -10.5714   -1.7338   -2.0630 C   0  0  0  0  0  0  0  0  0  0  0  0
   -5.1143   -0.0796    1.0866 C   0  0  1  0  0  0  0  0  0  0  0  0
   -4.8533   -1.4508    0.9419 O   0  0  0  0  0  0  0  0  0  0  0  0
   -1.3394   -1.1071   -0.4480 C   0  0  1  0  0  0  0  0  0  0  0  0
   -2.3619   -2.0447   -0.6643 O   0  0  0  0  0  0  0  0  0  0  0  0
   -0.2533   -1.2106   -1.5296 C   0  0  1  0  0  0  0  0  0  0  0  0
   -0.7992   -1.0402   -2.8194 O   0  0  0  0  0  0  0  0  0  0  0  0
   11.1684   -4.2841    0.6801 H   0  0  0  0  0  0  0  0  0  0  0  0
   11.4319   -2.6120    0.0529 H   0  0  0  0  0  0  0  0  0  0  0  0
   10.1784   -3.6787   -0.7015 H   0  0  0  0  0  0  0  0  0  0  0  0
   10.1336   -2.6136    2.1980 H   0  0  0  0  0  0  0  0  0  0  0  0
    8.8809   -3.6722    1.4381 H   0  0  0  0  0  0  0  0  0  0  0  0
    8.4433   -1.9078   -0.2644 H   0  0  0  0  0  0  0  0  0  0  0  0
    9.6756   -0.8470    0.5096 H   0  0  0  0  0  0  0  0  0  0  0  0
    8.4107   -0.8777    2.6295 H   0  0  0  0  0  0  0  0  0  0  0  0
    7.1261   -1.8998    1.9104 H   0  0  0  0  0  0  0  0  0  0  0  0
    7.8111    1.0293    1.1135 H   0  0  0  0  0  0  0  0  0  0  0  0
    6.5672    0.5014    2.1998 H   0  0  0  0  0  0  0  0  0  0  0  0
    5.5961    1.1217    0.1428 H   0  0  0  0  0  0  0  0  0  0  0  0
    5.3811   -0.3578   -1.7422 H   0  0  0  0  0  0  0  0  0  0  0  0
    6.8539   -1.2261   -1.4288 H   0  0  0  0  0  0  0  0  0  0  0  0
    6.5292    1.8220   -2.0726 H   0  0  0  0  0  0  0  0  0  0  0  0
    6.7330    0.4956   -3.2394 H   0  0  0  0  0  0  0  0  0  0  0  0
    8.7205    1.5889   -3.2537 H   0  0  0  0  0  0  0  0  0  0  0  0
    9.0063   -0.0209   -2.5069 H   0  0  0  0  0  0  0  0  0  0  0  0
    9.2498    1.1291   -0.3004 H   0  0  0  0  0  0  0  0  0  0  0  0
    8.7018    2.6840   -1.0243 H   0  0  0  0  0  0  0  0  0  0  0  0
   11.0755    2.6797   -0.6456 H   0  0  0  0  0  0  0  0  0  0  0  0
   10.7646    2.7250   -2.4186 H   0  0  0  0  0  0  0  0  0  0  0  0
   11.2592    0.2635   -2.5613 H   0  0  0  0  0  0  0  0  0  0  0  0
   11.5297    0.1940   -0.7936 H   0  0  0  0  0  0  0  0  0  0  0  0
   13.1531    1.8043   -2.8740 H   0  0  0  0  0  0  0  0  0  0  0  0
   13.6479    0.2618   -2.1004 H   0  0  0  0  0  0  0  0  0  0  0  0
   13.2905    2.9863   -0.6786 H   0  0  0  0  0  0  0  0  0  0  0  0
   14.8274    2.1816   -1.1240 H   0  0  0  0  0  0  0  0  0  0  0  0
   14.2845    0.2568    0.3923 H   0  0  0  0  0  0  0  0  0  0  0  0
   12.7508    1.0775    0.8832 H   0  0  0  0  0  0  0  0  0  0  0  0
   14.2235    0.5915    3.0656 H   0  0  0  0  0  0  0  0  0  0  0  0
    3.6692    0.6942    0.6621 H   0  0  0  0  0  0  0  0  0  0  0  0
    1.5744   -1.5824    2.3210 H   0  0  0  0  0  0  0  0  0  0  0  0
    3.8661   -2.3884    4.2172 H   0  0  0  0  0  0  0  0  0  0  0  0
    2.1984   -3.0738    4.1805 H   0  0  0  0  0  0  0  0  0  0  0  0
    2.4601   -1.3389    4.5875 H   0  0  0  0  0  0  0  0  0  0  0  0
    2.4943   -3.8983    1.8009 H   0  0  0  0  0  0  0  0  0  0  0  0
    4.8947   -2.7489    2.3097 H   0  0  0  0  0  0  0  0  0  0  0  0
    1.6649   -2.8653   -0.0868 H   0  0  0  0  0  0  0  0  0  0  0  0
    4.3955   -2.9527   -0.8528 H   0  0  0  0  0  0  0  0  0  0  0  0
    3.2195   -0.8726   -1.1868 H   0  0  0  0  0  0  0  0  0  0  0  0
    1.5313   -0.1832   -2.1088 H   0  0  0  0  0  0  0  0  0  0  0  0
   -0.2193    1.1454    0.8182 H   0  0  0  0  0  0  0  0  0  0  0  0
   -1.6407    2.9708   -1.2164 H   0  0  0  0  0  0  0  0  0  0  0  0
   -0.3003    3.4475   -0.1113 H   0  0  0  0  0  0  0  0  0  0  0  0
   -1.8871    2.9689    0.5761 H   0  0  0  0  0  0  0  0  0  0  0  0
   -2.3254    0.5816   -1.3781 H   0  0  0  0  0  0  0  0  0  0  0  0
   -4.3076    0.6020   -0.7774 H   0  0  0  0  0  0  0  0  0  0  0  0
   -5.8112    2.5758    1.9465 H   0  0  0  0  0  0  0  0  0  0  0  0
   -5.5447    4.1821   -0.6597 H   0  0  0  0  0  0  0  0  0  0  0  0
   -4.9581    4.6637    0.9765 H   0  0  0  0  0  0  0  0  0  0  0  0
   -6.7116    4.4907    0.7000 H   0  0  0  0  0  0  0  0  0  0  0  0
   -6.3451    1.6104   -0.9341 H   0  0  0  0  0  0  0  0  0  0  0  0
   -7.5748    3.2270   -1.5707 H   0  0  0  0  0  0  0  0  0  0  0  0
  -10.5448    3.3211    0.4104 H   0  0  0  0  0  0  0  0  0  0  0  0
  -10.4990    6.3458   -0.1145 H   0  0  0  0  0  0  0  0  0  0  0  0
  -10.1937    5.5105    1.4540 H   0  0  0  0  0  0  0  0  0  0  0  0
  -11.8289    5.4173    0.6930 H   0  0  0  0  0  0  0  0  0  0  0  0
  -11.1316    5.0149   -2.1438 H   0  0  0  0  0  0  0  0  0  0  0  0
  -12.2949    2.6507   -1.0463 H   0  0  0  0  0  0  0  0  0  0  0  0
  -11.0017    2.5443   -3.2224 H   0  0  0  0  0  0  0  0  0  0  0  0
   -9.0128    4.5596   -2.9906 H   0  0  0  0  0  0  0  0  0  0  0  0
  -10.1205    1.5753   -1.0745 H   0  0  0  0  0  0  0  0  0  0  0  0
   -8.1934    1.6297   -3.1904 H   0  0  0  0  0  0  0  0  0  0  0  0
   -7.1234    0.3195    1.7413 H   0  0  0  0  0  0  0  0  0  0  0  0
   -8.7762   -1.0003    1.1493 H   0  0  0  0  0  0  0  0  0  0  0  0
   -8.4860   -2.7010    3.0178 H   0  0  0  0  0  0  0  0  0  0  0  0
   -6.8022   -5.0119    1.8868 H   0  0  0  0  0  0  0  0  0  0  0  0
   -7.8253   -5.0379    3.3519 H   0  0  0  0  0  0  0  0  0  0  0  0
   -5.4713   -3.5576    2.8474 H   0  0  0  0  0  0  0  0  0  0  0  0
   -9.4868   -4.9424    1.6605 H   0  0  0  0  0  0  0  0  0  0  0  0
  -10.4094   -2.2962    1.8543 H   0  0  0  0  0  0  0  0  0  0  0  0
   -9.9082   -4.2493   -0.7400 H   0  0  0  0  0  0  0  0  0  0  0  0
   -7.1252   -4.0679   -0.5288 H   0  0  0  0  0  0  0  0  0  0  0  0
   -8.2776   -2.3487   -1.5425 H   0  0  0  0  0  0  0  0  0  0  0  0
  -11.5783   -1.2701   -2.0990 H   0  0  0  0  0  0  0  0  0  0  0  0
  -10.6807   -2.7828   -2.4097 H   0  0  0  0  0  0  0  0  0  0  0  0
   -9.9138   -1.1507   -2.7401 H   0  0  0  0  0  0  0  0  0  0  0  0
   -4.9278    0.1861    2.1514 H   0  0  0  0  0  0  0  0  0  0  0  0
   -4.9120   -1.6596   -0.0270 H   0  0  0  0  0  0  0  0  0  0  0  0
   -0.8768   -1.3402    0.5369 H   0  0  0  0  0  0  0  0  0  0  0  0
   -2.8426   -1.7860   -1.4933 H   0  0  0  0  0  0  0  0  0  0  0  0
    0.1865   -2.2252   -1.5165 H   0  0  0  0  0  0  0  0  0  0  0  0
   -0.8879   -0.0722   -3.0166 H   0  0  0  0  0  0  0  0  0  0  0  0
  1  2  1  0  0  0  0
  1 72  1  0  0  0  0
  1 73  1  0  0  0  0
  1 74  1  0  0  0  0
  2  3  1  0  0  0  0
  2 75  1  0  0  0  0
  2 76  1  0  0  0  0
  3  4  1  0  0  0  0
  3 77  1  0  0  0  0
  3 78  1  0  0  0  0
  4  5  1  0  0  0  0
  4 79  1  0  0  0  0
  4 80  1  0  0  0  0
  5 81  1  0  0  0  0
  5 82  1  0  0  0  0
  6  5  1  0  0  0  0
  6  7  1  0  0  0  0
  6 19  1  0  0  0  0
  6 83  1  6  0  0  0
  7  8  1  0  0  0  0
  7 84  1  0  0  0  0
  7 85  1  0  0  0  0
  8  9  1  0  0  0  0
  8 86  1  0  0  0  0
  8 87  1  0  0  0  0
  9 10  1  0  0  0  0
  9 88  1  0  0  0  0
  9 89  1  0  0  0  0
 10 11  1  0  0  0  0
 10 90  1  0  0  0  0
 10 91  1  0  0  0  0
 11 12  1  0  0  0  0
 11 92  1  0  0  0  0
 11 93  1  0  0  0  0
 12 13  1  0  0  0  0
 12 94  1  0  0  0  0
 12 95  1  0  0  0  0
 13 14  1  0  0  0  0
 13 96  1  0  0  0  0
 13 97  1  0  0  0  0
 14 15  1  0  0  0  0
 14 98  1  0  0  0  0
 14 99  1  0  0  0  0
 15 16  1  0  0  0  0
 15100  1  0  0  0  0
 15101  1  0  0  0  0
 16 17  2  0  0  0  0
 16 18  1  0  0  0  0
 18102  1  0  0  0  0
 20 19  1  0  0  0  0
 20 21  1  0  0  0  0
 20103  1  6  0  0  0
 21 22  1  0  0  0  0
 22 23  1  0  0  0  0
 22 24  1  0  0  0  0
 22104  1  6  0  0  0
 23105  1  0  0  0  0
 23106  1  0  0  0  0
 23107  1  0  0  0  0
 24 25  1  0  0  0  0
 24 26  1  0  0  0  0
 24108  1  1  0  0  0
 25109  1  0  0  0  0
 26 27  1  0  0  0  0
 26 28  1  0  0  0  0
 26110  1  6  0  0  0
 27111  1  0  0  0  0
 28 29  1  0  0  0  0
 28 20  1  0  0  0  0
 28112  1  6  0  0  0
 30 29  1  0  0  0  0
 30 31  1  0  0  0  0
 30113  1  6  0  0  0
 31 32  1  0  0  0  0
 32 33  1  0  0  0  0
 32 34  1  0  0  0  0
 32114  1  1  0  0  0
 33115  1  0  0  0  0
 33116  1  0  0  0  0
 33117  1  0  0  0  0
 34 35  1  0  0  0  0
 34 68  1  0  0  0  0
 34118  1  6  0  0  0
 36 35  1  0  0  0  0
 36 37  1  0  0  0  0
 36119  1  6  0  0  0
 37 38  1  0  0  0  0
 38 39  1  0  0  0  0
 38 40  1  0  0  0  0
 38120  1  1  0  0  0
 39121  1  0  0  0  0
 39122  1  0  0  0  0
 39123  1  0  0  0  0
 40 41  1  0  0  0  0
 40 52  1  0  0  0  0
 40124  1  6  0  0  0
 42 41  1  0  0  0  0
 42 43  1  0  0  0  0
 42125  1  6  0  0  0
 43 44  1  0  0  0  0
 44 45  1  0  0  0  0
 44 46  1  0  0  0  0
 44126  1  1  0  0  0
 45127  1  0  0  0  0
 45128  1  0  0  0  0
 45129  1  0  0  0  0
 46 47  1  0  0  0  0
 46 48  1  0  0  0  0
 46130  1  6  0  0  0
 47131  1  0  0  0  0
 48 49  1  0  0  0  0
 48 50  1  0  0  0  0
 48132  1  6  0  0  0
 49133  1  0  0  0  0
 50 51  1  0  0  0  0
 50 42  1  0  0  0  0
 50134  1  1  0  0  0
 51135  1  0  0  0  0
 52 53  1  0  0  0  0
 52 66  1  0  0  0  0
 52136  1  1  0  0  0
 54 53  1  0  0  0  0
 54 55  1  0  0  0  0
 54137  1  1  0  0  0
 55 56  1  0  0  0  0
 56 57  1  0  0  0  0
 56 59  1  0  0  0  0
 56138  1  1  0  0  0
 57 58  1  0  0  0  0
 57139  1  0  0  0  0
 57140  1  0  0  0  0
 58141  1  0  0  0  0
 59 60  1  0  0  0  0
 59 61  1  0  0  0  0
 59142  1  1  0  0  0
 60143  1  0  0  0  0
 61 62  1  0  0  0  0
 61 63  1  0  0  0  0
 61144  1  6  0  0  0
 62145  1  0  0  0  0
 63 64  1  0  0  0  0
 63 54  1  0  0  0  0
 63146  1  6  0  0  0
 64 65  1  0  0  0  0
 65147  1  0  0  0  0
 65148  1  0  0  0  0
 65149  1  0  0  0  0
 66 67  1  0  0  0  0
 66 36  1  0  0  0  0
 66150  1  1  0  0  0
 67151  1  0  0  0  0
 68 69  1  0  0  0  0
 68 70  1  0  0  0  0
 68152  1  1  0  0  0
 69153  1  0  0  0  0
 70 71  1  0  0  0  0
 70 30  1  0  0  0  0
 70154  1  1  0  0  0
 71155  1  0  0  0  0
M  END
>  <IDENTIFIER>
CNP0174690.1

>  <Energy>
1846.1

$$$$
