
 OpenBabel09122506293D

 53 55  0  0  0  0  0  0  0  0999 V2000
    6.1299    1.7751    1.6814 C   0  0  0  0  0  0  0  0  0  0  0  0
    6.2095    1.0839    0.3485 C   0  0  0  0  0  0  0  0  0  0  0  0
    5.2080    0.3628   -0.2182 C   0  0  0  0  0  0  0  0  0  0  0  0
    5.4373   -0.2618   -1.5727 C   0  0  0  0  0  0  0  0  0  0  0  0
    3.8735    0.1504    0.4167 C   0  0  0  0  0  0  0  0  0  0  0  0
    3.6358    0.6069    1.5276 O   0  0  0  0  0  0  0  0  0  0  0  0
    2.9057   -0.5309   -0.2629 O   0  0  0  0  0  0  0  0  0  0  0  0
    1.6213   -0.7614    0.2126 C   0  0  2  0  0  0  0  0  0  0  0  0
    1.3499   -2.2739    0.2356 C   0  0  0  0  0  0  0  0  0  0  0  0
   -0.0667   -2.5832    0.7451 C   0  0  0  0  0  0  0  0  0  0  0  0
   -1.1175   -1.8654   -0.1286 C   0  0  1  0  0  0  0  0  0  0  0  0
   -2.5512   -2.2364    0.2459 C   0  0  0  0  0  0  0  0  0  0  0  0
   -2.8271   -3.3264    0.7234 O   0  0  0  0  0  0  0  0  0  0  0  0
   -3.6038   -1.2381    0.0111 C   0  0  0  0  0  0  0  0  0  0  0  0
   -3.3387   -0.0356   -0.5905 C   0  0  0  0  0  0  0  0  0  0  0  0
   -1.9655    0.3218   -1.0976 C   0  0  0  0  0  0  0  0  0  0  0  0
   -0.8908   -0.2953   -0.1440 C   0  0  1  0  0  0  0  0  0  0  0  0
   -1.0893    0.3385    1.2785 C   0  0  0  0  0  0  0  0  0  0  0  0
    0.5716   -0.0340   -0.6810 C   0  0  1  0  0  0  0  0  0  0  0  0
    0.9297    1.4630   -0.8120 C   0  0  0  0  0  0  0  0  0  0  0  0
   -4.5087    0.6933   -0.5213 C   0  0  0  0  0  0  0  0  0  0  0  0
   -4.7482    2.0926   -1.0000 C   0  0  0  0  0  0  0  0  0  0  0  0
   -5.4269   -0.1458    0.1041 C   0  0  0  0  0  0  0  0  0  0  0  0
   -6.8486    0.1736    0.4381 C   0  0  0  0  0  0  0  0  0  0  0  0
   -4.8545   -1.2953    0.4078 O   0  0  0  0  0  0  0  0  0  0  0  0
    7.0883    2.2948    1.8922 H   0  0  0  0  0  0  0  0  0  0  0  0
    5.9512    1.0361    2.4899 H   0  0  0  0  0  0  0  0  0  0  0  0
    5.3198    2.5341    1.6719 H   0  0  0  0  0  0  0  0  0  0  0  0
    7.1510    1.1907   -0.1847 H   0  0  0  0  0  0  0  0  0  0  0  0
    6.4522   -0.0516   -1.9703 H   0  0  0  0  0  0  0  0  0  0  0  0
    4.6934    0.1357   -2.2952 H   0  0  0  0  0  0  0  0  0  0  0  0
    5.3169   -1.3632   -1.4965 H   0  0  0  0  0  0  0  0  0  0  0  0
    1.5379   -0.3870    1.2500 H   0  0  0  0  0  0  0  0  0  0  0  0
    2.0929   -2.7796    0.8893 H   0  0  0  0  0  0  0  0  0  0  0  0
    1.4642   -2.6801   -0.7938 H   0  0  0  0  0  0  0  0  0  0  0  0
   -0.1669   -2.2750    1.8063 H   0  0  0  0  0  0  0  0  0  0  0  0
   -0.2204   -3.6834    0.6994 H   0  0  0  0  0  0  0  0  0  0  0  0
   -0.9770   -2.2511   -1.1642 H   0  0  0  0  0  0  0  0  0  0  0  0
   -1.8768    1.4189   -1.2071 H   0  0  0  0  0  0  0  0  0  0  0  0
   -1.8410   -0.1355   -2.1038 H   0  0  0  0  0  0  0  0  0  0  0  0
   -0.9811    1.4405    1.2352 H   0  0  0  0  0  0  0  0  0  0  0  0
   -0.3904   -0.0432    2.0405 H   0  0  0  0  0  0  0  0  0  0  0  0
   -2.0977    0.1394    1.6906 H   0  0  0  0  0  0  0  0  0  0  0  0
    0.6455   -0.4618   -1.7065 H   0  0  0  0  0  0  0  0  0  0  0  0
    0.9340    1.9712    0.1739 H   0  0  0  0  0  0  0  0  0  0  0  0
    0.2338    1.9873   -1.4957 H   0  0  0  0  0  0  0  0  0  0  0  0
    1.9406    1.5770   -1.2559 H   0  0  0  0  0  0  0  0  0  0  0  0
   -3.8409    2.5246   -1.4658 H   0  0  0  0  0  0  0  0  0  0  0  0
   -5.0430    2.7320   -0.1415 H   0  0  0  0  0  0  0  0  0  0  0  0
   -5.5634    2.0930   -1.7534 H   0  0  0  0  0  0  0  0  0  0  0  0
   -7.1198    1.1983    0.1110 H   0  0  0  0  0  0  0  0  0  0  0  0
   -6.9887    0.1041    1.5374 H   0  0  0  0  0  0  0  0  0  0  0  0
   -7.5195   -0.5542   -0.0619 H   0  0  0  0  0  0  0  0  0  0  0  0
  1  2  1  0  0  0  0
  1 26  1  0  0  0  0
  1 27  1  0  0  0  0
  1 28  1  0  0  0  0
  2  3  2  0  0  0  0
  2 29  1  0  0  0  0
  3  4  1  0  0  0  0
  3  5  1  0  0  0  0
  4 30  1  0  0  0  0
  4 31  1  0  0  0  0
  4 32  1  0  0  0  0
  5  6  2  0  0  0  0
  5  7  1  0  0  0  0
  8  7  1  0  0  0  0
  8  9  1  0  0  0  0
  8 33  1  1  0  0  0
  9 10  1  0  0  0  0
  9 34  1  0  0  0  0
  9 35  1  0  0  0  0
 10 36  1  0  0  0  0
 10 37  1  0  0  0  0
 11 10  1  0  0  0  0
 11 12  1  0  0  0  0
 11 38  1  6  0  0  0
 12 13  2  0  0  0  0
 12 14  1  0  0  0  0
 14 15  2  0  0  0  0
 15 16  1  0  0  0  0
 15 21  1  0  0  0  0
 16 17  1  0  0  0  0
 16 39  1  0  0  0  0
 16 40  1  0  0  0  0
 17 18  1  1  0  0  0
 17 19  1  0  0  0  0
 17 11  1  0  0  0  0
 18 41  1  0  0  0  0
 18 42  1  0  0  0  0
 18 43  1  0  0  0  0
 19 20  1  0  0  0  0
 19  8  1  0  0  0  0
 19 44  1  6  0  0  0
 20 45  1  0  0  0  0
 20 46  1  0  0  0  0
 20 47  1  0  0  0  0
 21 22  1  0  0  0  0
 21 23  2  0  0  0  0
 22 48  1  0  0  0  0
 22 49  1  0  0  0  0
 22 50  1  0  0  0  0
 23 24  1  0  0  0  0
 23 25  1  0  0  0  0
 24 51  1  0  0  0  0
 24 52  1  0  0  0  0
 24 53  1  0  0  0  0
 25 14  1  0  0  0  0
M  END
>  <IDENTIFIER>
CNP0210544.1

>  <Energy>
402.577

$$$$
