
 OpenBabel09122511423D

 84 84  0  0  0  0  0  0  0  0999 V2000
    7.0222   -3.5431   -0.5291 C   0  0  0  0  0  0  0  0  0  0  0  0
    6.9006   -2.0273   -0.3808 C   0  0  0  0  0  0  0  0  0  0  0  0
    6.6781   -1.2923   -1.7237 C   0  0  1  0  0  0  0  0  0  0  0  0
    5.4143   -1.7053   -2.5041 C   0  0  0  0  0  0  0  0  0  0  0  0
    6.7892    0.2421   -1.5485 C   0  0  0  0  0  0  0  0  0  0  0  0
    6.0587    0.9808   -0.3939 C   0  0  0  0  0  0  0  0  0  0  0  0
    4.5211    1.0591   -0.3950 C   0  0  0  0  0  0  0  0  0  0  0  0
    3.7989   -0.0667    0.3833 C   0  0  0  0  0  0  0  0  0  0  0  0
    2.2685    0.0865    0.3278 C   0  0  0  0  0  0  0  0  0  0  0  0
    1.7287    1.2905    1.1282 C   0  0  0  0  0  0  0  0  0  0  0  0
    0.2380    1.5373    0.8325 C   0  0  2  0  0  0  0  0  0  0  0  0
   -0.2468    2.8255    1.5610 C   0  0  0  0  0  0  0  0  0  0  0  0
   -1.6321    3.2970    1.1661 C   0  0  0  0  0  0  0  0  0  0  0  0
   -1.8834    3.4690   -0.0192 O   0  0  0  0  0  0  0  0  0  0  0  0
   -2.5746    3.5860    2.1169 N   0  0  0  0  0  0  0  0  0  0  0  0
   -3.9114    4.0843    1.7969 C   0  0  0  0  0  0  0  0  0  0  0  0
   -4.8009    3.0604    1.1045 C   0  0  0  0  0  0  0  0  0  0  0  0
   -5.9318    3.3899    0.7854 O   0  0  0  0  0  0  0  0  0  0  0  0
   -4.3646    1.7904    0.8987 N   0  0  0  0  0  0  0  0  0  0  0  0
   -5.0915    0.6833    0.2720 C   0  0  1  0  0  0  0  0  0  0  0  0
   -5.0854    0.8243   -1.2828 C   0  0  0  0  0  0  0  0  0  0  0  0
   -5.8392    2.0118   -1.8991 C   0  0  0  0  0  0  0  0  0  0  0  0
   -7.3505    1.9646   -1.6565 C   0  0  0  0  0  0  0  0  0  0  0  0
   -7.9938    3.0894   -2.3288 N   0  0  0  0  0  0  0  0  0  0  0  0
   -4.3343   -0.5489    0.7692 C   0  0  0  0  0  0  0  0  0  0  0  0
   -4.3675   -0.7678    1.9738 O   0  0  0  0  0  0  0  0  0  0  0  0
   -3.3623   -1.1179   -0.0001 N   0  0  0  0  0  0  0  0  0  0  0  0
   -2.1070   -1.5537    0.5949 C   0  0  1  0  0  0  0  0  0  0  0  0
   -1.6989   -2.9925    0.1549 C   0  0  1  0  0  0  0  0  0  0  0  0
   -1.5301   -3.1426   -1.3712 C   0  0  0  0  0  0  0  0  0  0  0  0
   -0.4213   -3.4243    0.9207 C   0  0  0  0  0  0  0  0  0  0  0  0
   -0.0257   -4.8852    0.6990 C   0  0  0  0  0  0  0  0  0  0  0  0
   -1.1212   -0.4433    0.2305 C   0  0  0  0  0  0  0  0  0  0  0  0
   -0.9051   -0.2241   -0.9529 O   0  0  0  0  0  0  0  0  0  0  0  0
   -0.5656    0.3662    1.1844 N   0  0  0  0  0  0  0  0  0  0  0  0
    7.2349   -3.9915    0.4644 H   0  0  0  0  0  0  0  0  0  0  0  0
    7.8568   -3.7960   -1.2169 H   0  0  0  0  0  0  0  0  0  0  0  0
    6.0796   -3.9867   -0.9079 H   0  0  0  0  0  0  0  0  0  0  0  0
    7.8526   -1.6621    0.0635 H   0  0  0  0  0  0  0  0  0  0  0  0
    6.0876   -1.8034    0.3350 H   0  0  0  0  0  0  0  0  0  0  0  0
    7.5177   -1.5772   -2.3984 H   0  0  0  0  0  0  0  0  0  0  0  0
    4.4696   -1.4520   -2.0108 H   0  0  0  0  0  0  0  0  0  0  0  0
    5.4198   -2.7938   -2.7149 H   0  0  0  0  0  0  0  0  0  0  0  0
    5.4074   -1.1915   -3.4891 H   0  0  0  0  0  0  0  0  0  0  0  0
    6.5525    0.7344   -2.5179 H   0  0  0  0  0  0  0  0  0  0  0  0
    7.8669    0.4439   -1.3557 H   0  0  0  0  0  0  0  0  0  0  0  0
    6.4027    2.0322   -0.5242 H   0  0  0  0  0  0  0  0  0  0  0  0
    6.4242    0.6608    0.6051 H   0  0  0  0  0  0  0  0  0  0  0  0
    4.1496    1.1675   -1.4373 H   0  0  0  0  0  0  0  0  0  0  0  0
    4.2794    1.9961    0.1445 H   0  0  0  0  0  0  0  0  0  0  0  0
    4.1378   -0.0909    1.4414 H   0  0  0  0  0  0  0  0  0  0  0  0
    4.0328   -1.0481   -0.0446 H   0  0  0  0  0  0  0  0  0  0  0  0
    1.8034   -0.8307    0.7457 H   0  0  0  0  0  0  0  0  0  0  0  0
    1.9726    0.1641   -0.7420 H   0  0  0  0  0  0  0  0  0  0  0  0
    2.2596    2.2122    0.8202 H   0  0  0  0  0  0  0  0  0  0  0  0
    1.9048    1.1306    2.2144 H   0  0  0  0  0  0  0  0  0  0  0  0
    0.1824    1.7439   -0.2597 H   0  0  0  0  0  0  0  0  0  0  0  0
    0.4448    3.6485    1.2805 H   0  0  0  0  0  0  0  0  0  0  0  0
   -0.1753    2.6881    2.6621 H   0  0  0  0  0  0  0  0  0  0  0  0
   -2.3238    3.4868    3.1122 H   0  0  0  0  0  0  0  0  0  0  0  0
   -3.8172    4.9945    1.1662 H   0  0  0  0  0  0  0  0  0  0  0  0
   -4.4229    4.3730    2.7403 H   0  0  0  0  0  0  0  0  0  0  0  0
   -3.4379    1.5608    1.2810 H   0  0  0  0  0  0  0  0  0  0  0  0
   -6.1288    0.6080    0.6626 H   0  0  0  0  0  0  0  0  0  0  0  0
   -5.5041   -0.1070   -1.7238 H   0  0  0  0  0  0  0  0  0  0  0  0
   -4.0347    0.9438   -1.6247 H   0  0  0  0  0  0  0  0  0  0  0  0
   -5.6733    1.9784   -2.9989 H   0  0  0  0  0  0  0  0  0  0  0  0
   -5.4068    2.9682   -1.5455 H   0  0  0  0  0  0  0  0  0  0  0  0
   -7.5817    2.0003   -0.5718 H   0  0  0  0  0  0  0  0  0  0  0  0
   -7.7560    1.0163   -2.0715 H   0  0  0  0  0  0  0  0  0  0  0  0
   -7.6588    3.9830   -1.9000 H   0  0  0  0  0  0  0  0  0  0  0  0
   -9.0255    3.0259   -2.1738 H   0  0  0  0  0  0  0  0  0  0  0  0
   -3.3366   -0.9550   -1.0129 H   0  0  0  0  0  0  0  0  0  0  0  0
   -2.1921   -1.5802    1.7038 H   0  0  0  0  0  0  0  0  0  0  0  0
   -2.5274   -3.6667    0.4683 H   0  0  0  0  0  0  0  0  0  0  0  0
   -0.6765   -2.5422   -1.7451 H   0  0  0  0  0  0  0  0  0  0  0  0
   -2.4541   -2.8412   -1.9041 H   0  0  0  0  0  0  0  0  0  0  0  0
   -1.3483   -4.2009   -1.6440 H   0  0  0  0  0  0  0  0  0  0  0  0
   -0.6031   -3.3004    2.0111 H   0  0  0  0  0  0  0  0  0  0  0  0
    0.4330   -2.7750    0.6369 H   0  0  0  0  0  0  0  0  0  0  0  0
   -0.8598   -5.5589    0.9884 H   0  0  0  0  0  0  0  0  0  0  0  0
    0.8573   -5.1244    1.3289 H   0  0  0  0  0  0  0  0  0  0  0  0
    0.2563   -5.0729   -0.3562 H   0  0  0  0  0  0  0  0  0  0  0  0
   -0.7197    0.1556    2.1818 H   0  0  0  0  0  0  0  0  0  0  0  0
  1  2  1  0  0  0  0
  1 36  1  0  0  0  0
  1 37  1  0  0  0  0
  1 38  1  0  0  0  0
  2  3  1  0  0  0  0
  2 39  1  0  0  0  0
  2 40  1  0  0  0  0
  3  4  1  0  0  0  0
  3  5  1  0  0  0  0
  3 41  1  6  0  0  0
  4 42  1  0  0  0  0
  4 43  1  0  0  0  0
  4 44  1  0  0  0  0
  5  6  1  0  0  0  0
  5 45  1  0  0  0  0
  5 46  1  0  0  0  0
  6  7  1  0  0  0  0
  6 47  1  0  0  0  0
  6 48  1  0  0  0  0
  7  8  1  0  0  0  0
  7 49  1  0  0  0  0
  7 50  1  0  0  0  0
  8  9  1  0  0  0  0
  8 51  1  0  0  0  0
  8 52  1  0  0  0  0
  9 10  1  0  0  0  0
  9 53  1  0  0  0  0
  9 54  1  0  0  0  0
 10 55  1  0  0  0  0
 10 56  1  0  0  0  0
 11 10  1  0  0  0  0
 11 12  1  0  0  0  0
 11 57  1  6  0  0  0
 12 13  1  0  0  0  0
 12 58  1  0  0  0  0
 12 59  1  0  0  0  0
 13 14  2  0  0  0  0
 13 15  1  0  0  0  0
 15 16  1  0  0  0  0
 15 60  1  0  0  0  0
 16 17  1  0  0  0  0
 16 61  1  0  0  0  0
 16 62  1  0  0  0  0
 17 18  2  0  0  0  0
 17 19  1  0  0  0  0
 19 20  1  0  0  0  0
 19 63  1  0  0  0  0
 20 21  1  0  0  0  0
 20 25  1  0  0  0  0
 20 64  1  1  0  0  0
 21 22  1  0  0  0  0
 21 65  1  0  0  0  0
 21 66  1  0  0  0  0
 22 23  1  0  0  0  0
 22 67  1  0  0  0  0
 22 68  1  0  0  0  0
 23 24  1  0  0  0  0
 23 69  1  0  0  0  0
 23 70  1  0  0  0  0
 24 71  1  0  0  0  0
 24 72  1  0  0  0  0
 25 26  2  0  0  0  0
 25 27  1  0  0  0  0
 27 73  1  0  0  0  0
 28 27  1  0  0  0  0
 28 29  1  0  0  0  0
 28 33  1  0  0  0  0
 28 74  1  1  0  0  0
 29 30  1  0  0  0  0
 29 31  1  0  0  0  0
 29 75  1  1  0  0  0
 30 76  1  0  0  0  0
 30 77  1  0  0  0  0
 30 78  1  0  0  0  0
 31 32  1  0  0  0  0
 31 79  1  0  0  0  0
 31 80  1  0  0  0  0
 32 81  1  0  0  0  0
 32 82  1  0  0  0  0
 32 83  1  0  0  0  0
 33 34  2  0  0  0  0
 33 35  1  0  0  0  0
 35 11  1  0  0  0  0
 35 84  1  0  0  0  0
M  END
>  <IDENTIFIER>
CNP0171599.1

>  <Energy>
557.093

$$$$
