
 OpenBabel09112502503D

112116  0  0  0  0  0  0  0  0999 V2000
   10.5779   -2.4431    1.2612 C   0  0  0  0  0  0  0  0  0  0  0  0
   10.4637   -2.9815   -0.0966 N   0  0  0  0  0  0  0  0  0  0  0  0
   10.0213   -1.9672   -1.0629 C   0  0  0  0  0  0  0  0  0  0  0  0
    8.7335   -1.3448   -0.6935 N   0  0  0  0  0  0  0  0  0  0  0  0
    7.5154   -2.1705   -0.8894 C   0  0  1  0  0  0  0  0  0  0  0  0
    7.5509   -3.3020   -0.0507 O   0  0  0  0  0  0  0  0  0  0  0  0
    6.2868   -1.3046   -0.5088 C   0  0  0  0  0  0  0  0  0  0  0  0
    4.9518   -2.0584   -0.5984 C   0  0  0  0  0  0  0  0  0  0  0  0
    3.7863   -1.1739   -0.2359 C   0  0  0  0  0  0  0  0  0  0  0  0
    3.9686   -0.0100    0.0944 O   0  0  0  0  0  0  0  0  0  0  0  0
    2.5267   -1.6772   -0.3199 N   0  0  0  0  0  0  0  0  0  0  0  0
    1.3227   -0.8940   -0.0788 C   0  0  1  0  0  0  0  0  0  0  0  0
    1.2766   -0.4738    1.4184 C   0  0  0  0  0  0  0  0  0  0  0  0
   -0.4024   -0.3209    2.1343 S   0  0  0  0  0  0  0  0  0  0  0  0
   -0.8265    1.4468    1.8668 C   0  0  1  0  0  0  0  0  0  0  0  0
   -1.6817    1.6902    0.6120 C   0  0  0  0  0  0  0  0  0  0  0  0
   -2.3890    0.8192   -0.1729 C   0  0  0  0  0  0  0  0  0  0  0  0
   -2.7636   -0.6691   -0.0467 C   0  0  1  0  0  0  0  0  0  0  0  0
   -3.9354   -0.9851    0.9531 C   0  0  0  0  0  0  0  0  0  0  0  0
   -3.8049   -0.5149    2.4037 C   0  0  0  0  0  0  0  0  0  0  0  0
   -4.1407    0.9807    2.5628 C   0  0  0  0  0  0  0  0  0  0  0  0
   -3.6991    1.5593    3.8937 C   0  0  0  0  0  0  0  0  0  0  0  0
   -2.1845    1.4784    4.1847 C   0  0  0  0  0  0  0  0  0  0  0  0
   -1.1519    2.2062    3.2389 C   0  0  0  0  0  0  0  0  0  0  0  0
   -1.4944    3.7031    3.0680 C   0  0  0  0  0  0  0  0  0  0  0  0
   -0.1781    4.3427    2.6311 C   0  0  0  0  0  0  0  0  0  0  0  0
    0.9155    3.5480    3.3631 C   0  0  0  0  0  0  0  0  0  0  0  0
    0.1764    2.3748    4.0275 C   0  0  0  0  0  0  0  0  0  0  0  0
   -3.2319   -1.1392   -1.4570 C   0  0  0  0  0  0  0  0  0  0  0  0
   -4.3656   -0.2290   -1.9676 C   0  0  0  0  0  0  0  0  0  0  0  0
   -5.6135   -0.9141   -2.5093 C   0  0  0  0  0  0  0  0  0  0  0  0
   -6.3247   -1.7429   -1.4699 C   0  0  0  0  0  0  0  0  0  0  0  0
   -6.1296   -3.1319   -1.4008 C   0  0  0  0  0  0  0  0  0  0  0  0
   -6.7980   -3.8741   -0.4245 C   0  0  0  0  0  0  0  0  0  0  0  0
   -7.6459   -3.2568    0.4401 N   0  0  0  0  0  0  0  0  0  0  0  0
   -7.8658   -1.9166    0.3864 C   0  0  0  0  0  0  0  0  0  0  0  0
   -7.2073   -1.1361   -0.5660 C   0  0  0  0  0  0  0  0  0  0  0  0
   -4.1496    1.1300   -1.9066 C   0  0  0  0  0  0  0  0  0  0  0  0
   -5.1504    2.2019   -2.3076 C   0  0  0  0  0  0  0  0  0  0  0  0
   -5.3967    3.1357   -1.2009 N   0  0  0  0  0  0  0  0  0  0  0  0
   -6.2326    2.5352   -0.1614 C   0  0  0  0  0  0  0  0  0  0  0  0
   -2.7563    1.5284   -1.4435 C   0  0  1  0  0  0  0  0  0  0  0  0
   -2.3743    2.9103   -1.0879 C   0  0  0  0  0  0  0  0  0  0  0  0
   -2.4669    3.8790   -1.8244 O   0  0  0  0  0  0  0  0  0  0  0  0
   -1.7165    2.9374    0.0819 O   0  0  0  0  0  0  0  0  0  0  0  0
    1.2852    0.2757   -1.0639 C   0  0  0  0  0  0  0  0  0  0  0  0
    0.9250    1.3785   -0.6885 O   0  0  0  0  0  0  0  0  0  0  0  0
    1.7979    0.1239   -2.3261 N   0  0  0  0  0  0  0  0  0  0  0  0
    1.9561    1.2251   -3.2653 C   0  0  1  0  0  0  0  0  0  0  0  0
    3.3223    1.5413   -3.3992 O   0  0  0  0  0  0  0  0  0  0  0  0
    1.3556    0.8672   -4.6022 C   0  0  0  0  0  0  0  0  0  0  0  0
    2.0485    0.8597   -5.6079 O   0  0  0  0  0  0  0  0  0  0  0  0
    0.0476    0.5507   -4.7029 O   0  0  0  0  0  0  0  0  0  0  0  0
    7.3952   -2.6304   -2.3403 C   0  0  0  0  0  0  0  0  0  0  0  0
    7.3642   -3.8235   -2.6008 O   0  0  0  0  0  0  0  0  0  0  0  0
    7.3224   -1.7419   -3.3561 O   0  0  0  0  0  0  0  0  0  0  0  0
   10.9609   -3.2348    1.9381 H   0  0  0  0  0  0  0  0  0  0  0  0
    9.5925   -2.1056    1.6457 H   0  0  0  0  0  0  0  0  0  0  0  0
   11.2906   -1.5914    1.2811 H   0  0  0  0  0  0  0  0  0  0  0  0
    9.8439   -3.8206   -0.1082 H   0  0  0  0  0  0  0  0  0  0  0  0
    9.9801   -2.4060   -2.0834 H   0  0  0  0  0  0  0  0  0  0  0  0
   10.7958   -1.1699   -1.1026 H   0  0  0  0  0  0  0  0  0  0  0  0
    8.6400   -0.4680   -1.2589 H   0  0  0  0  0  0  0  0  0  0  0  0
    7.5590   -2.9859    0.8901 H   0  0  0  0  0  0  0  0  0  0  0  0
    6.2409   -0.4130   -1.1722 H   0  0  0  0  0  0  0  0  0  0  0  0
    6.4148   -0.9437    0.5348 H   0  0  0  0  0  0  0  0  0  0  0  0
    4.9608   -2.9360    0.0834 H   0  0  0  0  0  0  0  0  0  0  0  0
    4.7975   -2.4167   -1.6388 H   0  0  0  0  0  0  0  0  0  0  0  0
    2.4074   -2.6591   -0.6149 H   0  0  0  0  0  0  0  0  0  0  0  0
    0.4706   -1.5773   -0.2884 H   0  0  0  0  0  0  0  0  0  0  0  0
    1.9449    0.3780    1.6660 H   0  0  0  0  0  0  0  0  0  0  0  0
    1.6837   -1.3220    2.0097 H   0  0  0  0  0  0  0  0  0  0  0  0
    0.1264    1.8755    1.5218 H   0  0  0  0  0  0  0  0  0  0  0  0
   -1.8743   -1.2717    0.2061 H   0  0  0  0  0  0  0  0  0  0  0  0
   -4.0266   -2.0936    0.9721 H   0  0  0  0  0  0  0  0  0  0  0  0
   -4.8958   -0.5837    0.5854 H   0  0  0  0  0  0  0  0  0  0  0  0
   -2.8188   -0.8104    2.7689 H   0  0  0  0  0  0  0  0  0  0  0  0
   -4.5336   -1.0615    3.0417 H   0  0  0  0  0  0  0  0  0  0  0  0
   -5.2392    1.1053    2.4529 H   0  0  0  0  0  0  0  0  0  0  0  0
   -3.7159    1.6217    1.7992 H   0  0  0  0  0  0  0  0  0  0  0  0
   -4.2364    1.0241    4.7074 H   0  0  0  0  0  0  0  0  0  0  0  0
   -4.0154    2.6248    3.9296 H   0  0  0  0  0  0  0  0  0  0  0  0
   -1.8712    0.4278    4.3407 H   0  0  0  0  0  0  0  0  0  0  0  0
   -2.1122    1.9442    5.1924 H   0  0  0  0  0  0  0  0  0  0  0  0
   -1.7420    4.1262    4.0697 H   0  0  0  0  0  0  0  0  0  0  0  0
   -2.3526    3.9238    2.3995 H   0  0  0  0  0  0  0  0  0  0  0  0
   -0.1263    5.4439    2.7656 H   0  0  0  0  0  0  0  0  0  0  0  0
   -0.0593    4.1462    1.5454 H   0  0  0  0  0  0  0  0  0  0  0  0
    1.4584    4.1381    4.1332 H   0  0  0  0  0  0  0  0  0  0  0  0
    1.6524    3.1962    2.6080 H   0  0  0  0  0  0  0  0  0  0  0  0
   -0.0779    2.7524    5.0456 H   0  0  0  0  0  0  0  0  0  0  0  0
    0.7928    1.4645    4.1854 H   0  0  0  0  0  0  0  0  0  0  0  0
   -3.5128   -2.2125   -1.4557 H   0  0  0  0  0  0  0  0  0  0  0  0
   -2.3700   -1.0530   -2.1549 H   0  0  0  0  0  0  0  0  0  0  0  0
   -5.2515   -1.5792   -3.3232 H   0  0  0  0  0  0  0  0  0  0  0  0
   -6.3508   -0.2507   -2.9944 H   0  0  0  0  0  0  0  0  0  0  0  0
   -5.4559   -3.6338   -2.0841 H   0  0  0  0  0  0  0  0  0  0  0  0
   -6.6422   -4.9423   -0.3543 H   0  0  0  0  0  0  0  0  0  0  0  0
   -8.5543   -1.4562    1.0821 H   0  0  0  0  0  0  0  0  0  0  0  0
   -7.3911   -0.0732   -0.6060 H   0  0  0  0  0  0  0  0  0  0  0  0
   -6.1144    1.8089   -2.6793 H   0  0  0  0  0  0  0  0  0  0  0  0
   -4.6969    2.7663   -3.1505 H   0  0  0  0  0  0  0  0  0  0  0  0
   -5.9081    3.9689   -1.5751 H   0  0  0  0  0  0  0  0  0  0  0  0
   -5.7621    1.6134    0.2293 H   0  0  0  0  0  0  0  0  0  0  0  0
   -7.2432    2.2993   -0.5592 H   0  0  0  0  0  0  0  0  0  0  0  0
   -6.3433    3.2499    0.6806 H   0  0  0  0  0  0  0  0  0  0  0  0
   -2.0692    1.1940   -2.2490 H   0  0  0  0  0  0  0  0  0  0  0  0
    2.1720   -0.7942   -2.6094 H   0  0  0  0  0  0  0  0  0  0  0  0
    1.4464    2.1393   -2.8940 H   0  0  0  0  0  0  0  0  0  0  0  0
    3.8136    0.7011   -3.5976 H   0  0  0  0  0  0  0  0  0  0  0  0
   -0.5269    0.5376   -3.9276 H   0  0  0  0  0  0  0  0  0  0  0  0
    7.3409   -0.7865   -3.2128 H   0  0  0  0  0  0  0  0  0  0  0  0
  1  2  1  0  0  0  0
  1 57  1  0  0  0  0
  1 58  1  0  0  0  0
  1 59  1  0  0  0  0
  2  3  1  0  0  0  0
  2 60  1  0  0  0  0
  3  4  1  0  0  0  0
  3 61  1  0  0  0  0
  3 62  1  0  0  0  0
  4  5  1  0  0  0  0
  4 63  1  0  0  0  0
  5  6  1  1  0  0  0
  5  7  1  0  0  0  0
  5 54  1  0  0  0  0
  6 64  1  0  0  0  0
  7  8  1  0  0  0  0
  7 65  1  0  0  0  0
  7 66  1  0  0  0  0
  8  9  1  0  0  0  0
  8 67  1  0  0  0  0
  8 68  1  0  0  0  0
  9 10  2  0  0  0  0
  9 11  1  0  0  0  0
 11 12  1  0  0  0  0
 11 69  1  0  0  0  0
 12 13  1  0  0  0  0
 12 46  1  0  0  0  0
 12 70  1  6  0  0  0
 13 14  1  0  0  0  0
 13 71  1  0  0  0  0
 13 72  1  0  0  0  0
 15 14  1  0  0  0  0
 15 16  1  0  0  0  0
 15 73  1  6  0  0  0
 16 17  2  0  0  0  0
 17 18  1  0  0  0  0
 18 19  1  0  0  0  0
 18 29  1  0  0  0  0
 18 74  1  1  0  0  0
 19 20  1  0  0  0  0
 19 75  1  0  0  0  0
 19 76  1  0  0  0  0
 20 21  1  0  0  0  0
 20 77  1  0  0  0  0
 20 78  1  0  0  0  0
 21 22  1  0  0  0  0
 21 79  1  0  0  0  0
 21 80  1  0  0  0  0
 22 23  1  0  0  0  0
 22 81  1  0  0  0  0
 22 82  1  0  0  0  0
 23 24  1  0  0  0  0
 23 83  1  0  0  0  0
 23 84  1  0  0  0  0
 24 25  1  0  0  0  0
 24 15  1  0  0  0  0
 25 26  1  0  0  0  0
 25 85  1  0  0  0  0
 25 86  1  0  0  0  0
 26 27  1  0  0  0  0
 26 87  1  0  0  0  0
 26 88  1  0  0  0  0
 27 28  1  0  0  0  0
 27 89  1  0  0  0  0
 27 90  1  0  0  0  0
 28 24  1  0  0  0  0
 28 91  1  0  0  0  0
 28 92  1  0  0  0  0
 29 30  1  0  0  0  0
 29 93  1  0  0  0  0
 29 94  1  0  0  0  0
 30 31  1  0  0  0  0
 30 38  2  0  0  0  0
 31 32  1  0  0  0  0
 31 95  1  0  0  0  0
 31 96  1  0  0  0  0
 32 33  2  0  0  0  0
 33 34  1  0  0  0  0
 33 97  1  0  0  0  0
 34 35  2  0  0  0  0
 34 98  1  0  0  0  0
 35 36  1  0  0  0  0
 36 37  2  0  0  0  0
 36 99  1  0  0  0  0
 37 32  1  0  0  0  0
 37100  1  0  0  0  0
 38 39  1  0  0  0  0
 39 40  1  0  0  0  0
 39101  1  0  0  0  0
 39102  1  0  0  0  0
 40 41  1  0  0  0  0
 40103  1  0  0  0  0
 41104  1  0  0  0  0
 41105  1  0  0  0  0
 41106  1  0  0  0  0
 42 38  1  0  0  0  0
 42 43  1  0  0  0  0
 42 17  1  0  0  0  0
 42107  1  6  0  0  0
 43 44  2  0  0  0  0
 43 45  1  0  0  0  0
 45 16  1  0  0  0  0
 46 47  2  0  0  0  0
 46 48  1  0  0  0  0
 48 49  1  0  0  0  0
 48108  1  0  0  0  0
 49 50  1  0  0  0  0
 49 51  1  0  0  0  0
 49109  1  1  0  0  0
 50110  1  0  0  0  0
 51 52  2  0  0  0  0
 51 53  1  0  0  0  0
 53111  1  0  0  0  0
 54 55  2  0  0  0  0
 54 56  1  0  0  0  0
 56112  1  0  0  0  0
M  END
>  <IDENTIFIER>
CNP0312141.1

>  <Energy>
1194.05

$$$$
