
 OpenBabel09102518562D

159158  0  0  0  0  0  0  0  0999 V2000
   27.2798   15.7500    0.0000 C   0  0  0  0  0  0  0  0  0  0  0  0
   25.9808   15.0000    0.0000 C   0  0  0  0  0  0  0  0  0  0  0  0
   24.3298   14.6887   -0.0152 C   0  0  0  0  0  0  0  0  0  0  0  0
   23.7284   13.0968    0.0036 C   0  0  0  0  0  0  0  0  0  0  0  0
   22.0836   12.7500    0.0000 C   0  0  0  0  0  0  0  0  0  0  0  0
   20.7846   12.0000    0.0000 C   0  0  0  0  0  2  0  0  0  0  0  0
   19.4856   11.2500    0.0000 C   0  0  0  0  0  0  0  0  0  0  0  0
   18.1865   10.5000    0.0000 C   0  0  0  0  0  0  0  0  0  0  0  0
   16.8875    9.7500    0.0000 C   0  0  0  0  0  2  0  0  0  0  0  0
   15.5885    9.0000    0.0000 C   0  0  0  0  0  0  0  0  0  0  0  0
   13.9510    8.6416   -0.1252 C   0  0  0  0  0  0  0  0  0  0  0  0
   13.3332    7.0779    0.1360 C   0  0  0  0  0  0  0  0  0  0  0  0
   11.6913    6.7500    0.0000 C   0  0  0  0  0  0  0  0  0  0  0  0
   10.3923    6.0000    0.0000 C   0  0  0  0  0  0  0  0  0  0  0  0
    9.0933    5.2500    0.0000 C   0  0  0  0  0  0  0  0  0  0  0  0
    7.7942    4.5000    0.0000 C   0  0  0  0  0  0  0  0  0  0  0  0
    6.4952    3.7500    0.0000 C   0  0  0  0  0  0  0  0  0  0  0  0
    5.1962    3.0000    0.0000 C   0  0  0  0  0  0  0  0  0  0  0  0
    3.5448    2.9583   -0.2743 C   0  0  0  0  0  0  0  0  0  0  0  0
    2.7024    1.5165   -0.0047 C   0  0  0  0  0  0  0  0  0  0  0  0
    1.0549    1.2608   -0.2539 C   0  0  0  0  0  0  0  0  0  0  0  0
    0.3229   -0.1860    0.0559 C   0  0  0  0  0  0  0  0  0  0  0  0
    1.0589   -1.0565    0.4942 O   0  0  0  0  0  0  0  0  0  0  0  0
   -1.0752   -0.5384   -0.1358 O   0  0  0  0  0  0  0  0  0  0  0  0
   -1.7094   -1.8380    0.1643 C   0  0  0  0  0  0  0  0  0  0  0  0
   -3.3224   -2.2394   -0.1524 C   0  0  2  0  0  0  0  0  0  0  0  0
   -3.6861   -3.8714    0.1435 C   0  0  0  0  0  0  0  0  0  0  0  0
   -4.9781   -4.5627   -0.0814 O   0  0  0  0  0  0  0  0  0  0  0  0
   -5.1962   -6.0000    0.0000 C   0  0  0  0  0  0  0  0  0  0  0  0
   -4.1745   -6.6819    0.0814 O   0  0  0  0  0  0  0  0  0  0  0  0
   -6.4952   -6.7500    0.0000 C   0  0  0  0  0  0  0  0  0  0  0  0
   -7.7942   -7.5000    0.0000 C   0  0  0  0  0  0  0  0  0  0  0  0
   -9.0933   -8.2500    0.0000 C   0  0  0  0  0  0  0  0  0  0  0  0
  -10.3923   -9.0000    0.0000 C   0  0  0  0  0  0  0  0  0  0  0  0
  -11.6913   -9.7500    0.0000 C   0  0  0  0  0  0  0  0  0  0  0  0
  -13.3410  -10.0641   -0.0424 C   0  0  0  0  0  0  0  0  0  0  0  0
  -13.9442  -11.6531    0.0382 C   0  0  0  0  0  0  0  0  0  0  0  0
  -15.5885  -12.0000    0.0000 C   0  0  0  0  0  0  0  0  0  0  0  0
  -16.8875  -12.7500    0.0000 C   0  0  0  0  0  2  0  0  0  0  0  0
  -18.1865  -13.5000    0.0000 C   0  0  0  0  0  0  0  0  0  0  0  0
  -19.4856  -14.2500    0.0000 C   0  0  0  0  0  0  0  0  0  0  0  0
  -20.7846  -15.0000    0.0000 C   0  0  0  0  0  2  0  0  0  0  0  0
  -22.0836  -15.7500    0.0000 C   0  0  0  0  0  0  0  0  0  0  0  0
  -23.5950  -16.3384    0.4436 C   0  0  0  0  0  0  0  0  0  0  0  0
  -24.4632  -17.4704   -0.4890 C   0  0  0  0  0  0  0  0  0  0  0  0
  -25.9808  -18.0000    0.0000 C   0  0  0  0  0  0  0  0  0  0  0  0
  -27.2798  -18.7500    0.0000 C   0  0  0  0  0  0  0  0  0  0  0  0
  -28.5788  -19.5000    0.0000 C   0  0  0  0  0  0  0  0  0  0  0  0
  -29.8779  -20.2500    0.0000 C   0  0  0  0  0  0  0  0  0  0  0  0
  -31.1769  -21.0000    0.0000 C   0  0  0  0  0  0  0  0  0  0  0  0
  -29.1279  -21.5490    0.0000 C   0  0  0  0  0  0  0  0  0  0  0  0
   -4.1957   -1.3766    0.5575 O   0  0  0  0  0  0  0  0  0  0  0  0
   -4.9487   -0.3336    0.0340 C   0  0  0  0  0  0  0  0  0  0  0  0
   -4.8145   -0.0232   -1.1409 O   0  0  0  0  0  0  0  0  0  0  0  0
   -5.9398    0.4823    0.9141 C   0  0  0  0  0  0  0  0  0  0  0  0
   -6.6271    1.7156    0.2019 C   0  0  0  0  0  0  0  0  0  0  0  0
   -7.6468    2.5679    1.0663 C   0  0  0  0  0  0  0  0  0  0  0  0
   -8.1426    3.8508    0.2998 C   0  0  0  0  0  0  0  0  0  0  0  0
   -9.1688    4.8742    0.9767 C   0  0  0  0  0  0  0  0  0  0  0  0
   -9.3481    6.0933    0.0000 C   0  0  0  0  0  0  0  0  0  0  0  0
  -10.0981    7.3923    0.0000 C   0  0  0  0  0  0  0  0  0  0  0  0
   27.9864   14.8889    0.1163 H   0  0  0  0  0  0  0  0  0  0  0  0
   27.1023   16.2885    0.9582 H   0  0  0  0  0  0  0  0  0  0  0  0
   28.2064   16.2850    0.0000 H   0  0  0  0  0  0  0  0  0  0  0  0
   26.1894   14.3793   -0.9020 H   0  0  0  0  0  0  0  0  0  0  0  0
   26.1461   14.3589    0.9037 H   0  0  0  0  0  0  0  0  0  0  0  0
   23.8967   15.2039    0.8681 H   0  0  0  0  0  0  0  0  0  0  0  0
   23.9136   15.1815   -0.9190 H   0  0  0  0  0  0  0  0  0  0  0  0
   24.1522   12.6084    0.9062 H   0  0  0  0  0  0  0  0  0  0  0  0
   24.1630   12.5841   -0.8801 H   0  0  0  0  0  0  0  0  0  0  0  0
   21.8419   13.3617   -0.8942 H   0  0  0  0  0  0  0  0  0  0  0  0
   21.8316   13.3831    0.8762 H   0  0  0  0  0  0  0  0  0  0  0  0
   19.8547   10.6943    0.8959 H   0  0  0  0  0  0  0  0  0  0  0  0
   19.8547   10.6944   -0.8960 H   0  0  0  0  0  0  0  0  0  0  0  0
   17.8174   11.0557   -0.8959 H   0  0  0  0  0  0  0  0  0  0  0  0
   17.8174   11.0556    0.8960 H   0  0  0  0  0  0  0  0  0  0  0  0
   15.7199    8.5770    1.0178 H   0  0  0  0  0  0  0  0  0  0  0  0
   15.9312    8.2109   -0.7014 H   0  0  0  0  0  0  0  0  0  0  0  0
   13.6386    8.9396   -1.1480 H   0  0  0  0  0  0  0  0  0  0  0  0
   13.4247    9.3124    0.5861 H   0  0  0  0  0  0  0  0  0  0  0  0
   13.8563    6.4020   -0.5727 H   0  0  0  0  0  0  0  0  0  0  0  0
   13.6377    6.7795    1.1611 H   0  0  0  0  0  0  0  0  0  0  0  0
   11.3826    7.5907    0.6710 H   0  0  0  0  0  0  0  0  0  0  0  0
   11.5910    7.2026   -1.0192 H   0  0  0  0  0  0  0  0  0  0  0  0
   10.9882    5.2630   -0.6315 H   0  0  0  0  0  0  0  0  0  0  0  0
   10.5210    5.7832    1.0955 H   0  0  0  0  0  0  0  0  0  0  0  0
    9.0379    5.3874   -1.1235 H   0  0  0  0  0  0  0  0  0  0  0  0
    9.5704    4.2282    0.1831 H   0  0  0  0  0  0  0  0  0  0  0  0
    7.3132    5.5169   -0.1989 H   0  0  0  0  0  0  0  0  0  0  0  0
    7.8450    4.3740    1.1240 H   0  0  0  0  0  0  0  0  0  0  0  0
    5.8898    4.4965    0.6088 H   0  0  0  0  0  0  0  0  0  0  0  0
    6.3859    3.9231   -1.1033 H   0  0  0  0  0  0  0  0  0  0  0  0
    5.2050    2.5752    1.0349 H   0  0  0  0  0  0  0  0  0  0  0  0
    5.4756    2.1138   -0.6209 H   0  0  0  0  0  0  0  0  0  0  0  0
    3.0786    3.7402    0.3608 H   0  0  0  0  0  0  0  0  0  0  0  0
    3.3807    3.2437   -1.3345 H   0  0  0  0  0  0  0  0  0  0  0  0
    2.8893    1.2566    1.0580 H   0  0  0  0  0  0  0  0  0  0  0  0
    3.2165    0.7496   -0.6210 H   0  0  0  0  0  0  0  0  0  0  0  0
    0.5212    2.0202    0.3534 H   0  0  0  0  0  0  0  0  0  0  0  0
    0.8624    1.4907   -1.3224 H   0  0  0  0  0  0  0  0  0  0  0  0
   -1.5510   -2.0373    1.2453 H   0  0  0  0  0  0  0  0  0  0  0  0
   -1.1178   -2.6008   -0.3847 H   0  0  0  0  0  0  0  0  0  0  0  0
   -3.4617   -2.0882   -1.2444 H   0  0  0  0  0  0  0  0  0  0  0  0
   -3.4166   -4.0514    1.2054 H   0  0  0  0  0  0  0  0  0  0  0  0
   -2.9333   -4.4206   -0.4612 H   0  0  0  0  0  0  0  0  0  0  0  0
   -6.1555   -7.0808    1.0354 H   0  0  0  0  0  0  0  0  0  0  0  0
   -6.1581   -7.3310   -0.8967 H   0  0  0  0  0  0  0  0  0  0  0  0
   -7.3228   -8.4766    0.3572 H   0  0  0  0  0  0  0  0  0  0  0  0
   -8.1233   -6.9196    0.9193 H   0  0  0  0  0  0  0  0  0  0  0  0
   -9.5503   -7.2670   -0.3657 H   0  0  0  0  0  0  0  0  0  0  0  0
   -8.7812   -8.8302   -0.9204 H   0  0  0  0  0  0  0  0  0  0  0  0
  -10.7907   -8.5929   -0.9881 H   0  0  0  0  0  0  0  0  0  0  0  0
  -10.7615   -8.3828    0.8619 H   0  0  0  0  0  0  0  0  0  0  0  0
  -11.4437  -10.4976   -0.7995 H   0  0  0  0  0  0  0  0  0  0  0  0
  -11.5130  -10.3298    0.9385 H   0  0  0  0  0  0  0  0  0  0  0  0
  -13.7988   -9.5006    0.7976 H   0  0  0  0  0  0  0  0  0  0  0  0
  -13.7282   -9.6228   -0.9846 H   0  0  0  0  0  0  0  0  0  0  0  0
  -13.5482  -12.0961    0.9760 H   0  0  0  0  0  0  0  0  0  0  0  0
  -13.4840  -12.2088   -0.8059 H   0  0  0  0  0  0  0  0  0  0  0  0
  -15.8032  -11.4321   -0.9293 H   0  0  0  0  0  0  0  0  0  0  0  0
  -15.8655  -11.3255    0.8369 H   0  0  0  0  0  0  0  0  0  0  0  0
  -17.8175  -14.0555    0.8961 H   0  0  0  0  0  0  0  0  0  0  0  0
  -17.8173  -14.0558   -0.8958 H   0  0  0  0  0  0  0  0  0  0  0  0
  -19.8546  -13.6946   -0.8962 H   0  0  0  0  0  0  0  0  0  0  0  0
  -19.8548  -13.6941    0.8958 H   0  0  0  0  0  0  0  0  0  0  0  0
  -21.6143  -16.7473   -0.1315 H   0  0  0  0  0  0  0  0  0  0  0  0
  -22.3854  -15.4205   -1.0161 H   0  0  0  0  0  0  0  0  0  0  0  0
  -24.2532  -15.4514    0.5570 H   0  0  0  0  0  0  0  0  0  0  0  0
  -23.4764  -16.7871    1.4522 H   0  0  0  0  0  0  0  0  0  0  0  0
  -24.5854  -17.0243   -1.4990 H   0  0  0  0  0  0  0  0  0  0  0  0
  -23.8193  -18.3680   -0.6028 H   0  0  0  0  0  0  0  0  0  0  0  0
  -25.6142  -18.3685    0.9889 H   0  0  0  0  0  0  0  0  0  0  0  0
  -26.2923  -16.9182    0.1362 H   0  0  0  0  0  0  0  0  0  0  0  0
  -27.5451  -18.1186   -0.9072 H   0  0  0  0  0  0  0  0  0  0  0  0
  -27.6779  -18.1005    0.8607 H   0  0  0  0  0  0  0  0  0  0  0  0
  -28.0822  -19.9452    0.9650 H   0  0  0  0  0  0  0  0  0  0  0  0
  -28.2931  -19.8510   -1.0604 H   0  0  0  0  0  0  0  0  0  0  0  0
  -30.0806  -19.7276    0.9786 H   0  0  0  0  0  0  0  0  0  0  0  0
  -31.8202  -20.1119   -0.1989 H   0  0  0  0  0  0  0  0  0  0  0  0
  -31.3045  -21.3089    1.0778 H   0  0  0  0  0  0  0  0  0  0  0  0
  -32.1035  -21.5350    0.0000 H   0  0  0  0  0  0  0  0  0  0  0  0
  -29.3371  -21.9574   -1.0300 H   0  0  0  0  0  0  0  0  0  0  0  0
  -29.3362  -22.0111    1.0053 H   0  0  0  0  0  0  0  0  0  0  0  0
  -28.5929  -22.4756    0.0000 H   0  0  0  0  0  0  0  0  0  0  0  0
   -5.3784    0.8723    1.7881 H   0  0  0  0  0  0  0  0  0  0  0  0
   -6.7265   -0.2093    1.2814 H   0  0  0  0  0  0  0  0  0  0  0  0
   -5.8101    2.3924   -0.1304 H   0  0  0  0  0  0  0  0  0  0  0  0
   -7.1612    1.3519   -0.7023 H   0  0  0  0  0  0  0  0  0  0  0  0
   -8.5176    1.9323    1.3359 H   0  0  0  0  0  0  0  0  0  0  0  0
   -7.1441    2.8968    1.9998 H   0  0  0  0  0  0  0  0  0  0  0  0
   -8.5902    3.5096   -0.6592 H   0  0  0  0  0  0  0  0  0  0  0  0
   -7.2212    4.4227    0.0551 H   0  0  0  0  0  0  0  0  0  0  0  0
   -8.7650    5.2318    1.9463 H   0  0  0  0  0  0  0  0  0  0  0  0
  -10.1445    4.3708    1.1478 H   0  0  0  0  0  0  0  0  0  0  0  0
   -9.6354    5.6035   -0.9640 H   0  0  0  0  0  0  0  0  0  0  0  0
   -8.2985    6.4424   -0.1394 H   0  0  0  0  0  0  0  0  0  0  0  0
   -9.7952    7.7395   -1.0167 H   0  0  0  0  0  0  0  0  0  0  0  0
  -11.1107    6.9324   -0.0060 H   0  0  0  0  0  0  0  0  0  0  0  0
  -10.6331    8.3189    0.0000 H   0  0  0  0  0  0  0  0  0  0  0  0
  1  2  1  0  0  0  0
  1 62  1  0  0  0  0
  1 63  1  0  0  0  0
  1 64  1  0  0  0  0
  2  3  1  0  0  0  0
  2 65  1  0  0  0  0
  2 66  1  0  0  0  0
  3  4  1  0  0  0  0
  3 67  1  0  0  0  0
  3 68  1  0  0  0  0
  4  5  1  0  0  0  0
  4 69  1  0  0  0  0
  4 70  1  0  0  0  0
  5  6  1  0  0  0  0
  5 71  1  0  0  0  0
  5 72  1  0  0  0  0
  6  7  1  0  0  0  0
  7  8  1  0  0  0  0
  7 73  1  0  0  0  0
  7 74  1  0  0  0  0
  8  9  1  0  0  0  0
  8 75  1  0  0  0  0
  8 76  1  0  0  0  0
  9 10  1  0  0  0  0
 10 11  1  0  0  0  0
 10 77  1  0  0  0  0
 10 78  1  0  0  0  0
 11 12  1  0  0  0  0
 11 79  1  0  0  0  0
 11 80  1  0  0  0  0
 12 13  1  0  0  0  0
 12 81  1  0  0  0  0
 12 82  1  0  0  0  0
 13 14  1  0  0  0  0
 13 83  1  0  0  0  0
 13 84  1  0  0  0  0
 14 15  1  0  0  0  0
 14 85  1  0  0  0  0
 14 86  1  0  0  0  0
 15 16  1  0  0  0  0
 15 87  1  0  0  0  0
 15 88  1  0  0  0  0
 16 17  1  0  0  0  0
 16 89  1  0  0  0  0
 16 90  1  0  0  0  0
 17 18  1  0  0  0  0
 17 91  1  0  0  0  0
 17 92  1  0  0  0  0
 18 19  1  0  0  0  0
 18 93  1  0  0  0  0
 18 94  1  0  0  0  0
 19 20  1  0  0  0  0
 19 95  1  0  0  0  0
 19 96  1  0  0  0  0
 20 21  1  0  0  0  0
 20 97  1  0  0  0  0
 20 98  1  0  0  0  0
 21 22  1  0  0  0  0
 21 99  1  0  0  0  0
 21100  1  0  0  0  0
 22 23  2  0  0  0  0
 22 24  1  0  0  0  0
 24 25  1  0  0  0  0
 25101  1  0  0  0  0
 25102  1  0  0  0  0
 26 25  1  0  0  0  0
 26 27  1  0  0  0  0
 26 52  1  0  0  0  0
 26103  1  1  0  0  0
 27 28  1  0  0  0  0
 27104  1  0  0  0  0
 27105  1  0  0  0  0
 28 29  1  0  0  0  0
 29 30  2  0  0  0  0
 29 31  1  0  0  0  0
 31 32  1  0  0  0  0
 31106  1  0  0  0  0
 31107  1  0  0  0  0
 32 33  1  0  0  0  0
 32108  1  0  0  0  0
 32109  1  0  0  0  0
 33 34  1  0  0  0  0
 33110  1  0  0  0  0
 33111  1  0  0  0  0
 34 35  1  0  0  0  0
 34112  1  0  0  0  0
 34113  1  0  0  0  0
 35 36  1  0  0  0  0
 35114  1  0  0  0  0
 35115  1  0  0  0  0
 36 37  1  0  0  0  0
 36116  1  0  0  0  0
 36117  1  0  0  0  0
 37 38  1  0  0  0  0
 37118  1  0  0  0  0
 37119  1  0  0  0  0
 38 39  1  0  0  0  0
 38120  1  0  0  0  0
 38121  1  0  0  0  0
 39 40  1  0  0  0  0
 40 41  1  0  0  0  0
 40122  1  0  0  0  0
 40123  1  0  0  0  0
 41 42  1  0  0  0  0
 41124  1  0  0  0  0
 41125  1  0  0  0  0
 42 43  1  0  0  0  0
 43 44  1  0  0  0  0
 43126  1  0  0  0  0
 43127  1  0  0  0  0
 44 45  1  0  0  0  0
 44128  1  0  0  0  0
 44129  1  0  0  0  0
 45 46  1  0  0  0  0
 45130  1  0  0  0  0
 45131  1  0  0  0  0
 46 47  1  0  0  0  0
 46132  1  0  0  0  0
 46133  1  0  0  0  0
 47 48  1  0  0  0  0
 47134  1  0  0  0  0
 47135  1  0  0  0  0
 48 49  1  0  0  0  0
 48136  1  0  0  0  0
 48137  1  0  0  0  0
 49 50  1  0  0  0  0
 49 51  1  0  0  0  0
 49138  1  0  0  0  0
 50139  1  0  0  0  0
 50140  1  0  0  0  0
 50141  1  0  0  0  0
 51142  1  0  0  0  0
 51143  1  0  0  0  0
 51144  1  0  0  0  0
 52 53  1  0  0  0  0
 53 54  2  0  0  0  0
 53 55  1  0  0  0  0
 55 56  1  0  0  0  0
 55145  1  0  0  0  0
 55146  1  0  0  0  0
 56 57  1  0  0  0  0
 56147  1  0  0  0  0
 56148  1  0  0  0  0
 57 58  1  0  0  0  0
 57149  1  0  0  0  0
 57150  1  0  0  0  0
 58 59  1  0  0  0  0
 58151  1  0  0  0  0
 58152  1  0  0  0  0
 59 60  1  0  0  0  0
 59153  1  0  0  0  0
 59154  1  0  0  0  0
 60 61  1  0  0  0  0
 60155  1  0  0  0  0
 60156  1  0  0  0  0
 61157  1  0  0  0  0
 61158  1  0  0  0  0
 61159  1  0  0  0  0
M  END
>  <IDENTIFIER>
CNP0511723.2

>  <Energy>
12328.4

$$$$
