
 OpenBabel09092508243D

 61 64  0  0  0  0  0  0  0  0999 V2000
   -5.2798   -3.3506   -1.2864 C   0  0  0  0  0  0  0  0  0  0  0  0
   -4.3978   -2.2388   -0.8253 C   0  0  0  0  0  0  0  0  0  0  0  0
   -4.8967   -0.9902   -0.6657 N   0  0  0  0  0  0  0  0  0  0  0  0
   -4.1254    0.0497   -0.2451 C   0  0  0  0  0  0  0  0  0  0  0  0
   -4.7739    1.3929   -0.0965 C   0  0  0  0  0  0  0  0  0  0  0  0
   -4.0669    2.5443    0.3183 C   0  0  0  0  0  0  0  0  0  0  0  0
   -4.7213    3.7751    0.4455 C   0  0  0  0  0  0  0  0  0  0  0  0
   -6.0836    3.8825    0.1648 C   0  0  0  0  0  0  0  0  0  0  0  0
   -6.7985    2.7591   -0.2451 C   0  0  0  0  0  0  0  0  0  0  0  0
   -6.1537    1.5269   -0.3757 C   0  0  0  0  0  0  0  0  0  0  0  0
   -2.7611   -0.1962    0.0352 C   0  0  0  0  0  0  0  0  0  0  0  0
   -2.2536   -1.5004   -0.1241 C   0  0  0  0  0  0  0  0  0  0  0  0
   -0.8182   -1.9078    0.1713 C   0  0  1  0  0  0  0  0  0  0  0  0
    0.2717   -1.1516   -0.6506 C   0  0  0  0  0  0  0  0  0  0  0  0
    1.5867   -1.2086    0.0669 N   0  0  2  0  0  0  0  0  0  0  0  0
    1.7973   -2.5941    0.5751 C   0  0  0  0  0  0  0  0  0  0  0  0
    0.8220   -2.8835    1.7656 C   0  0  0  0  0  0  0  0  0  0  0  0
   -0.3658   -1.8807    1.6625 C   0  0  1  0  0  0  0  0  0  0  0  0
    0.2072   -0.4738    2.0154 C   0  0  0  0  0  0  0  0  0  0  0  0
    1.5597   -0.2999    1.2495 C   0  0  2  0  0  0  0  0  0  0  0  0
    1.9110    1.1706    0.9354 C   0  0  0  0  0  0  0  0  0  0  0  0
    3.2878    1.2985    0.4775 N   0  0  0  0  0  0  0  0  0  0  0  0
    3.7257    0.8959   -0.7521 C   0  0  0  0  0  0  0  0  0  0  0  0
    2.9279    0.4521   -1.5668 O   0  0  0  0  0  0  0  0  0  0  0  0
    5.2090    1.0004   -1.1269 C   0  0  0  0  0  0  0  0  0  0  0  0
    5.4494    0.4961   -2.5688 C   0  0  0  0  0  0  0  0  0  0  0  0
    6.0408    0.1300   -0.1629 C   0  0  0  0  0  0  0  0  0  0  0  0
    5.6775    2.4666   -1.0390 C   0  0  0  0  0  0  0  0  0  0  0  0
   -3.0937   -2.4794   -0.5565 N   0  0  0  0  0  0  0  0  0  0  0  0
   -6.3150   -2.9852   -1.4553 H   0  0  0  0  0  0  0  0  0  0  0  0
   -5.3027   -4.1498   -0.5161 H   0  0  0  0  0  0  0  0  0  0  0  0
   -4.8859   -3.7691   -2.2359 H   0  0  0  0  0  0  0  0  0  0  0  0
   -3.0143    2.5184    0.5484 H   0  0  0  0  0  0  0  0  0  0  0  0
   -4.1691    4.6499    0.7635 H   0  0  0  0  0  0  0  0  0  0  0  0
   -6.5861    4.8360    0.2651 H   0  0  0  0  0  0  0  0  0  0  0  0
   -7.8561    2.8407   -0.4623 H   0  0  0  0  0  0  0  0  0  0  0  0
   -6.7451    0.6783   -0.6952 H   0  0  0  0  0  0  0  0  0  0  0  0
   -2.1148    0.5927    0.3623 H   0  0  0  0  0  0  0  0  0  0  0  0
   -0.7819   -2.9864   -0.1119 H   0  0  0  0  0  0  0  0  0  0  0  0
   -0.0130   -0.0840   -0.7716 H   0  0  0  0  0  0  0  0  0  0  0  0
    0.3397   -1.5721   -1.6767 H   0  0  0  0  0  0  0  0  0  0  0  0
    2.8500   -2.7783    0.8780 H   0  0  0  0  0  0  0  0  0  0  0  0
    1.5892   -3.3010   -0.2601 H   0  0  0  0  0  0  0  0  0  0  0  0
    1.3190   -2.7220    2.7478 H   0  0  0  0  0  0  0  0  0  0  0  0
    0.5067   -3.9483    1.7228 H   0  0  0  0  0  0  0  0  0  0  0  0
   -1.1882   -2.1774    2.3486 H   0  0  0  0  0  0  0  0  0  0  0  0
    0.3965   -0.3488    3.1037 H   0  0  0  0  0  0  0  0  0  0  0  0
   -0.5280    0.2966    1.7334 H   0  0  0  0  0  0  0  0  0  0  0  0
    2.3650   -0.6332    1.9492 H   0  0  0  0  0  0  0  0  0  0  0  0
    1.8239    1.7231    1.8974 H   0  0  0  0  0  0  0  0  0  0  0  0
    1.2089    1.6438    0.2171 H   0  0  0  0  0  0  0  0  0  0  0  0
    3.9582    1.7251    1.1332 H   0  0  0  0  0  0  0  0  0  0  0  0
    5.1365   -0.5658   -2.6716 H   0  0  0  0  0  0  0  0  0  0  0  0
    6.5264    0.5646   -2.8363 H   0  0  0  0  0  0  0  0  0  0  0  0
    4.8732    1.1049   -3.2988 H   0  0  0  0  0  0  0  0  0  0  0  0
    5.7165   -0.9320   -0.2210 H   0  0  0  0  0  0  0  0  0  0  0  0
    5.9294    0.4694    0.8883 H   0  0  0  0  0  0  0  0  0  0  0  0
    7.1208    0.1786   -0.4225 H   0  0  0  0  0  0  0  0  0  0  0  0
    5.0860    3.1056   -1.7293 H   0  0  0  0  0  0  0  0  0  0  0  0
    6.7506    2.5499   -1.3182 H   0  0  0  0  0  0  0  0  0  0  0  0
    5.5687    2.8687   -0.0104 H   0  0  0  0  0  0  0  0  0  0  0  0
  1  2  1  0  0  0  0
  1 30  1  0  0  0  0
  1 31  1  0  0  0  0
  1 32  1  0  0  0  0
  2  3  2  0  0  0  0
  3  4  1  0  0  0  0
  4  5  1  0  0  0  0
  4 11  2  0  0  0  0
  5  6  2  0  0  0  0
  6  7  1  0  0  0  0
  6 33  1  0  0  0  0
  7  8  2  0  0  0  0
  7 34  1  0  0  0  0
  8  9  1  0  0  0  0
  8 35  1  0  0  0  0
  9 10  2  0  0  0  0
  9 36  1  0  0  0  0
 10  5  1  0  0  0  0
 10 37  1  0  0  0  0
 11 12  1  0  0  0  0
 11 38  1  0  0  0  0
 12 29  2  0  0  0  0
 13 12  1  0  0  0  0
 13 14  1  0  0  0  0
 13 39  1  6  0  0  0
 14 40  1  0  0  0  0
 14 41  1  0  0  0  0
 15 14  1  1  0  0  0
 15 16  1  0  0  0  0
 16 17  1  0  0  0  0
 16 42  1  0  0  0  0
 16 43  1  0  0  0  0
 17 44  1  0  0  0  0
 17 45  1  0  0  0  0
 18 17  1  0  0  0  0
 18 19  1  0  0  0  0
 18 13  1  0  0  0  0
 18 46  1  1  0  0  0
 19 20  1  0  0  0  0
 19 47  1  0  0  0  0
 19 48  1  0  0  0  0
 20 21  1  0  0  0  0
 20 15  1  0  0  0  0
 20 49  1  1  0  0  0
 21 22  1  0  0  0  0
 21 50  1  0  0  0  0
 21 51  1  0  0  0  0
 22 23  1  0  0  0  0
 22 52  1  0  0  0  0
 23 24  2  0  0  0  0
 23 25  1  0  0  0  0
 25 26  1  0  0  0  0
 25 27  1  0  0  0  0
 25 28  1  0  0  0  0
 26 53  1  0  0  0  0
 26 54  1  0  0  0  0
 26 55  1  0  0  0  0
 27 56  1  0  0  0  0
 27 57  1  0  0  0  0
 27 58  1  0  0  0  0
 28 59  1  0  0  0  0
 28 60  1  0  0  0  0
 28 61  1  0  0  0  0
 29  2  1  0  0  0  0
M  END
>  <IDENTIFIER>
CNP0235704.2

>  <Energy>
563.923

$$$$
