
 OpenBabel09052513013D

 68 71  0  0  0  0  0  0  0  0999 V2000
   -5.0809   -2.6335    1.7493 C   0  0  0  0  0  0  0  0  0  0  0  0
   -4.0698   -1.4813    1.6187 C   0  0  0  0  0  0  0  0  0  0  0  0
   -2.6978   -1.9930    2.0997 C   0  0  0  0  0  0  0  0  0  0  0  0
   -3.9559   -0.9203    0.1648 C   0  0  1  0  0  0  0  0  0  0  0  0
   -5.2620   -0.3171   -0.3963 C   0  0  0  0  0  0  0  0  0  0  0  0
   -6.2660   -1.2788   -0.5689 O   0  0  0  0  0  0  0  0  0  0  0  0
   -2.9443    0.1297    0.1376 N   0  0  0  0  0  0  0  0  0  0  0  0
   -1.7780    0.0223   -0.5597 C   0  0  0  0  0  0  0  0  0  0  0  0
   -1.5297   -0.9997   -1.1827 O   0  0  0  0  0  0  0  0  0  0  0  0
   -0.7483    1.1430   -0.5346 C   0  0  2  0  0  0  0  0  0  0  0  0
   -1.2291    2.3726   -1.3375 C   0  0  0  0  0  0  0  0  0  0  0  0
   -2.4273    3.0682   -0.7470 C   0  0  0  0  0  0  0  0  0  0  0  0
   -3.6771    2.9947   -1.3851 C   0  0  0  0  0  0  0  0  0  0  0  0
   -4.7862    3.6454   -0.8382 C   0  0  0  0  0  0  0  0  0  0  0  0
   -4.6528    4.3884    0.3375 C   0  0  0  0  0  0  0  0  0  0  0  0
   -3.4111    4.4746    0.9735 C   0  0  0  0  0  0  0  0  0  0  0  0
   -2.3020    3.8114    0.4389 C   0  0  0  0  0  0  0  0  0  0  0  0
    0.4913    0.6690   -1.1377 N   0  0  0  0  0  0  0  0  0  0  0  0
    1.6420    0.4726   -0.4346 C   0  0  0  0  0  0  0  0  0  0  0  0
    1.6746    0.7198    0.7639 O   0  0  0  0  0  0  0  0  0  0  0  0
    2.9121    0.0057   -1.1478 C   0  0  1  0  0  0  0  0  0  0  0  0
    3.9879   -0.0609   -0.2030 N   0  0  0  0  0  0  0  0  0  0  0  0
    5.1291    0.6502   -0.1290 C   0  0  0  0  0  0  0  0  0  0  0  0
    5.3842    1.6251   -0.8201 O   0  0  0  0  0  0  0  0  0  0  0  0
    6.0120    0.0164    0.8305 C   0  0  0  0  0  0  0  0  0  0  0  0
    7.2857    0.3572    1.2784 C   0  0  0  0  0  0  0  0  0  0  0  0
    7.9023   -0.4872    2.2201 C   0  0  0  0  0  0  0  0  0  0  0  0
    7.2415   -1.6461    2.6820 C   0  0  0  0  0  0  0  0  0  0  0  0
    5.9544   -1.9683    2.2122 C   0  0  0  0  0  0  0  0  0  0  0  0
    5.3599   -1.1167    1.2843 C   0  0  0  0  0  0  0  0  0  0  0  0
    3.9980   -1.2006    0.6644 C   0  0  2  0  0  0  0  0  0  0  0  0
    3.6642   -2.5936   -0.4394 S   0  0  0  0  0  0  0  0  0  0  0  0
    2.9149   -1.4641   -1.7262 C   0  0  0  0  0  0  0  0  0  0  0  0
    1.5378   -2.0231   -2.1172 C   0  0  0  0  0  0  0  0  0  0  0  0
    3.8355   -1.5026   -2.9595 C   0  0  0  0  0  0  0  0  0  0  0  0
   -5.0834   -3.0222    2.7902 H   0  0  0  0  0  0  0  0  0  0  0  0
   -4.8170   -3.4663    1.0619 H   0  0  0  0  0  0  0  0  0  0  0  0
   -6.1144   -2.2970    1.5469 H   0  0  0  0  0  0  0  0  0  0  0  0
   -4.3854   -0.6621    2.3025 H   0  0  0  0  0  0  0  0  0  0  0  0
   -2.3335   -2.8140    1.4447 H   0  0  0  0  0  0  0  0  0  0  0  0
   -2.7698   -2.3737    3.1409 H   0  0  0  0  0  0  0  0  0  0  0  0
   -1.9445   -1.1778    2.1008 H   0  0  0  0  0  0  0  0  0  0  0  0
   -3.6625   -1.7604   -0.5036 H   0  0  0  0  0  0  0  0  0  0  0  0
   -5.0592    0.1629   -1.3813 H   0  0  0  0  0  0  0  0  0  0  0  0
   -5.6333    0.4833    0.2790 H   0  0  0  0  0  0  0  0  0  0  0  0
   -5.9898   -1.8446   -1.3366 H   0  0  0  0  0  0  0  0  0  0  0  0
   -3.1163    0.9758    0.7010 H   0  0  0  0  0  0  0  0  0  0  0  0
   -0.5740    1.4186    0.5283 H   0  0  0  0  0  0  0  0  0  0  0  0
   -1.4588    2.0241   -2.3694 H   0  0  0  0  0  0  0  0  0  0  0  0
   -0.4112    3.1214   -1.4237 H   0  0  0  0  0  0  0  0  0  0  0  0
   -3.7958    2.4234   -2.2973 H   0  0  0  0  0  0  0  0  0  0  0  0
   -5.7485    3.5754   -1.3284 H   0  0  0  0  0  0  0  0  0  0  0  0
   -5.5113    4.8988    0.7544 H   0  0  0  0  0  0  0  0  0  0  0  0
   -3.3080    5.0572    1.8799 H   0  0  0  0  0  0  0  0  0  0  0  0
   -1.3439    3.8898    0.9379 H   0  0  0  0  0  0  0  0  0  0  0  0
    0.4841    0.4770   -2.1487 H   0  0  0  0  0  0  0  0  0  0  0  0
    3.0993    0.7681   -1.9370 H   0  0  0  0  0  0  0  0  0  0  0  0
    7.7872    1.2451    0.9155 H   0  0  0  0  0  0  0  0  0  0  0  0
    8.8896   -0.2480    2.5921 H   0  0  0  0  0  0  0  0  0  0  0  0
    7.7245   -2.2884    3.4068 H   0  0  0  0  0  0  0  0  0  0  0  0
    5.4401   -2.8505    2.5684 H   0  0  0  0  0  0  0  0  0  0  0  0
    3.1983   -1.1424    1.4318 H   0  0  0  0  0  0  0  0  0  0  0  0
    1.6402   -3.0700   -2.4757 H   0  0  0  0  0  0  0  0  0  0  0  0
    1.0754   -1.4431   -2.9395 H   0  0  0  0  0  0  0  0  0  0  0  0
    0.8680   -2.0452   -1.2327 H   0  0  0  0  0  0  0  0  0  0  0  0
    3.9096   -2.5354   -3.3633 H   0  0  0  0  0  0  0  0  0  0  0  0
    4.8570   -1.1491   -2.7064 H   0  0  0  0  0  0  0  0  0  0  0  0
    3.4261   -0.8489   -3.7614 H   0  0  0  0  0  0  0  0  0  0  0  0
  1  2  1  0  0  0  0
  1 36  1  0  0  0  0
  1 37  1  0  0  0  0
  1 38  1  0  0  0  0
  2  3  1  0  0  0  0
  2  4  1  0  0  0  0
  2 39  1  0  0  0  0
  3 40  1  0  0  0  0
  3 41  1  0  0  0  0
  3 42  1  0  0  0  0
  4  5  1  0  0  0  0
  4  7  1  0  0  0  0
  4 43  1  6  0  0  0
  5  6  1  0  0  0  0
  5 44  1  0  0  0  0
  5 45  1  0  0  0  0
  6 46  1  0  0  0  0
  7  8  1  0  0  0  0
  7 47  1  0  0  0  0
  8  9  2  0  0  0  0
  8 10  1  0  0  0  0
 10 11  1  0  0  0  0
 10 18  1  0  0  0  0
 10 48  1  1  0  0  0
 11 12  1  0  0  0  0
 11 49  1  0  0  0  0
 11 50  1  0  0  0  0
 12 13  2  0  0  0  0
 13 14  1  0  0  0  0
 13 51  1  0  0  0  0
 14 15  2  0  0  0  0
 14 52  1  0  0  0  0
 15 16  1  0  0  0  0
 15 53  1  0  0  0  0
 16 17  2  0  0  0  0
 16 54  1  0  0  0  0
 17 12  1  0  0  0  0
 17 55  1  0  0  0  0
 18 19  1  0  0  0  0
 18 56  1  0  0  0  0
 19 20  2  0  0  0  0
 21 19  1  0  0  0  0
 21 22  1  0  0  0  0
 21 57  1  6  0  0  0
 22 23  1  0  0  0  0
 23 24  2  0  0  0  0
 23 25  1  0  0  0  0
 25 26  2  0  0  0  0
 26 27  1  0  0  0  0
 26 58  1  0  0  0  0
 27 28  2  0  0  0  0
 27 59  1  0  0  0  0
 28 29  1  0  0  0  0
 28 60  1  0  0  0  0
 29 30  2  0  0  0  0
 29 61  1  0  0  0  0
 30 31  1  0  0  0  0
 30 25  1  0  0  0  0
 31 32  1  0  0  0  0
 31 22  1  0  0  0  0
 31 62  1  1  0  0  0
 32 33  1  0  0  0  0
 33 34  1  0  0  0  0
 33 35  1  0  0  0  0
 33 21  1  0  0  0  0
 34 63  1  0  0  0  0
 34 64  1  0  0  0  0
 34 65  1  0  0  0  0
 35 66  1  0  0  0  0
 35 67  1  0  0  0  0
 35 68  1  0  0  0  0
M  END
>  <IDENTIFIER>
CNP0273095.1

>  <Energy>
546.557

$$$$
