
 OpenBabel09112504203D

 61 65  0  0  0  0  0  0  0  0999 V2000
   -3.2139    4.6376   -0.3312 C   0  0  0  0  0  0  0  0  0  0  0  0
   -2.9222    3.2346    0.1935 C   0  0  0  0  0  0  0  0  0  0  0  0
   -2.0838    2.4222   -0.8191 C   0  0  0  0  0  0  0  0  0  0  0  0
   -1.7888    0.9488   -0.3995 C   0  0  2  0  0  0  0  0  0  0  0  0
   -1.0602    0.8609    0.9669 C   0  0  0  0  0  0  0  0  0  0  0  0
   -0.7724   -0.5496    1.3151 N   0  0  1  0  0  0  0  0  0  0  0  0
   -2.0509   -1.3013    1.4432 C   0  0  0  0  0  0  0  0  0  0  0  0
   -2.7933   -1.3470    0.0716 C   0  0  2  0  0  0  0  0  0  0  0  0
   -4.1295   -2.1464    0.1450 C   0  0  0  0  0  0  0  0  0  0  0  0
   -3.9824   -3.6385    0.5060 C   0  0  0  0  0  0  0  0  0  0  0  0
   -5.3417   -4.3301    0.5419 C   0  0  0  0  0  0  0  0  0  0  0  0
   -1.8341   -1.9176   -1.0192 C   0  0  0  0  0  0  0  0  0  0  0  0
   -0.5698   -1.1350   -1.0571 N   0  0  1  0  0  0  0  0  0  0  0  0
   -0.8877    0.2608   -1.4576 C   0  0  0  0  0  0  0  0  0  0  0  0
    0.0623   -1.2358    0.2937 C   0  0  1  0  0  0  0  0  0  0  0  0
    1.5839   -0.9365    0.3621 C   0  0  0  0  0  0  0  0  0  0  0  0
    2.1645    0.3032    0.0080 C   0  0  0  0  0  0  0  0  0  0  0  0
    3.5542    0.4963    0.0591 C   0  0  0  0  0  0  0  0  0  0  0  0
    4.1347    1.7155   -0.3287 C   0  0  0  0  0  0  0  0  0  0  0  0
    5.5242    1.8820   -0.2845 C   0  0  0  0  0  0  0  0  0  0  0  0
    6.3538    0.8321    0.1596 C   0  0  0  0  0  0  0  0  0  0  0  0
    7.7072    0.9365    0.2193 O   0  0  0  0  0  0  0  0  0  0  0  0
    8.4533    2.0229   -0.1843 C   0  0  0  0  0  0  0  0  0  0  0  0
    5.7707   -0.3756    0.5522 C   0  0  0  0  0  0  0  0  0  0  0  0
    4.3801   -0.5527    0.4983 C   0  0  0  0  0  0  0  0  0  0  0  0
    3.8293   -1.7376    0.8623 N   0  0  0  0  0  0  0  0  0  0  0  0
    2.4774   -1.9598    0.8026 C   0  0  0  0  0  0  0  0  0  0  0  0
    2.0609   -3.0554    1.1391 O   0  0  0  0  0  0  0  0  0  0  0  0
   -3.0362    0.0946   -0.3052 C   0  0  0  0  0  0  0  0  0  0  0  0
   -4.1566    0.5271   -0.5426 O   0  0  0  0  0  0  0  0  0  0  0  0
   -3.8129    5.1972    0.4185 H   0  0  0  0  0  0  0  0  0  0  0  0
   -3.7947    4.5820   -1.2766 H   0  0  0  0  0  0  0  0  0  0  0  0
   -2.2670    5.1884   -0.5135 H   0  0  0  0  0  0  0  0  0  0  0  0
   -3.8939    2.7414    0.3945 H   0  0  0  0  0  0  0  0  0  0  0  0
   -2.3743    3.3354    1.1529 H   0  0  0  0  0  0  0  0  0  0  0  0
   -1.1181    2.9549   -0.9643 H   0  0  0  0  0  0  0  0  0  0  0  0
   -2.6144    2.4085   -1.7974 H   0  0  0  0  0  0  0  0  0  0  0  0
   -1.6901    1.2985    1.7718 H   0  0  0  0  0  0  0  0  0  0  0  0
   -0.1300    1.4575    0.9639 H   0  0  0  0  0  0  0  0  0  0  0  0
   -2.6972   -0.8315    2.2171 H   0  0  0  0  0  0  0  0  0  0  0  0
   -1.8304   -2.3273    1.8072 H   0  0  0  0  0  0  0  0  0  0  0  0
   -4.6354   -2.0803   -0.8442 H   0  0  0  0  0  0  0  0  0  0  0  0
   -4.7896   -1.6668    0.9021 H   0  0  0  0  0  0  0  0  0  0  0  0
   -3.5132   -3.7531    1.5041 H   0  0  0  0  0  0  0  0  0  0  0  0
   -3.3605   -4.1618   -0.2481 H   0  0  0  0  0  0  0  0  0  0  0  0
   -5.9946   -3.8596    1.3071 H   0  0  0  0  0  0  0  0  0  0  0  0
   -5.2056   -5.4018    0.8000 H   0  0  0  0  0  0  0  0  0  0  0  0
   -5.8341   -4.2647   -0.4517 H   0  0  0  0  0  0  0  0  0  0  0  0
   -2.3269   -1.8942   -2.0176 H   0  0  0  0  0  0  0  0  0  0  0  0
   -1.5904   -2.9816   -0.8227 H   0  0  0  0  0  0  0  0  0  0  0  0
   -1.4061    0.2556   -2.4438 H   0  0  0  0  0  0  0  0  0  0  0  0
    0.0319    0.8319   -1.6471 H   0  0  0  0  0  0  0  0  0  0  0  0
    0.0216   -2.3115    0.5590 H   0  0  0  0  0  0  0  0  0  0  0  0
    1.5738    1.1329   -0.3227 H   0  0  0  0  0  0  0  0  0  0  0  0
    3.5168    2.5353   -0.6752 H   0  0  0  0  0  0  0  0  0  0  0  0
    5.9431    2.8292   -0.5969 H   0  0  0  0  0  0  0  0  0  0  0  0
    9.5274    1.8071   -0.0099 H   0  0  0  0  0  0  0  0  0  0  0  0
    8.1726    2.9235    0.4017 H   0  0  0  0  0  0  0  0  0  0  0  0
    8.3014    2.2076   -1.2694 H   0  0  0  0  0  0  0  0  0  0  0  0
    6.4072   -1.1843    0.8914 H   0  0  0  0  0  0  0  0  0  0  0  0
    4.4496   -2.5144    1.1915 H   0  0  0  0  0  0  0  0  0  0  0  0
  1  2  1  0  0  0  0
  1 31  1  0  0  0  0
  1 32  1  0  0  0  0
  1 33  1  0  0  0  0
  2  3  1  0  0  0  0
  2 34  1  0  0  0  0
  2 35  1  0  0  0  0
  3 36  1  0  0  0  0
  3 37  1  0  0  0  0
  4  3  1  6  0  0  0
  4  5  1  0  0  0  0
  5 38  1  0  0  0  0
  5 39  1  0  0  0  0
  6  5  1  6  0  0  0
  6  7  1  0  0  0  0
  7  8  1  0  0  0  0
  7 40  1  0  0  0  0
  7 41  1  0  0  0  0
  8  9  1  1  0  0  0
  8 12  1  0  0  0  0
  8 29  1  0  0  0  0
  9 10  1  0  0  0  0
  9 42  1  0  0  0  0
  9 43  1  0  0  0  0
 10 11  1  0  0  0  0
 10 44  1  0  0  0  0
 10 45  1  0  0  0  0
 11 46  1  0  0  0  0
 11 47  1  0  0  0  0
 11 48  1  0  0  0  0
 12 49  1  0  0  0  0
 12 50  1  0  0  0  0
 13 12  1  1  0  0  0
 13 14  1  0  0  0  0
 13 15  1  0  0  0  0
 14  4  1  0  0  0  0
 14 51  1  0  0  0  0
 14 52  1  0  0  0  0
 15 16  1  0  0  0  0
 15  6  1  0  0  0  0
 15 53  1  1  0  0  0
 16 17  2  0  0  0  0
 17 18  1  0  0  0  0
 17 54  1  0  0  0  0
 18 19  2  0  0  0  0
 19 20  1  0  0  0  0
 19 55  1  0  0  0  0
 20 21  2  0  0  0  0
 20 56  1  0  0  0  0
 21 22  1  0  0  0  0
 21 24  1  0  0  0  0
 22 23  1  0  0  0  0
 23 57  1  0  0  0  0
 23 58  1  0  0  0  0
 23 59  1  0  0  0  0
 24 25  2  0  0  0  0
 24 60  1  0  0  0  0
 25 26  1  0  0  0  0
 25 18  1  0  0  0  0
 26 27  1  0  0  0  0
 26 61  1  0  0  0  0
 27 28  2  0  0  0  0
 27 16  1  0  0  0  0
 29 30  2  0  0  0  0
 29  4  1  0  0  0  0
M  END
>  <IDENTIFIER>
CNP0163151.0

>  <Energy>
432.481

$$$$
