
 OpenBabel09092517183D

 70 75  0  0  0  0  0  0  0  0999 V2000
   -1.4774   -1.4828    1.5976 C   0  0  0  0  0  0  0  0  0  0  0  0
   -0.9877   -0.8444    0.3054 C   0  0  0  0  0  0  0  0  0  0  0  0
    0.3551   -0.7004    0.0401 C   0  0  0  0  0  0  0  0  0  0  0  0
    1.5421   -1.0794    0.8527 C   0  0  0  0  0  0  0  0  0  0  0  0
    1.5279   -1.7870    1.8448 O   0  0  0  0  0  0  0  0  0  0  0  0
    2.5642   -0.0158    0.6265 C   0  0  2  0  0  0  0  0  0  0  0  0
    2.3081    0.4957   -0.7789 C   0  0  2  0  0  0  0  0  0  0  0  0
    2.7260    1.9749   -0.8059 C   0  0  0  0  0  0  0  0  0  0  0  0
    4.1602    2.1000   -0.3222 C   0  0  0  0  0  0  0  0  0  0  0  0
    4.7984    1.1345    0.4052 C   0  0  0  0  0  0  0  0  0  0  0  0
    6.3052    1.2408    0.6048 C   0  0  0  0  0  0  0  0  0  0  0  0
    6.9891   -0.1560    0.5110 C   0  0  2  0  0  0  0  0  0  0  0  0
    8.3306   -0.0190    0.1139 O   0  0  0  0  0  0  0  0  0  0  0  0
    6.1931   -1.0671   -0.4429 C   0  0  0  0  0  0  0  0  0  0  0  0
    4.7645   -1.3653    0.1153 C   0  0  0  0  0  0  0  0  0  0  0  0
    4.1000   -0.1568    0.8767 C   0  0  2  0  0  0  0  0  0  0  0  0
    4.2939   -0.3110    2.4121 C   0  0  0  0  0  0  0  0  0  0  0  0
    0.8639    0.0919   -1.1313 C   0  0  2  0  0  0  0  0  0  0  0  0
   -0.0937    1.1793   -1.5898 C   0  0  0  0  0  0  0  0  0  0  0  0
   -1.4007    0.4654   -1.9039 C   0  0  0  0  0  0  0  0  0  0  0  0
   -2.0359   -0.1398   -0.6213 C   0  0  2  0  0  0  0  0  0  0  0  0
   -2.5563    0.9480    0.1490 O   0  0  0  0  0  0  0  0  0  0  0  0
   -3.9518    0.8683    0.0193 C   0  0  2  0  0  0  0  0  0  0  0  0
   -4.7504    1.4754    1.1620 C   0  0  0  0  0  0  0  0  0  0  0  0
   -6.2761    1.2543    0.8973 C   0  0  2  0  0  0  0  0  0  0  0  0
   -6.9676    0.7485    2.1662 C   0  0  0  0  0  0  0  0  0  0  0  0
   -6.5549    0.3138   -0.3216 C   0  0  0  0  0  0  0  0  0  0  0  0
   -5.7136   -0.9008   -0.3146 N   0  0  0  0  0  0  0  0  0  0  0  0
   -4.2835   -0.6208   -0.0336 C   0  0  1  0  0  0  0  0  0  0  0  0
   -3.2743   -0.9984   -1.0861 C   0  0  2  0  0  0  0  0  0  0  0  0
   -3.0589   -2.4931   -1.3643 C   0  0  0  0  0  0  0  0  0  0  0  0
   -0.6911   -1.8761    2.2548 H   0  0  0  0  0  0  0  0  0  0  0  0
   -2.1534   -2.3325    1.4162 H   0  0  0  0  0  0  0  0  0  0  0  0
   -2.0243   -0.7220    2.1915 H   0  0  0  0  0  0  0  0  0  0  0  0
    2.1921    0.7754    1.3231 H   0  0  0  0  0  0  0  0  0  0  0  0
    2.9507   -0.0518   -1.5034 H   0  0  0  0  0  0  0  0  0  0  0  0
    2.0745    2.6210   -0.1776 H   0  0  0  0  0  0  0  0  0  0  0  0
    2.6597    2.3238   -1.8575 H   0  0  0  0  0  0  0  0  0  0  0  0
    4.7041    2.9859   -0.6366 H   0  0  0  0  0  0  0  0  0  0  0  0
    6.5899    1.7836    1.5306 H   0  0  0  0  0  0  0  0  0  0  0  0
    6.6851    1.8455   -0.2489 H   0  0  0  0  0  0  0  0  0  0  0  0
    7.0009   -0.6715    1.4881 H   0  0  0  0  0  0  0  0  0  0  0  0
    8.3353    0.3094   -0.8234 H   0  0  0  0  0  0  0  0  0  0  0  0
    6.7143   -2.0262   -0.6490 H   0  0  0  0  0  0  0  0  0  0  0  0
    6.1029   -0.5196   -1.4089 H   0  0  0  0  0  0  0  0  0  0  0  0
    4.7899   -2.2391    0.8016 H   0  0  0  0  0  0  0  0  0  0  0  0
    4.1697   -1.7024   -0.7577 H   0  0  0  0  0  0  0  0  0  0  0  0
    3.8122   -1.2421    2.7757 H   0  0  0  0  0  0  0  0  0  0  0  0
    3.8417    0.5471    2.9531 H   0  0  0  0  0  0  0  0  0  0  0  0
    5.3463   -0.3584    2.7321 H   0  0  0  0  0  0  0  0  0  0  0  0
    0.9399   -0.6455   -1.9663 H   0  0  0  0  0  0  0  0  0  0  0  0
    0.3031    1.6518   -2.5139 H   0  0  0  0  0  0  0  0  0  0  0  0
   -0.2429    1.9595   -0.8126 H   0  0  0  0  0  0  0  0  0  0  0  0
   -1.1995   -0.3391   -2.6485 H   0  0  0  0  0  0  0  0  0  0  0  0
   -2.1136    1.1752   -2.3776 H   0  0  0  0  0  0  0  0  0  0  0  0
   -4.2201    1.4087   -0.9205 H   0  0  0  0  0  0  0  0  0  0  0  0
   -4.5277    2.5555    1.3014 H   0  0  0  0  0  0  0  0  0  0  0  0
   -4.4294    0.9519    2.0909 H   0  0  0  0  0  0  0  0  0  0  0  0
   -6.7406    2.2318    0.6367 H   0  0  0  0  0  0  0  0  0  0  0  0
   -6.5627   -0.2432    2.4600 H   0  0  0  0  0  0  0  0  0  0  0  0
   -8.0604    0.6539    1.9923 H   0  0  0  0  0  0  0  0  0  0  0  0
   -6.8085    1.4684    2.9975 H   0  0  0  0  0  0  0  0  0  0  0  0
   -6.3341    0.8761   -1.2566 H   0  0  0  0  0  0  0  0  0  0  0  0
   -7.6322    0.0488   -0.3827 H   0  0  0  0  0  0  0  0  0  0  0  0
   -5.8362   -1.4075   -1.2217 H   0  0  0  0  0  0  0  0  0  0  0  0
   -4.0285   -1.0961    0.9349 H   0  0  0  0  0  0  0  0  0  0  0  0
   -3.6765   -0.5672   -2.0360 H   0  0  0  0  0  0  0  0  0  0  0  0
   -2.7222   -3.0580   -0.4808 H   0  0  0  0  0  0  0  0  0  0  0  0
   -2.3043   -2.6203   -2.1676 H   0  0  0  0  0  0  0  0  0  0  0  0
   -4.0113   -2.9515   -1.7047 H   0  0  0  0  0  0  0  0  0  0  0  0
  1  2  1  0  0  0  0
  1 32  1  0  0  0  0
  1 33  1  0  0  0  0
  1 34  1  0  0  0  0
  2  3  2  0  0  0  0
  3  4  1  0  0  0  0
  4  5  2  0  0  0  0
  6  4  1  0  0  0  0
  6  7  1  0  0  0  0
  6 35  1  1  0  0  0
  7  8  1  0  0  0  0
  7 18  1  0  0  0  0
  7 36  1  6  0  0  0
  8  9  1  0  0  0  0
  8 37  1  0  0  0  0
  8 38  1  0  0  0  0
  9 10  2  0  0  0  0
  9 39  1  0  0  0  0
 10 11  1  0  0  0  0
 11 12  1  0  0  0  0
 11 40  1  0  0  0  0
 11 41  1  0  0  0  0
 12 13  1  0  0  0  0
 12 14  1  0  0  0  0
 12 42  1  1  0  0  0
 13 43  1  0  0  0  0
 14 15  1  0  0  0  0
 14 44  1  0  0  0  0
 14 45  1  0  0  0  0
 15 16  1  0  0  0  0
 15 46  1  0  0  0  0
 15 47  1  0  0  0  0
 16 17  1  1  0  0  0
 16  6  1  0  0  0  0
 16 10  1  0  0  0  0
 17 48  1  0  0  0  0
 17 49  1  0  0  0  0
 17 50  1  0  0  0  0
 18 19  1  0  0  0  0
 18  3  1  0  0  0  0
 18 51  1  6  0  0  0
 19 20  1  0  0  0  0
 19 52  1  0  0  0  0
 19 53  1  0  0  0  0
 20 54  1  0  0  0  0
 20 55  1  0  0  0  0
 21 20  1  0  0  0  0
 21 22  1  1  0  0  0
 21  2  1  0  0  0  0
 22 23  1  0  0  0  0
 23 24  1  0  0  0  0
 23 56  1  6  0  0  0
 24 25  1  0  0  0  0
 24 57  1  0  0  0  0
 24 58  1  0  0  0  0
 25 26  1  0  0  0  0
 25 27  1  0  0  0  0
 25 59  1  6  0  0  0
 26 60  1  0  0  0  0
 26 61  1  0  0  0  0
 26 62  1  0  0  0  0
 27 28  1  0  0  0  0
 27 63  1  0  0  0  0
 27 64  1  0  0  0  0
 28 65  1  0  0  0  0
 29 28  1  0  0  0  0
 29 30  1  0  0  0  0
 29 23  1  0  0  0  0
 29 66  1  1  0  0  0
 30 31  1  0  0  0  0
 30 21  1  0  0  0  0
 30 67  1  6  0  0  0
 31 68  1  0  0  0  0
 31 69  1  0  0  0  0
 31 70  1  0  0  0  0
M  END
>  <IDENTIFIER>
CNP0172186.12

>  <Energy>
1158.37

$$$$
