
 OpenBabel09092510013D

145152  0  0  0  0  0  0  0  0999 V2000
   11.8893   -0.1866    0.2536 C   0  0  0  0  0  0  0  0  0  0  0  0
   10.9138    0.6721    1.0828 C   0  0  2  0  0  0  0  0  0  0  0  0
    9.9041   -0.1333    1.6668 O   0  0  0  0  0  0  0  0  0  0  0  0
    8.7982   -0.4859    0.8283 C   0  0  1  0  0  0  0  0  0  0  0  0
    7.6328   -0.3232    1.6369 O   0  0  0  0  0  0  0  0  0  0  0  0
    6.7937   -1.4714    1.6884 C   0  0  1  0  0  0  0  0  0  0  0  0
    6.5063   -1.8206    3.1609 C   0  0  2  0  0  0  0  0  0  0  0  0
    5.8187   -3.0532    3.2164 O   0  0  0  0  0  0  0  0  0  0  0  0
    5.6895   -0.6836    3.8513 C   0  0  1  0  0  0  0  0  0  0  0  0
    6.5096    0.2449    4.5177 O   0  0  0  0  0  0  0  0  0  0  0  0
    4.7714    0.0472    2.8378 C   0  0  2  0  0  0  0  0  0  0  0  0
    3.6262    0.5265    3.5294 O   0  0  0  0  0  0  0  0  0  0  0  0
    3.1938    1.7920    3.0620 C   0  0  0  0  0  0  0  0  0  0  0  0
    2.5946    1.7283    1.6431 C   0  0  1  0  0  0  0  0  0  0  0  0
    1.5237    0.7855    1.6155 O   0  0  0  0  0  0  0  0  0  0  0  0
    1.1010    0.5675    0.2769 C   0  0  1  0  0  0  0  0  0  0  0  0
    0.1490   -0.4482    0.2430 O   0  0  0  0  0  0  0  0  0  0  0  0
    0.3884   -1.6789   -0.2954 C   0  0  0  0  0  0  0  0  0  0  0  0
    1.5438   -2.0358   -0.4758 O   0  0  0  0  0  0  0  0  0  0  0  0
   -0.7571   -2.6078   -0.7456 C   0  0  2  0  0  0  0  0  0  0  0  0
   -0.1491   -3.9065   -1.4224 C   0  0  0  0  0  0  0  0  0  0  0  0
    0.2576   -3.6231   -2.8741 C   0  0  0  0  0  0  0  0  0  0  0  0
   -1.0021   -3.3416   -3.7617 C   0  0  0  0  0  0  0  0  0  0  0  0
   -0.5921   -2.3978   -4.9139 C   0  0  0  0  0  0  0  0  0  0  0  0
   -1.5266   -4.6552   -4.3881 C   0  0  0  0  0  0  0  0  0  0  0  0
   -2.1655   -2.7153   -2.9174 C   0  0  0  0  0  0  0  0  0  0  0  0
   -1.6294   -1.8083   -1.7899 C   0  0  1  0  0  0  0  0  0  0  0  0
   -2.7066   -0.9161   -1.1375 C   0  0  0  0  0  0  0  0  0  0  0  0
   -2.8482    0.3300   -1.6418 C   0  0  0  0  0  0  0  0  0  0  0  0
   -3.8905    1.3152   -1.2228 C   0  0  0  0  0  0  0  0  0  0  0  0
   -5.0486    0.6603   -0.4361 C   0  0  2  0  0  0  0  0  0  0  0  0
   -6.2504    1.6719   -0.1010 C   0  0  1  0  0  0  0  0  0  0  0  0
   -5.7776    2.9230    0.7125 C   0  0  0  0  0  0  0  0  0  0  0  0
   -6.8380    2.2045   -1.4494 C   0  0  0  0  0  0  0  0  0  0  0  0
   -8.1911    2.9372   -1.2992 C   0  0  1  0  0  0  0  0  0  0  0  0
   -8.6325    3.3877   -2.5574 O   0  0  0  0  0  0  0  0  0  0  0  0
   -9.2412    1.9965   -0.6608 C   0  0  2  0  0  0  0  0  0  0  0  0
  -10.5196    2.5889   -0.6401 O   0  0  0  0  0  0  0  0  0  0  0  0
   -8.8195    1.4541    0.7535 C   0  0  2  0  0  0  0  0  0  0  0  0
   -9.8381    0.3307    1.1190 C   0  0  0  0  0  0  0  0  0  0  0  0
   -8.9156    2.5381    1.8711 C   0  0  0  0  0  0  0  0  0  0  0  0
  -10.2438    2.9646    2.0454 O   0  0  0  0  0  0  0  0  0  0  0  0
   -7.3695    0.8123    0.6142 C   0  0  2  0  0  0  0  0  0  0  0  0
   -6.7853    0.1823    1.9161 C   0  0  0  0  0  0  0  0  0  0  0  0
   -5.6753   -0.8194    1.5496 C   0  0  0  0  0  0  0  0  0  0  0  0
   -4.4684   -0.2337    0.7287 C   0  0  2  0  0  0  0  0  0  0  0  0
   -3.5960    0.6075    1.7124 C   0  0  0  0  0  0  0  0  0  0  0  0
   -3.5595   -1.4263    0.0541 C   0  0  1  0  0  0  0  0  0  0  0  0
   -4.4843   -2.5818   -0.4533 C   0  0  0  0  0  0  0  0  0  0  0  0
   -2.5298   -2.0285    1.0772 C   0  0  0  0  0  0  0  0  0  0  0  0
   -1.6030   -3.1024    0.4688 C   0  0  0  0  0  0  0  0  0  0  0  0
    0.4834    1.8586   -0.3049 C   0  0  2  0  0  0  0  0  0  0  0  0
    0.0459    1.6680   -1.6254 O   0  0  0  0  0  0  0  0  0  0  0  0
    1.5191    3.0005   -0.2374 C   0  0  1  0  0  0  0  0  0  0  0  0
    0.9710    4.2177   -0.6780 O   0  0  0  0  0  0  0  0  0  0  0  0
    2.0763    3.1180    1.1944 C   0  0  2  0  0  0  0  0  0  0  0  0
    3.0849    4.0969    1.2537 O   0  0  0  0  0  0  0  0  0  0  0  0
    4.3593   -0.8517    1.8275 O   0  0  0  0  0  0  0  0  0  0  0  0
    5.4398   -1.1707    0.9438 C   0  0  2  0  0  0  0  0  0  0  0  0
    5.0029   -2.3680    0.0864 C   0  0  0  0  0  0  0  0  0  0  0  0
    5.9781   -2.6845   -0.8714 O   0  0  0  0  0  0  0  0  0  0  0  0
    8.5967    0.3727   -0.4616 C   0  0  2  0  0  0  0  0  0  0  0  0
    9.4306   -0.0244   -1.5163 O   0  0  0  0  0  0  0  0  0  0  0  0
    8.8904    1.8142   -0.0813 C   0  0  2  0  0  0  0  0  0  0  0  0
    8.5763    2.7231   -1.1070 O   0  0  0  0  0  0  0  0  0  0  0  0
   10.3644    1.9496    0.3627 C   0  0  1  0  0  0  0  0  0  0  0  0
   10.4984    3.0939    1.1702 O   0  0  0  0  0  0  0  0  0  0  0  0
   12.3166   -0.9843    0.8978 H   0  0  0  0  0  0  0  0  0  0  0  0
   12.7294    0.4413   -0.1138 H   0  0  0  0  0  0  0  0  0  0  0  0
   11.4294   -0.6879   -0.6114 H   0  0  0  0  0  0  0  0  0  0  0  0
   11.5643    1.0398    1.9072 H   0  0  0  0  0  0  0  0  0  0  0  0
    8.9605   -1.5335    0.4907 H   0  0  0  0  0  0  0  0  0  0  0  0
    7.2787   -2.3725    1.2524 H   0  0  0  0  0  0  0  0  0  0  0  0
    7.4481   -1.9813    3.7291 H   0  0  0  0  0  0  0  0  0  0  0  0
    4.8459   -2.9002    3.1037 H   0  0  0  0  0  0  0  0  0  0  0  0
    5.0842   -1.1858    4.6388 H   0  0  0  0  0  0  0  0  0  0  0  0
    7.1442    0.6270    3.8585 H   0  0  0  0  0  0  0  0  0  0  0  0
    5.3572    0.8757    2.3631 H   0  0  0  0  0  0  0  0  0  0  0  0
    4.0193    2.5361    3.1281 H   0  0  0  0  0  0  0  0  0  0  0  0
    2.4057    2.1489    3.7592 H   0  0  0  0  0  0  0  0  0  0  0  0
    3.4154    1.4093    0.9603 H   0  0  0  0  0  0  0  0  0  0  0  0
    1.9819    0.2840   -0.3482 H   0  0  0  0  0  0  0  0  0  0  0  0
   -0.8912   -4.7326   -1.4699 H   0  0  0  0  0  0  0  0  0  0  0  0
    0.6972   -4.2986   -0.8175 H   0  0  0  0  0  0  0  0  0  0  0  0
    0.8592   -4.4478   -3.3143 H   0  0  0  0  0  0  0  0  0  0  0  0
    0.9237   -2.7340   -2.8420 H   0  0  0  0  0  0  0  0  0  0  0  0
    0.2129   -2.8582   -5.5265 H   0  0  0  0  0  0  0  0  0  0  0  0
   -0.2195   -1.4260   -4.5282 H   0  0  0  0  0  0  0  0  0  0  0  0
   -1.4592   -2.1919   -5.5782 H   0  0  0  0  0  0  0  0  0  0  0  0
   -0.7466   -5.1283   -5.0224 H   0  0  0  0  0  0  0  0  0  0  0  0
   -2.4186   -4.4586   -5.0220 H   0  0  0  0  0  0  0  0  0  0  0  0
   -1.8147   -5.3856   -3.6022 H   0  0  0  0  0  0  0  0  0  0  0  0
   -2.7096   -3.5453   -2.4545 H   0  0  0  0  0  0  0  0  0  0  0  0
   -2.8819   -2.1892   -3.5860 H   0  0  0  0  0  0  0  0  0  0  0  0
   -0.9480   -1.1408   -2.3641 H   0  0  0  0  0  0  0  0  0  0  0  0
   -2.1956    0.6659   -2.4419 H   0  0  0  0  0  0  0  0  0  0  0  0
   -4.3015    1.7347   -2.1610 H   0  0  0  0  0  0  0  0  0  0  0  0
   -3.3815    2.1356   -0.6805 H   0  0  0  0  0  0  0  0  0  0  0  0
   -5.5098   -0.0664   -1.1365 H   0  0  0  0  0  0  0  0  0  0  0  0
   -4.8978    3.3988    0.2422 H   0  0  0  0  0  0  0  0  0  0  0  0
   -5.5662    2.7407    1.7695 H   0  0  0  0  0  0  0  0  0  0  0  0
   -6.5005    3.7423    0.7346 H   0  0  0  0  0  0  0  0  0  0  0  0
   -7.0082    1.3459   -2.1366 H   0  0  0  0  0  0  0  0  0  0  0  0
   -6.1247    2.8970   -1.9442 H   0  0  0  0  0  0  0  0  0  0  0  0
   -8.0820    3.8389   -0.6694 H   0  0  0  0  0  0  0  0  0  0  0  0
   -8.7510    2.5952   -3.1439 H   0  0  0  0  0  0  0  0  0  0  0  0
   -9.3104    1.1255   -1.3521 H   0  0  0  0  0  0  0  0  0  0  0  0
  -10.4196    3.5416   -0.3810 H   0  0  0  0  0  0  0  0  0  0  0  0
  -10.8801    0.7156    1.1231 H   0  0  0  0  0  0  0  0  0  0  0  0
   -9.6582   -0.0970    2.1239 H   0  0  0  0  0  0  0  0  0  0  0  0
   -9.8031   -0.4966    0.3767 H   0  0  0  0  0  0  0  0  0  0  0  0
   -8.2905    3.4098    1.6460 H   0  0  0  0  0  0  0  0  0  0  0  0
   -8.5715    2.1086    2.8358 H   0  0  0  0  0  0  0  0  0  0  0  0
  -10.2144    3.8930    2.3953 H   0  0  0  0  0  0  0  0  0  0  0  0
   -7.5650   -0.0356   -0.0841 H   0  0  0  0  0  0  0  0  0  0  0  0
   -7.5558   -0.4149    2.4401 H   0  0  0  0  0  0  0  0  0  0  0  0
   -6.4387    0.9444    2.6384 H   0  0  0  0  0  0  0  0  0  0  0  0
   -6.2436   -1.5473    0.9453 H   0  0  0  0  0  0  0  0  0  0  0  0
   -5.3112   -1.3540    2.4534 H   0  0  0  0  0  0  0  0  0  0  0  0
   -3.2557   -0.0134    2.5661 H   0  0  0  0  0  0  0  0  0  0  0  0
   -4.1261    1.4128    2.2162 H   0  0  0  0  0  0  0  0  0  0  0  0
   -2.7000    1.0320    1.2166 H   0  0  0  0  0  0  0  0  0  0  0  0
   -4.9914   -3.0924    0.3888 H   0  0  0  0  0  0  0  0  0  0  0  0
   -3.9732   -3.4218   -0.9116 H   0  0  0  0  0  0  0  0  0  0  0  0
   -5.2302   -2.2299   -1.1923 H   0  0  0  0  0  0  0  0  0  0  0  0
   -3.0730   -2.4666    1.9429 H   0  0  0  0  0  0  0  0  0  0  0  0
   -1.8522   -1.2448    1.4635 H   0  0  0  0  0  0  0  0  0  0  0  0
   -2.2374   -3.9577    0.1715 H   0  0  0  0  0  0  0  0  0  0  0  0
   -0.9207   -3.5003    1.2523 H   0  0  0  0  0  0  0  0  0  0  0  0
   -0.3974    2.1277    0.3207 H   0  0  0  0  0  0  0  0  0  0  0  0
    0.8240    1.3640   -2.1617 H   0  0  0  0  0  0  0  0  0  0  0  0
    2.3640    2.7405   -0.9137 H   0  0  0  0  0  0  0  0  0  0  0  0
    0.2188    4.4437   -0.0700 H   0  0  0  0  0  0  0  0  0  0  0  0
    1.2565    3.4224    1.8826 H   0  0  0  0  0  0  0  0  0  0  0  0
    3.8405    3.7860    0.6892 H   0  0  0  0  0  0  0  0  0  0  0  0
    5.5821   -0.3370    0.2222 H   0  0  0  0  0  0  0  0  0  0  0  0
    4.0461   -2.1356   -0.4272 H   0  0  0  0  0  0  0  0  0  0  0  0
    4.8223   -3.2596    0.7211 H   0  0  0  0  0  0  0  0  0  0  0  0
    5.9332   -1.9785   -1.5685 H   0  0  0  0  0  0  0  0  0  0  0  0
    7.5437    0.2818   -0.8116 H   0  0  0  0  0  0  0  0  0  0  0  0
    9.0791   -0.8921   -1.8489 H   0  0  0  0  0  0  0  0  0  0  0  0
    8.2241    2.0424    0.7813 H   0  0  0  0  0  0  0  0  0  0  0  0
    9.1263    2.4877   -1.8982 H   0  0  0  0  0  0  0  0  0  0  0  0
   11.0157    2.1068   -0.5247 H   0  0  0  0  0  0  0  0  0  0  0  0
   10.0267    2.9099    2.0249 H   0  0  0  0  0  0  0  0  0  0  0  0
  1 68  1  0  0  0  0
  1 69  1  0  0  0  0
  1 70  1  0  0  0  0
  2  1  1  0  0  0  0
  2  3  1  0  0  0  0
  2 71  1  1  0  0  0
  3  4  1  0  0  0  0
  4  5  1  0  0  0  0
  4 62  1  0  0  0  0
  4 72  1  6  0  0  0
  6  5  1  0  0  0  0
  6  7  1  0  0  0  0
  6 73  1  6  0  0  0
  7  8  1  0  0  0  0
  7  9  1  0  0  0  0
  7 74  1  1  0  0  0
  8 75  1  0  0  0  0
  9 10  1  0  0  0  0
  9 11  1  0  0  0  0
  9 76  1  1  0  0  0
 10 77  1  0  0  0  0
 11 12  1  0  0  0  0
 11 58  1  0  0  0  0
 11 78  1  6  0  0  0
 12 13  1  0  0  0  0
 13 79  1  0  0  0  0
 13 80  1  0  0  0  0
 14 13  1  0  0  0  0
 14 15  1  0  0  0  0
 14 81  1  6  0  0  0
 15 16  1  0  0  0  0
 16 17  1  0  0  0  0
 16 52  1  0  0  0  0
 16 82  1  6  0  0  0
 17 18  1  0  0  0  0
 18 19  2  0  0  0  0
 20 18  1  1  0  0  0
 20 21  1  0  0  0  0
 21 22  1  0  0  0  0
 21 83  1  0  0  0  0
 21 84  1  0  0  0  0
 22 23  1  0  0  0  0
 22 85  1  0  0  0  0
 22 86  1  0  0  0  0
 23 24  1  0  0  0  0
 23 25  1  0  0  0  0
 23 26  1  0  0  0  0
 24 87  1  0  0  0  0
 24 88  1  0  0  0  0
 24 89  1  0  0  0  0
 25 90  1  0  0  0  0
 25 91  1  0  0  0  0
 25 92  1  0  0  0  0
 26 93  1  0  0  0  0
 26 94  1  0  0  0  0
 27 26  1  0  0  0  0
 27 28  1  0  0  0  0
 27 20  1  0  0  0  0
 27 95  1  6  0  0  0
 28 29  2  0  0  0  0
 29 30  1  0  0  0  0
 29 96  1  0  0  0  0
 30 97  1  0  0  0  0
 30 98  1  0  0  0  0
 31 30  1  0  0  0  0
 31 32  1  0  0  0  0
 31 99  1  6  0  0  0
 32 33  1  1  0  0  0
 32 34  1  0  0  0  0
 33100  1  0  0  0  0
 33101  1  0  0  0  0
 33102  1  0  0  0  0
 34 35  1  0  0  0  0
 34103  1  0  0  0  0
 34104  1  0  0  0  0
 35 36  1  0  0  0  0
 35 37  1  0  0  0  0
 35105  1  1  0  0  0
 36106  1  0  0  0  0
 37 38  1  0  0  0  0
 37 39  1  0  0  0  0
 37107  1  6  0  0  0
 38108  1  0  0  0  0
 39 40  1  1  0  0  0
 39 41  1  0  0  0  0
 39 43  1  0  0  0  0
 40109  1  0  0  0  0
 40110  1  0  0  0  0
 40111  1  0  0  0  0
 41 42  1  0  0  0  0
 41112  1  0  0  0  0
 41113  1  0  0  0  0
 42114  1  0  0  0  0
 43 44  1  0  0  0  0
 43 32  1  0  0  0  0
 43115  1  6  0  0  0
 44 45  1  0  0  0  0
 44116  1  0  0  0  0
 44117  1  0  0  0  0
 45 46  1  0  0  0  0
 45118  1  0  0  0  0
 45119  1  0  0  0  0
 46 47  1  1  0  0  0
 46 48  1  0  0  0  0
 46 31  1  0  0  0  0
 47120  1  0  0  0  0
 47121  1  0  0  0  0
 47122  1  0  0  0  0
 48 49  1  6  0  0  0
 48 50  1  0  0  0  0
 48 28  1  0  0  0  0
 49123  1  0  0  0  0
 49124  1  0  0  0  0
 49125  1  0  0  0  0
 50 51  1  0  0  0  0
 50126  1  0  0  0  0
 50127  1  0  0  0  0
 51 20  1  0  0  0  0
 51128  1  0  0  0  0
 51129  1  0  0  0  0
 52 53  1  0  0  0  0
 52 54  1  0  0  0  0
 52130  1  1  0  0  0
 53131  1  0  0  0  0
 54 55  1  0  0  0  0
 54 56  1  0  0  0  0
 54132  1  6  0  0  0
 55133  1  0  0  0  0
 56 57  1  0  0  0  0
 56 14  1  0  0  0  0
 56134  1  1  0  0  0
 57135  1  0  0  0  0
 58 59  1  0  0  0  0
 59 60  1  0  0  0  0
 59  6  1  0  0  0  0
 59136  1  6  0  0  0
 60 61  1  0  0  0  0
 60137  1  0  0  0  0
 60138  1  0  0  0  0
 61139  1  0  0  0  0
 62 63  1  0  0  0  0
 62 64  1  0  0  0  0
 62140  1  6  0  0  0
 63141  1  0  0  0  0
 64 65  1  0  0  0  0
 64 66  1  0  0  0  0
 64142  1  1  0  0  0
 65143  1  0  0  0  0
 66 67  1  0  0  0  0
 66  2  1  0  0  0  0
 66144  1  6  0  0  0
 67145  1  0  0  0  0
M  END
>  <IDENTIFIER>
CNP0287175.2

>  <Energy>
1825.84

$$$$
