
 OpenBabel09082506053D

152155  0  0  0  0  0  0  0  0999 V2000
   14.7119    3.2554    0.3959 C   0  0  0  0  0  0  0  0  0  0  0  0
   13.9904    4.3961   -0.3222 C   0  0  0  0  0  0  0  0  0  0  0  0
   14.0866    4.3033   -1.8578 C   0  0  0  0  0  0  0  0  0  0  0  0
   13.4750    3.0330   -2.4806 C   0  0  0  0  0  0  0  0  0  0  0  0
   11.9660    2.9018   -2.2225 C   0  0  0  0  0  0  0  0  0  0  0  0
   11.4071    1.6280   -2.8767 C   0  0  0  0  0  0  0  0  0  0  0  0
    9.8838    1.4675   -2.7134 C   0  0  0  0  0  0  0  0  0  0  0  0
    9.4360    1.3783   -1.2460 C   0  0  0  0  0  0  0  0  0  0  0  0
    7.9294    1.1008   -1.1308 C   0  0  0  0  0  0  0  0  0  0  0  0
    7.5048    1.0832    0.3464 C   0  0  0  0  0  0  0  0  0  0  0  0
    6.0130    0.7701    0.5743 C   0  0  0  0  0  0  0  0  0  0  0  0
    5.6525   -0.6571    0.1389 C   0  0  0  0  0  0  0  0  0  0  0  0
    4.2751   -1.1272    0.6296 C   0  0  0  0  0  0  0  0  0  0  0  0
    3.0442   -0.5020   -0.0004 C   0  0  0  0  0  0  0  0  0  0  0  0
    3.1351    0.3890   -0.8321 O   0  0  0  0  0  0  0  0  0  0  0  0
    1.8337   -1.0235    0.3439 N   0  0  0  0  0  0  0  0  0  0  0  0
    0.5534   -0.6905   -0.2734 C   0  0  1  0  0  0  0  0  0  0  0  0
    0.2556   -1.6404   -1.4769 C   0  0  0  0  0  0  0  0  0  0  0  0
    0.5919   -3.1639   -1.4490 C   0  0  1  0  0  0  0  0  0  0  0  0
    1.9781   -3.3542   -1.6118 O   0  0  0  0  0  0  0  0  0  0  0  0
    0.0481   -4.1027   -0.3356 C   0  0  1  0  0  0  0  0  0  0  0  0
    0.6822   -3.8772    0.8975 O   0  0  0  0  0  0  0  0  0  0  0  0
   -1.4009   -4.0535   -0.1689 N   0  0  0  0  0  0  0  0  0  0  0  0
   -2.2027   -5.1473   -0.3215 C   0  0  0  0  0  0  0  0  0  0  0  0
   -1.7294   -6.1950   -0.7422 O   0  0  0  0  0  0  0  0  0  0  0  0
   -3.6652   -5.1167    0.1245 C   0  0  2  0  0  0  0  0  0  0  0  0
   -4.4128   -6.4502   -0.1281 C   0  0  1  0  0  0  0  0  0  0  0  0
   -5.5756   -6.5662    0.6709 O   0  0  0  0  0  0  0  0  0  0  0  0
   -4.7994   -6.2727   -1.5934 C   0  0  1  0  0  0  0  0  0  0  0  0
   -5.7905   -7.2971   -2.1443 C   0  0  0  0  0  0  0  0  0  0  0  0
   -5.2917   -4.8233   -1.6221 C   0  0  0  0  0  0  0  0  0  0  0  0
   -4.4616   -4.1544   -0.6297 N   0  0  0  0  0  0  0  0  0  0  0  0
   -4.6002   -2.8460   -0.2324 C   0  0  0  0  0  0  0  0  0  0  0  0
   -3.9617   -2.4584    0.7365 O   0  0  0  0  0  0  0  0  0  0  0  0
   -5.5981   -1.8638   -0.8511 C   0  0  2  0  0  0  0  0  0  0  0  0
   -5.2776   -1.4937   -2.3290 C   0  0  2  0  0  0  0  0  0  0  0  0
   -3.9751   -0.9690   -2.4284 O   0  0  0  0  0  0  0  0  0  0  0  0
   -6.3053   -0.5293   -2.9798 C   0  0  0  0  0  0  0  0  0  0  0  0
   -7.7056   -1.1009   -3.0889 C   0  0  0  0  0  0  0  0  0  0  0  0
   -8.2658   -1.3163   -4.3023 N   0  0  0  0  0  0  0  0  0  0  0  0
   -8.3452   -1.3484   -2.0811 O   0  0  0  0  0  0  0  0  0  0  0  0
   -5.6099   -0.6461   -0.0358 N   0  0  0  0  0  0  0  0  0  0  0  0
   -6.6738   -0.2619    0.7348 C   0  0  0  0  0  0  0  0  0  0  0  0
   -7.6866   -0.9467    0.7330 O   0  0  0  0  0  0  0  0  0  0  0  0
   -6.6384    0.9447    1.6903 C   0  0  2  0  0  0  0  0  0  0  0  0
   -7.8478    1.9150    1.5506 C   0  0  2  0  0  0  0  0  0  0  0  0
   -9.0340    1.2206    1.8710 O   0  0  0  0  0  0  0  0  0  0  0  0
   -7.9940    2.6261    0.1712 C   0  0  1  0  0  0  0  0  0  0  0  0
   -9.2469    3.2635    0.0793 O   0  0  0  0  0  0  0  0  0  0  0  0
   -6.9135    3.6437   -0.1307 C   0  0  0  0  0  0  0  0  0  0  0  0
   -6.7493    4.7775    0.6873 C   0  0  0  0  0  0  0  0  0  0  0  0
   -5.7957    5.7475    0.3698 C   0  0  0  0  0  0  0  0  0  0  0  0
   -4.9925    5.5991   -0.7688 C   0  0  0  0  0  0  0  0  0  0  0  0
   -4.0819    6.5370   -1.0976 O   0  0  0  0  0  0  0  0  0  0  0  0
   -5.1434    4.4700   -1.5794 C   0  0  0  0  0  0  0  0  0  0  0  0
   -6.0978    3.4990   -1.2644 C   0  0  0  0  0  0  0  0  0  0  0  0
   -5.3521    1.6497    1.7370 N   0  0  0  0  0  0  0  0  0  0  0  0
   -4.8478    2.1250    2.9146 C   0  0  0  0  0  0  0  0  0  0  0  0
   -5.5436    2.1299    3.9216 O   0  0  0  0  0  0  0  0  0  0  0  0
   -3.3979    2.5689    3.0540 C   0  0  2  0  0  0  0  0  0  0  0  0
   -3.0142    3.7248    2.1275 C   0  0  0  0  0  0  0  0  0  0  0  0
   -1.5003    3.6013    2.1164 C   0  0  1  0  0  0  0  0  0  0  0  0
   -0.9854    4.0950    3.3385 O   0  0  0  0  0  0  0  0  0  0  0  0
   -1.3217    2.0745    1.9712 C   0  0  0  0  0  0  0  0  0  0  0  0
   -2.4228    1.5206    2.7381 N   0  0  0  0  0  0  0  0  0  0  0  0
   -2.5341    0.2268    3.2084 C   0  0  0  0  0  0  0  0  0  0  0  0
   -3.5082   -0.0487    3.8964 O   0  0  0  0  0  0  0  0  0  0  0  0
   -1.5582   -0.9517    2.9990 C   0  0  2  0  0  0  0  0  0  0  0  0
   -1.0648   -1.4444    4.3910 C   0  0  1  0  0  0  0  0  0  0  0  0
   -0.2965   -2.7754    4.3228 C   0  0  0  0  0  0  0  0  0  0  0  0
   -0.3213   -0.4521    5.0563 O   0  0  0  0  0  0  0  0  0  0  0  0
   -0.4385   -0.7679    2.0725 N   0  0  0  0  0  0  0  0  0  0  0  0
   -0.6143   -0.6742    0.7224 C   0  0  0  0  0  0  0  0  0  0  0  0
   -1.7487   -0.5695    0.2742 O   0  0  0  0  0  0  0  0  0  0  0  0
   14.6470    3.4109    1.4934 H   0  0  0  0  0  0  0  0  0  0  0  0
   15.7829    3.2316    0.1029 H   0  0  0  0  0  0  0  0  0  0  0  0
   14.2431    2.2775    0.1629 H   0  0  0  0  0  0  0  0  0  0  0  0
   14.4592    5.3533   -0.0069 H   0  0  0  0  0  0  0  0  0  0  0  0
   12.9298    4.4253    0.0027 H   0  0  0  0  0  0  0  0  0  0  0  0
   15.1598    4.3489   -2.1451 H   0  0  0  0  0  0  0  0  0  0  0  0
   13.5830    5.1929   -2.2951 H   0  0  0  0  0  0  0  0  0  0  0  0
   14.0050    2.1344   -2.1009 H   0  0  0  0  0  0  0  0  0  0  0  0
   13.6430    3.0795   -3.5789 H   0  0  0  0  0  0  0  0  0  0  0  0
   11.4444    3.7920   -2.6368 H   0  0  0  0  0  0  0  0  0  0  0  0
   11.7920    2.8497   -1.1305 H   0  0  0  0  0  0  0  0  0  0  0  0
   11.9173    0.7391   -2.4443 H   0  0  0  0  0  0  0  0  0  0  0  0
   11.6282    1.6571   -3.9664 H   0  0  0  0  0  0  0  0  0  0  0  0
    9.5906    0.5307   -3.2363 H   0  0  0  0  0  0  0  0  0  0  0  0
    9.3646    2.3180   -3.2067 H   0  0  0  0  0  0  0  0  0  0  0  0
    9.6601    2.3360   -0.7316 H   0  0  0  0  0  0  0  0  0  0  0  0
    9.9928    0.5574   -0.7415 H   0  0  0  0  0  0  0  0  0  0  0  0
    7.7194    0.1204   -1.6075 H   0  0  0  0  0  0  0  0  0  0  0  0
    7.3561    1.8915   -1.6618 H   0  0  0  0  0  0  0  0  0  0  0  0
    7.7191    2.0822    0.7847 H   0  0  0  0  0  0  0  0  0  0  0  0
    8.1142    0.3324    0.8980 H   0  0  0  0  0  0  0  0  0  0  0  0
    5.3690    1.5160    0.0629 H   0  0  0  0  0  0  0  0  0  0  0  0
    5.8386    0.8506    1.6697 H   0  0  0  0  0  0  0  0  0  0  0  0
    6.3925   -1.3429    0.6092 H   0  0  0  0  0  0  0  0  0  0  0  0
    5.7243   -0.7776   -0.9626 H   0  0  0  0  0  0  0  0  0  0  0  0
    4.2186   -1.0164    1.7343 H   0  0  0  0  0  0  0  0  0  0  0  0
    4.2261   -2.2134    0.4007 H   0  0  0  0  0  0  0  0  0  0  0  0
    1.8565   -1.8175    0.9944 H   0  0  0  0  0  0  0  0  0  0  0  0
    0.5766    0.3362   -0.7031 H   0  0  0  0  0  0  0  0  0  0  0  0
    0.8468   -1.2506   -2.3362 H   0  0  0  0  0  0  0  0  0  0  0  0
   -0.8053   -1.5063   -1.7799 H   0  0  0  0  0  0  0  0  0  0  0  0
    0.1394   -3.5518   -2.3888 H   0  0  0  0  0  0  0  0  0  0  0  0
    2.4174   -3.2786   -0.7297 H   0  0  0  0  0  0  0  0  0  0  0  0
    0.3566   -5.1257   -0.6410 H   0  0  0  0  0  0  0  0  0  0  0  0
    0.1176   -3.2718    1.4392 H   0  0  0  0  0  0  0  0  0  0  0  0
   -1.8024   -3.1772    0.1764 H   0  0  0  0  0  0  0  0  0  0  0  0
   -3.6742   -4.9131    1.2191 H   0  0  0  0  0  0  0  0  0  0  0  0
   -3.7912   -7.3474    0.0808 H   0  0  0  0  0  0  0  0  0  0  0  0
   -5.9032   -5.6684    0.9384 H   0  0  0  0  0  0  0  0  0  0  0  0
   -3.8632   -6.3270   -2.1952 H   0  0  0  0  0  0  0  0  0  0  0  0
   -6.7436   -7.2703   -1.5752 H   0  0  0  0  0  0  0  0  0  0  0  0
   -5.3550   -8.3161   -2.0705 H   0  0  0  0  0  0  0  0  0  0  0  0
   -6.0043   -7.0763   -3.2112 H   0  0  0  0  0  0  0  0  0  0  0  0
   -6.3517   -4.7552   -1.2916 H   0  0  0  0  0  0  0  0  0  0  0  0
   -5.1813   -4.4394   -2.6501 H   0  0  0  0  0  0  0  0  0  0  0  0
   -6.5804   -2.3712   -0.8034 H   0  0  0  0  0  0  0  0  0  0  0  0
   -5.2988   -2.3924   -2.9617 H   0  0  0  0  0  0  0  0  0  0  0  0
   -3.9989   -0.0131   -2.1632 H   0  0  0  0  0  0  0  0  0  0  0  0
   -5.9353   -0.2960   -4.0012 H   0  0  0  0  0  0  0  0  0  0  0  0
   -6.3513    0.4221   -2.4149 H   0  0  0  0  0  0  0  0  0  0  0  0
   -7.7544   -1.1080   -5.1709 H   0  0  0  0  0  0  0  0  0  0  0  0
   -9.2234   -1.6967   -4.3723 H   0  0  0  0  0  0  0  0  0  0  0  0
   -4.7316   -0.1196   -0.0105 H   0  0  0  0  0  0  0  0  0  0  0  0
   -6.7751    0.4614    2.6849 H   0  0  0  0  0  0  0  0  0  0  0  0
   -7.7505    2.7003    2.3304 H   0  0  0  0  0  0  0  0  0  0  0  0
   -9.3830    0.7792    1.0541 H   0  0  0  0  0  0  0  0  0  0  0  0
   -7.9925    1.8308   -0.6062 H   0  0  0  0  0  0  0  0  0  0  0  0
   -9.3724    3.8256    0.8880 H   0  0  0  0  0  0  0  0  0  0  0  0
   -7.3688    4.9238    1.5625 H   0  0  0  0  0  0  0  0  0  0  0  0
   -5.6911    6.6193    1.0032 H   0  0  0  0  0  0  0  0  0  0  0  0
   -3.9633    7.3426   -0.5743 H   0  0  0  0  0  0  0  0  0  0  0  0
   -4.5304    4.3507   -2.4636 H   0  0  0  0  0  0  0  0  0  0  0  0
   -6.2101    2.6467   -1.9172 H   0  0  0  0  0  0  0  0  0  0  0  0
   -4.7424    1.6839    0.9129 H   0  0  0  0  0  0  0  0  0  0  0  0
   -3.2291    2.8644    4.1157 H   0  0  0  0  0  0  0  0  0  0  0  0
   -3.4127    4.7178    2.4265 H   0  0  0  0  0  0  0  0  0  0  0  0
   -3.3617    3.5027    1.0940 H   0  0  0  0  0  0  0  0  0  0  0  0
   -1.0007    4.1614    1.2976 H   0  0  0  0  0  0  0  0  0  0  0  0
   -0.8713    3.3555    3.9907 H   0  0  0  0  0  0  0  0  0  0  0  0
   -0.3190    1.7847    2.3522 H   0  0  0  0  0  0  0  0  0  0  0  0
   -1.4517    1.7927    0.9086 H   0  0  0  0  0  0  0  0  0  0  0  0
   -2.1677   -1.7875    2.5880 H   0  0  0  0  0  0  0  0  0  0  0  0
   -1.9585   -1.6616    5.0170 H   0  0  0  0  0  0  0  0  0  0  0  0
    0.6484   -2.6782    3.7515 H   0  0  0  0  0  0  0  0  0  0  0  0
   -0.9275   -3.5536    3.8411 H   0  0  0  0  0  0  0  0  0  0  0  0
   -0.0462   -3.1159    5.3494 H   0  0  0  0  0  0  0  0  0  0  0  0
    0.5795   -0.4107    4.6453 H   0  0  0  0  0  0  0  0  0  0  0  0
    0.5185   -0.8316    2.4395 H   0  0  0  0  0  0  0  0  0  0  0  0
  1  2  1  0  0  0  0
  1 75  1  0  0  0  0
  1 76  1  0  0  0  0
  1 77  1  0  0  0  0
  2  3  1  0  0  0  0
  2 78  1  0  0  0  0
  2 79  1  0  0  0  0
  3  4  1  0  0  0  0
  3 80  1  0  0  0  0
  3 81  1  0  0  0  0
  4  5  1  0  0  0  0
  4 82  1  0  0  0  0
  4 83  1  0  0  0  0
  5  6  1  0  0  0  0
  5 84  1  0  0  0  0
  5 85  1  0  0  0  0
  6  7  1  0  0  0  0
  6 86  1  0  0  0  0
  6 87  1  0  0  0  0
  7  8  1  0  0  0  0
  7 88  1  0  0  0  0
  7 89  1  0  0  0  0
  8  9  1  0  0  0  0
  8 90  1  0  0  0  0
  8 91  1  0  0  0  0
  9 10  1  0  0  0  0
  9 92  1  0  0  0  0
  9 93  1  0  0  0  0
 10 11  1  0  0  0  0
 10 94  1  0  0  0  0
 10 95  1  0  0  0  0
 11 12  1  0  0  0  0
 11 96  1  0  0  0  0
 11 97  1  0  0  0  0
 12 13  1  0  0  0  0
 12 98  1  0  0  0  0
 12 99  1  0  0  0  0
 13 14  1  0  0  0  0
 13100  1  0  0  0  0
 13101  1  0  0  0  0
 14 15  2  0  0  0  0
 14 16  1  0  0  0  0
 16102  1  0  0  0  0
 17 16  1  0  0  0  0
 17 18  1  0  0  0  0
 17103  1  6  0  0  0
 18 19  1  0  0  0  0
 18104  1  0  0  0  0
 18105  1  0  0  0  0
 19 20  1  0  0  0  0
 19 21  1  0  0  0  0
 19106  1  6  0  0  0
 20107  1  0  0  0  0
 21 22  1  0  0  0  0
 21 23  1  0  0  0  0
 21108  1  6  0  0  0
 22109  1  0  0  0  0
 23 24  1  0  0  0  0
 23110  1  0  0  0  0
 24 25  2  0  0  0  0
 26 24  1  0  0  0  0
 26 27  1  0  0  0  0
 26111  1  1  0  0  0
 27 28  1  0  0  0  0
 27 29  1  0  0  0  0
 27112  1  1  0  0  0
 28113  1  0  0  0  0
 29 30  1  0  0  0  0
 29 31  1  0  0  0  0
 29114  1  6  0  0  0
 30115  1  0  0  0  0
 30116  1  0  0  0  0
 30117  1  0  0  0  0
 31 32  1  0  0  0  0
 31118  1  0  0  0  0
 31119  1  0  0  0  0
 32 33  1  0  0  0  0
 32 26  1  0  0  0  0
 33 34  2  0  0  0  0
 33 35  1  0  0  0  0
 35 36  1  0  0  0  0
 35 42  1  0  0  0  0
 35120  1  1  0  0  0
 36 37  1  0  0  0  0
 36 38  1  0  0  0  0
 36121  1  6  0  0  0
 37122  1  0  0  0  0
 38 39  1  0  0  0  0
 38123  1  0  0  0  0
 38124  1  0  0  0  0
 39 40  1  0  0  0  0
 39 41  2  0  0  0  0
 40125  1  0  0  0  0
 40126  1  0  0  0  0
 42 43  1  0  0  0  0
 42127  1  0  0  0  0
 43 44  2  0  0  0  0
 43 45  1  0  0  0  0
 45 46  1  0  0  0  0
 45 57  1  0  0  0  0
 45128  1  1  0  0  0
 46 47  1  0  0  0  0
 46 48  1  0  0  0  0
 46129  1  1  0  0  0
 47130  1  0  0  0  0
 48 49  1  0  0  0  0
 48 50  1  0  0  0  0
 48131  1  6  0  0  0
 49132  1  0  0  0  0
 50 51  2  0  0  0  0
 51 52  1  0  0  0  0
 51133  1  0  0  0  0
 52 53  2  0  0  0  0
 52134  1  0  0  0  0
 53 54  1  0  0  0  0
 53 55  1  0  0  0  0
 54135  1  0  0  0  0
 55 56  2  0  0  0  0
 55136  1  0  0  0  0
 56 50  1  0  0  0  0
 56137  1  0  0  0  0
 57 58  1  0  0  0  0
 57138  1  0  0  0  0
 58 59  2  0  0  0  0
 58 60  1  0  0  0  0
 60 61  1  0  0  0  0
 60139  1  1  0  0  0
 61 62  1  0  0  0  0
 61140  1  0  0  0  0
 61141  1  0  0  0  0
 62 63  1  0  0  0  0
 62 64  1  0  0  0  0
 62142  1  6  0  0  0
 63143  1  0  0  0  0
 64 65  1  0  0  0  0
 64144  1  0  0  0  0
 64145  1  0  0  0  0
 65 66  1  0  0  0  0
 65 60  1  0  0  0  0
 66 67  2  0  0  0  0
 66 68  1  0  0  0  0
 68 69  1  0  0  0  0
 68 72  1  0  0  0  0
 68146  1  6  0  0  0
 69 70  1  0  0  0  0
 69 71  1  0  0  0  0
 69147  1  1  0  0  0
 70148  1  0  0  0  0
 70149  1  0  0  0  0
 70150  1  0  0  0  0
 71151  1  0  0  0  0
 72 73  1  0  0  0  0
 72152  1  0  0  0  0
 73 74  2  0  0  0  0
 73 17  1  0  0  0  0
M  END
>  <IDENTIFIER>
CNP0509292.1

>  <Energy>
1190.06

$$$$
