
 OpenBabel09112502593D

 85 88  0  0  0  0  0  0  0  0999 V2000
    9.2739   -0.9930   -0.5887 C   0  0  0  0  0  0  0  0  0  0  0  0
    7.8480   -0.5617   -0.7880 C   0  0  0  0  0  0  0  0  0  0  0  0
    7.4121    0.2134   -1.8204 C   0  0  0  0  0  0  0  0  0  0  0  0
    8.3752    0.7168   -2.8786 C   0  0  0  0  0  0  0  0  0  0  0  0
    5.9641    0.6138   -1.9799 C   0  0  0  0  0  0  0  0  0  0  0  0
    5.6695    1.3787   -2.8895 O   0  0  0  0  0  0  0  0  0  0  0  0
    4.9824    0.1371   -1.1627 N   0  0  0  0  0  0  0  0  0  0  0  0
    3.5674    0.4630   -1.2807 C   0  0  1  0  0  0  0  0  0  0  0  0
    2.8058   -0.8275   -1.6285 C   0  0  0  0  0  0  0  0  0  0  0  0
    1.2850   -0.5989   -1.6312 C   0  0  0  0  0  0  0  0  0  0  0  0
    0.7632   -0.0925   -0.2524 C   0  0  2  0  0  0  0  0  0  0  0  0
    1.0130   -1.2069    0.8221 C   0  0  0  0  0  0  0  0  0  0  0  0
   -0.7785    0.2605   -0.3335 C   0  0  1  0  0  0  0  0  0  0  0  0
   -1.6840   -0.9109   -0.8313 C   0  0  0  0  0  0  0  0  0  0  0  0
   -3.1747   -0.4987   -0.8737 C   0  0  0  0  0  0  0  0  0  0  0  0
   -3.6547   -0.0411    0.5221 C   0  0  2  0  0  0  0  0  0  0  0  0
   -3.5709   -1.2429    1.5248 C   0  0  0  0  0  0  0  0  0  0  0  0
   -5.0452    0.6713    0.5622 C   0  0  1  0  0  0  0  0  0  0  0  0
   -6.4101   -0.0296    0.2062 C   0  0  2  0  0  0  0  0  0  0  0  0
   -6.7775   -1.1732    1.1843 C   0  0  0  0  0  0  0  0  0  0  0  0
   -6.4605   -0.4701   -1.2302 N   0  0  0  0  0  0  0  0  0  0  0  0
   -7.6904   -1.2262   -1.5504 C   0  0  0  0  0  0  0  0  0  0  0  0
   -6.3973    0.6800   -2.1630 C   0  0  0  0  0  0  0  0  0  0  0  0
   -5.0042    1.4305    1.9157 C   0  0  0  0  0  0  0  0  0  0  0  0
   -3.5005    1.6877    2.1962 C   0  0  0  0  0  0  0  0  0  0  0  0
   -2.7874    1.1695    0.9432 C   0  0  1  0  0  0  0  0  0  0  0  0
   -1.2784    0.8585    1.0328 C   0  0  2  0  0  0  0  0  0  0  0  0
   -0.4775    2.1418    1.3485 C   0  0  0  0  0  0  0  0  0  0  0  0
    1.0330    1.8798    1.3892 C   0  0  0  0  0  0  0  0  0  0  0  0
    1.5231    1.2497    0.0640 C   0  0  1  0  0  0  0  0  0  0  0  0
    3.0709    1.1134    0.0404 C   0  0  1  0  0  0  0  0  0  0  0  0
    3.5164    0.4036    1.1466 O   0  0  0  0  0  0  0  0  0  0  0  0
    4.3531    0.9021    2.1007 C   0  0  0  0  0  0  0  0  0  0  0  0
    4.7407    0.0512    3.2634 C   0  0  0  0  0  0  0  0  0  0  0  0
    4.7977    2.0387    2.0266 O   0  0  0  0  0  0  0  0  0  0  0  0
    9.3523   -1.6127    0.3303 H   0  0  0  0  0  0  0  0  0  0  0  0
    9.9300   -0.1061   -0.4670 H   0  0  0  0  0  0  0  0  0  0  0  0
    9.6130   -1.6051   -1.4505 H   0  0  0  0  0  0  0  0  0  0  0  0
    7.1775   -0.9210   -0.0224 H   0  0  0  0  0  0  0  0  0  0  0  0
    9.4241    0.3961   -2.7267 H   0  0  0  0  0  0  0  0  0  0  0  0
    8.3633    1.8261   -2.8921 H   0  0  0  0  0  0  0  0  0  0  0  0
    8.0547    0.3389   -3.8721 H   0  0  0  0  0  0  0  0  0  0  0  0
    5.2138   -0.5310   -0.4182 H   0  0  0  0  0  0  0  0  0  0  0  0
    3.3709    1.1857   -2.1054 H   0  0  0  0  0  0  0  0  0  0  0  0
    3.0733   -1.6362   -0.9217 H   0  0  0  0  0  0  0  0  0  0  0  0
    3.1267   -1.1768   -2.6340 H   0  0  0  0  0  0  0  0  0  0  0  0
    0.8005   -1.5576   -1.9100 H   0  0  0  0  0  0  0  0  0  0  0  0
    1.0432    0.1493   -2.4189 H   0  0  0  0  0  0  0  0  0  0  0  0
    0.4914   -2.1447    0.5477 H   0  0  0  0  0  0  0  0  0  0  0  0
    0.6877   -0.9248    1.8371 H   0  0  0  0  0  0  0  0  0  0  0  0
    2.0737   -1.4784    0.9413 H   0  0  0  0  0  0  0  0  0  0  0  0
   -0.9048    1.0595   -1.1012 H   0  0  0  0  0  0  0  0  0  0  0  0
   -1.5647   -1.8067   -0.1973 H   0  0  0  0  0  0  0  0  0  0  0  0
   -1.3945   -1.2063   -1.8603 H   0  0  0  0  0  0  0  0  0  0  0  0
   -3.7953   -1.3448   -1.2396 H   0  0  0  0  0  0  0  0  0  0  0  0
   -3.2766    0.3364   -1.5996 H   0  0  0  0  0  0  0  0  0  0  0  0
   -4.0901   -2.1277    1.1197 H   0  0  0  0  0  0  0  0  0  0  0  0
   -3.9934   -1.0139    2.5218 H   0  0  0  0  0  0  0  0  0  0  0  0
   -2.5354   -1.5815    1.7073 H   0  0  0  0  0  0  0  0  0  0  0  0
   -4.9739    1.5059   -0.1631 H   0  0  0  0  0  0  0  0  0  0  0  0
   -7.1926    0.7483    0.3638 H   0  0  0  0  0  0  0  0  0  0  0  0
   -6.1745   -2.0778    1.0068 H   0  0  0  0  0  0  0  0  0  0  0  0
   -7.8384   -1.4707    1.0574 H   0  0  0  0  0  0  0  0  0  0  0  0
   -6.6892   -0.8616    2.2417 H   0  0  0  0  0  0  0  0  0  0  0  0
   -7.6913   -2.2118   -1.0438 H   0  0  0  0  0  0  0  0  0  0  0  0
   -7.7381   -1.4675   -2.6351 H   0  0  0  0  0  0  0  0  0  0  0  0
   -8.6003   -0.6482   -1.2727 H   0  0  0  0  0  0  0  0  0  0  0  0
   -5.3964    1.1468   -2.1760 H   0  0  0  0  0  0  0  0  0  0  0  0
   -7.1682    1.4441   -1.9161 H   0  0  0  0  0  0  0  0  0  0  0  0
   -6.5499    0.3528   -3.2142 H   0  0  0  0  0  0  0  0  0  0  0  0
   -5.3965    0.8325    2.7632 H   0  0  0  0  0  0  0  0  0  0  0  0
   -5.6046    2.3635    1.8523 H   0  0  0  0  0  0  0  0  0  0  0  0
   -3.1960    1.0442    3.0511 H   0  0  0  0  0  0  0  0  0  0  0  0
   -3.2565    2.7368    2.4647 H   0  0  0  0  0  0  0  0  0  0  0  0
   -2.8918    1.9610    0.1605 H   0  0  0  0  0  0  0  0  0  0  0  0
   -1.1405    0.1354    1.8556 H   0  0  0  0  0  0  0  0  0  0  0  0
   -0.7959    2.5677    2.3239 H   0  0  0  0  0  0  0  0  0  0  0  0
   -0.6786    2.9006    0.5596 H   0  0  0  0  0  0  0  0  0  0  0  0
    1.2699    1.2169    2.2470 H   0  0  0  0  0  0  0  0  0  0  0  0
    1.5536    2.8471    1.5609 H   0  0  0  0  0  0  0  0  0  0  0  0
    1.2741    1.9662   -0.7543 H   0  0  0  0  0  0  0  0  0  0  0  0
    3.4975    2.1419    0.0637 H   0  0  0  0  0  0  0  0  0  0  0  0
    4.2580   -0.9448    3.1905 H   0  0  0  0  0  0  0  0  0  0  0  0
    4.4192    0.5451    4.2045 H   0  0  0  0  0  0  0  0  0  0  0  0
    5.8436   -0.0764    3.2761 H   0  0  0  0  0  0  0  0  0  0  0  0
  1  2  1  0  0  0  0
  1 36  1  0  0  0  0
  1 37  1  0  0  0  0
  1 38  1  0  0  0  0
  2  3  2  0  0  0  0
  2 39  1  0  0  0  0
  3  4  1  0  0  0  0
  3  5  1  0  0  0  0
  4 40  1  0  0  0  0
  4 41  1  0  0  0  0
  4 42  1  0  0  0  0
  5  6  2  0  0  0  0
  5  7  1  0  0  0  0
  7 43  1  0  0  0  0
  8  7  1  0  0  0  0
  8  9  1  0  0  0  0
  8 44  1  6  0  0  0
  9 10  1  0  0  0  0
  9 45  1  0  0  0  0
  9 46  1  0  0  0  0
 10 11  1  0  0  0  0
 10 47  1  0  0  0  0
 10 48  1  0  0  0  0
 11 12  1  1  0  0  0
 11 13  1  0  0  0  0
 12 49  1  0  0  0  0
 12 50  1  0  0  0  0
 12 51  1  0  0  0  0
 13 14  1  0  0  0  0
 13 52  1  6  0  0  0
 14 15  1  0  0  0  0
 14 53  1  0  0  0  0
 14 54  1  0  0  0  0
 15 16  1  0  0  0  0
 15 55  1  0  0  0  0
 15 56  1  0  0  0  0
 16 17  1  1  0  0  0
 16 18  1  0  0  0  0
 17 57  1  0  0  0  0
 17 58  1  0  0  0  0
 17 59  1  0  0  0  0
 18 19  1  0  0  0  0
 18 24  1  0  0  0  0
 18 60  1  6  0  0  0
 19 20  1  0  0  0  0
 19 21  1  0  0  0  0
 19 61  1  1  0  0  0
 20 62  1  0  0  0  0
 20 63  1  0  0  0  0
 20 64  1  0  0  0  0
 21 22  1  0  0  0  0
 21 23  1  0  0  0  0
 22 65  1  0  0  0  0
 22 66  1  0  0  0  0
 22 67  1  0  0  0  0
 23 68  1  0  0  0  0
 23 69  1  0  0  0  0
 23 70  1  0  0  0  0
 24 25  1  0  0  0  0
 24 71  1  0  0  0  0
 24 72  1  0  0  0  0
 25 73  1  0  0  0  0
 25 74  1  0  0  0  0
 26 25  1  0  0  0  0
 26 27  1  0  0  0  0
 26 16  1  0  0  0  0
 26 75  1  6  0  0  0
 27 28  1  0  0  0  0
 27 13  1  0  0  0  0
 27 76  1  1  0  0  0
 28 29  1  0  0  0  0
 28 77  1  0  0  0  0
 28 78  1  0  0  0  0
 29 79  1  0  0  0  0
 29 80  1  0  0  0  0
 30 29  1  0  0  0  0
 30 31  1  0  0  0  0
 30 11  1  0  0  0  0
 30 81  1  6  0  0  0
 31 32  1  0  0  0  0
 31  8  1  0  0  0  0
 31 82  1  1  0  0  0
 32 33  1  0  0  0  0
 33 34  1  0  0  0  0
 33 35  2  0  0  0  0
 34 83  1  0  0  0  0
 34 84  1  0  0  0  0
 34 85  1  0  0  0  0
M  END
>  <IDENTIFIER>
CNP0300057.2

>  <Energy>
674.473

$$$$
