
 OpenBabel09052518573D

 51 54  0  0  0  0  0  0  0  0999 V2000
    2.0441    1.2190   -1.5788 C   0  0  0  0  0  0  0  0  0  0  0  0
    1.8397    0.4345   -0.2520 C   0  0  2  0  0  0  0  0  0  0  0  0
    2.6765    1.0861    0.8914 C   0  0  0  0  0  0  0  0  0  0  0  0
    4.1840    1.1534    0.6175 C   0  0  0  0  0  0  0  0  0  0  0  0
    4.7482   -0.0807   -0.0407 C   0  0  0  0  0  0  0  0  0  0  0  0
    5.9551   -0.1367   -0.2194 O   0  0  0  0  0  0  0  0  0  0  0  0
    3.8824   -1.1373   -0.6848 C   0  0  0  0  0  0  0  0  0  0  0  0
    2.3750   -1.0266   -0.3647 C   0  0  2  0  0  0  0  0  0  0  0  0
    1.5588   -1.9352   -1.3225 C   0  0  0  0  0  0  0  0  0  0  0  0
    0.0356   -1.6975   -1.2699 C   0  0  0  0  0  0  0  0  0  0  0  0
   -0.3866   -1.0051    0.0330 C   0  0  1  0  0  0  0  0  0  0  0  0
    0.2760    0.3959    0.1094 C   0  0  1  0  0  0  0  0  0  0  0  0
   -0.1936    1.2069    1.3820 C   0  0  0  0  0  0  0  0  0  0  0  0
   -1.6589    0.9289    1.8500 C   0  0  0  0  0  0  0  0  0  0  0  0
   -2.5369    0.4703    0.6784 C   0  0  2  0  0  0  0  0  0  0  0  0
   -2.6861    1.6407   -0.3628 C   0  0  0  0  0  0  0  0  0  0  0  0
   -3.9525   -0.0374    1.0167 C   0  0  1  0  0  0  0  0  0  0  0  0
   -4.8964    0.9522    1.3507 O   0  0  0  0  0  0  0  0  0  0  0  0
   -4.3240   -0.9238   -0.2111 C   0  0  0  0  0  0  0  0  0  0  0  0
   -2.9630   -1.3781   -0.8183 C   0  0  0  0  0  0  0  0  0  0  0  0
   -1.9453   -0.9016    0.2130 C   0  0  1  0  0  0  0  0  0  0  0  0
    3.1062    1.2553   -1.8923 H   0  0  0  0  0  0  0  0  0  0  0  0
    1.6864    2.2644   -1.4607 H   0  0  0  0  0  0  0  0  0  0  0  0
    1.4757    0.7465   -2.4071 H   0  0  0  0  0  0  0  0  0  0  0  0
    2.5477    0.4669    1.8066 H   0  0  0  0  0  0  0  0  0  0  0  0
    2.3308    2.1148    1.1301 H   0  0  0  0  0  0  0  0  0  0  0  0
    4.7018    1.3602    1.5790 H   0  0  0  0  0  0  0  0  0  0  0  0
    4.4007    2.0027   -0.0656 H   0  0  0  0  0  0  0  0  0  0  0  0
    4.2301   -2.1540   -0.3993 H   0  0  0  0  0  0  0  0  0  0  0  0
    4.0414   -1.0204   -1.7791 H   0  0  0  0  0  0  0  0  0  0  0  0
    2.2419   -1.4484    0.6584 H   0  0  0  0  0  0  0  0  0  0  0  0
    1.7855   -2.9810   -1.0168 H   0  0  0  0  0  0  0  0  0  0  0  0
    1.8715   -1.8299   -2.3842 H   0  0  0  0  0  0  0  0  0  0  0  0
   -0.4833   -2.6642   -1.4456 H   0  0  0  0  0  0  0  0  0  0  0  0
   -0.2556   -1.0161   -2.1004 H   0  0  0  0  0  0  0  0  0  0  0  0
    0.0047   -1.6024    0.8895 H   0  0  0  0  0  0  0  0  0  0  0  0
   -0.1979    0.8762   -0.7520 H   0  0  0  0  0  0  0  0  0  0  0  0
   -0.0824    2.2818    1.1226 H   0  0  0  0  0  0  0  0  0  0  0  0
    0.4331    1.0100    2.2753 H   0  0  0  0  0  0  0  0  0  0  0  0
   -2.0693    1.8006    2.4035 H   0  0  0  0  0  0  0  0  0  0  0  0
   -1.6268    0.0834    2.5745 H   0  0  0  0  0  0  0  0  0  0  0  0
   -3.2296    2.4808    0.1182 H   0  0  0  0  0  0  0  0  0  0  0  0
   -3.2682    1.3491   -1.2586 H   0  0  0  0  0  0  0  0  0  0  0  0
   -1.7653    2.1171   -0.7239 H   0  0  0  0  0  0  0  0  0  0  0  0
   -3.8729   -0.7232    1.8918 H   0  0  0  0  0  0  0  0  0  0  0  0
   -5.2650    1.3254    0.5090 H   0  0  0  0  0  0  0  0  0  0  0  0
   -4.8646   -0.3618   -1.0033 H   0  0  0  0  0  0  0  0  0  0  0  0
   -4.9680   -1.7644    0.1263 H   0  0  0  0  0  0  0  0  0  0  0  0
   -2.7752   -0.8130   -1.7568 H   0  0  0  0  0  0  0  0  0  0  0  0
   -2.9217   -2.4638   -1.0497 H   0  0  0  0  0  0  0  0  0  0  0  0
   -2.0944   -1.6395    1.0438 H   0  0  0  0  0  0  0  0  0  0  0  0
  1 22  1  0  0  0  0
  1 23  1  0  0  0  0
  1 24  1  0  0  0  0
  2  1  1  6  0  0  0
  2  3  1  0  0  0  0
  3  4  1  0  0  0  0
  3 25  1  0  0  0  0
  3 26  1  0  0  0  0
  4  5  1  0  0  0  0
  4 27  1  0  0  0  0
  4 28  1  0  0  0  0
  5  6  2  0  0  0  0
  5  7  1  0  0  0  0
  7 29  1  0  0  0  0
  7 30  1  0  0  0  0
  8  7  1  0  0  0  0
  8  9  1  0  0  0  0
  8  2  1  0  0  0  0
  8 31  1  1  0  0  0
  9 10  1  0  0  0  0
  9 32  1  0  0  0  0
  9 33  1  0  0  0  0
 10 34  1  0  0  0  0
 10 35  1  0  0  0  0
 11 10  1  0  0  0  0
 11 12  1  0  0  0  0
 11 36  1  1  0  0  0
 12 13  1  0  0  0  0
 12  2  1  0  0  0  0
 12 37  1  6  0  0  0
 13 14  1  0  0  0  0
 13 38  1  0  0  0  0
 13 39  1  0  0  0  0
 14 15  1  0  0  0  0
 14 40  1  0  0  0  0
 14 41  1  0  0  0  0
 15 16  1  6  0  0  0
 15 17  1  0  0  0  0
 16 42  1  0  0  0  0
 16 43  1  0  0  0  0
 16 44  1  0  0  0  0
 17 18  1  0  0  0  0
 17 19  1  0  0  0  0
 17 45  1  1  0  0  0
 18 46  1  0  0  0  0
 19 20  1  0  0  0  0
 19 47  1  0  0  0  0
 19 48  1  0  0  0  0
 20 49  1  0  0  0  0
 20 50  1  0  0  0  0
 21 20  1  0  0  0  0
 21 11  1  0  0  0  0
 21 15  1  0  0  0  0
 21 51  1  1  0  0  0
M  END
>  <IDENTIFIER>
CNP0117289.15

>  <Energy>
917.706

$$$$
