
 OpenBabel09072510413D

 65 68  0  0  0  0  0  0  0  0999 V2000
    3.3851   -3.5607   -0.1518 C   0  0  0  0  0  0  0  0  0  0  0  0
    3.0190   -2.0827   -0.3318 C   0  0  1  0  0  0  0  0  0  0  0  0
    1.7617   -1.7427    0.4755 C   0  0  0  0  0  0  0  0  0  0  0  0
    1.4044   -0.2613    0.4402 C   0  0  0  0  0  0  0  0  0  0  0  0
   -0.0382    0.0829    0.8437 C   0  0  0  0  0  0  0  0  0  0  0  0
   -1.1123   -0.4903   -0.1181 C   0  0  2  0  0  0  0  0  0  0  0  0
   -0.9478   -0.0454   -1.5830 C   0  0  0  0  0  0  0  0  0  0  0  0
   -1.2895    1.4314   -1.8315 C   0  0  0  0  0  0  0  0  0  0  0  0
   -2.2838    1.9951   -0.8063 C   0  0  0  0  0  0  0  0  0  0  0  0
   -3.2441    0.9415   -0.2371 C   0  0  1  0  0  0  0  0  0  0  0  0
   -4.2742    0.4369   -1.2667 C   0  0  0  0  0  0  0  0  0  0  0  0
   -5.3300   -0.4810   -0.5976 C   0  0  2  0  0  0  0  0  0  0  0  0
   -6.6358    0.2672   -0.3002 C   0  0  0  0  0  0  0  0  0  0  0  0
   -4.7999   -1.1176    0.7096 C   0  0  0  0  0  0  0  0  0  0  0  0
   -3.3037   -1.4474    0.5961 C   0  0  2  0  0  0  0  0  0  0  0  0
   -2.8432   -2.1620    1.8758 C   0  0  0  0  0  0  0  0  0  0  0  0
   -2.4954   -0.2040    0.3945 N   0  0  1  0  0  0  0  0  0  0  0  0
    2.3535    0.6741    0.0804 C   0  0  0  0  0  0  0  0  0  0  0  0
    2.0670    2.1562   -0.0945 C   0  0  0  0  0  0  0  0  0  0  0  0
    3.0307    2.9588    0.7640 C   0  0  0  0  0  0  0  0  0  0  0  0
    4.4630    2.6236    0.3559 C   0  0  0  0  0  0  0  0  0  0  0  0
    4.7499    1.1891    0.5665 N   0  0  0  0  0  0  0  0  0  0  0  0
    6.1706    0.9456    0.2406 C   0  0  0  0  0  0  0  0  0  0  0  0
    3.8246    0.3012   -0.2060 C   0  0  1  0  0  0  0  0  0  0  0  0
    4.1379   -1.1758    0.1336 C   0  0  0  0  0  0  0  0  0  0  0  0
    2.5532   -4.2059   -0.5065 H   0  0  0  0  0  0  0  0  0  0  0  0
    3.5863   -3.7907    0.9168 H   0  0  0  0  0  0  0  0  0  0  0  0
    4.2903   -3.8054   -0.7474 H   0  0  0  0  0  0  0  0  0  0  0  0
    2.8371   -1.8991   -1.4158 H   0  0  0  0  0  0  0  0  0  0  0  0
    1.8526   -2.0457    1.5417 H   0  0  0  0  0  0  0  0  0  0  0  0
    0.9682   -2.3617    0.0198 H   0  0  0  0  0  0  0  0  0  0  0  0
   -0.2067    1.1519    0.9753 H   0  0  0  0  0  0  0  0  0  0  0  0
   -0.2072   -0.3421    1.8560 H   0  0  0  0  0  0  0  0  0  0  0  0
   -0.9583   -1.5843   -0.1378 H   0  0  0  0  0  0  0  0  0  0  0  0
   -1.6707   -0.6638   -2.1500 H   0  0  0  0  0  0  0  0  0  0  0  0
    0.0436   -0.2968   -2.0171 H   0  0  0  0  0  0  0  0  0  0  0  0
   -1.6933    1.4998   -2.8652 H   0  0  0  0  0  0  0  0  0  0  0  0
   -0.3842    2.0727   -1.7911 H   0  0  0  0  0  0  0  0  0  0  0  0
   -2.8065    2.8847   -1.2189 H   0  0  0  0  0  0  0  0  0  0  0  0
   -1.7104    2.3683    0.0643 H   0  0  0  0  0  0  0  0  0  0  0  0
   -3.8236    1.4667    0.5548 H   0  0  0  0  0  0  0  0  0  0  0  0
   -3.7326   -0.1622   -2.0199 H   0  0  0  0  0  0  0  0  0  0  0  0
   -4.7677    1.2590   -1.8298 H   0  0  0  0  0  0  0  0  0  0  0  0
   -5.5694   -1.2765   -1.3390 H   0  0  0  0  0  0  0  0  0  0  0  0
   -6.4589    1.1001    0.4134 H   0  0  0  0  0  0  0  0  0  0  0  0
   -7.3844   -0.4293    0.1349 H   0  0  0  0  0  0  0  0  0  0  0  0
   -7.0586    0.6855   -1.2384 H   0  0  0  0  0  0  0  0  0  0  0  0
   -5.4183   -2.0080    0.9584 H   0  0  0  0  0  0  0  0  0  0  0  0
   -4.8968   -0.3969    1.5533 H   0  0  0  0  0  0  0  0  0  0  0  0
   -3.1795   -2.1393   -0.2687 H   0  0  0  0  0  0  0  0  0  0  0  0
   -2.9715   -1.4967    2.7565 H   0  0  0  0  0  0  0  0  0  0  0  0
   -1.7753   -2.4542    1.8114 H   0  0  0  0  0  0  0  0  0  0  0  0
   -3.4376   -3.0870    2.0342 H   0  0  0  0  0  0  0  0  0  0  0  0
    1.0445    2.4865    0.1313 H   0  0  0  0  0  0  0  0  0  0  0  0
    2.2402    2.4185   -1.1614 H   0  0  0  0  0  0  0  0  0  0  0  0
    2.8721    2.7237    1.8396 H   0  0  0  0  0  0  0  0  0  0  0  0
    2.8508    4.0447    0.6075 H   0  0  0  0  0  0  0  0  0  0  0  0
    5.1412    3.2421    0.9852 H   0  0  0  0  0  0  0  0  0  0  0  0
    4.6271    2.9024   -0.7108 H   0  0  0  0  0  0  0  0  0  0  0  0
    6.8260    1.6606    0.7838 H   0  0  0  0  0  0  0  0  0  0  0  0
    6.3546    1.0476   -0.8519 H   0  0  0  0  0  0  0  0  0  0  0  0
    6.4927   -0.0575    0.5837 H   0  0  0  0  0  0  0  0  0  0  0  0
    3.9709    0.4631   -1.2992 H   0  0  0  0  0  0  0  0  0  0  0  0
    4.2503   -1.2999    1.2352 H   0  0  0  0  0  0  0  0  0  0  0  0
    5.0883   -1.4738   -0.3577 H   0  0  0  0  0  0  0  0  0  0  0  0
  1 26  1  0  0  0  0
  1 27  1  0  0  0  0
  1 28  1  0  0  0  0
  2  1  1  0  0  0  0
  2  3  1  0  0  0  0
  2 29  1  6  0  0  0
  3  4  1  0  0  0  0
  3 30  1  0  0  0  0
  3 31  1  0  0  0  0
  4  5  1  0  0  0  0
  4 18  2  0  0  0  0
  5 32  1  0  0  0  0
  5 33  1  0  0  0  0
  6  5  1  0  0  0  0
  6  7  1  0  0  0  0
  6 34  1  1  0  0  0
  7  8  1  0  0  0  0
  7 35  1  0  0  0  0
  7 36  1  0  0  0  0
  8  9  1  0  0  0  0
  8 37  1  0  0  0  0
  8 38  1  0  0  0  0
  9 39  1  0  0  0  0
  9 40  1  0  0  0  0
 10  9  1  0  0  0  0
 10 11  1  0  0  0  0
 10 41  1  1  0  0  0
 11 12  1  0  0  0  0
 11 42  1  0  0  0  0
 11 43  1  0  0  0  0
 12 13  1  0  0  0  0
 12 14  1  0  0  0  0
 12 44  1  6  0  0  0
 13 45  1  0  0  0  0
 13 46  1  0  0  0  0
 13 47  1  0  0  0  0
 14 15  1  0  0  0  0
 14 48  1  0  0  0  0
 14 49  1  0  0  0  0
 15 16  1  0  0  0  0
 15 17  1  0  0  0  0
 15 50  1  6  0  0  0
 16 51  1  0  0  0  0
 16 52  1  0  0  0  0
 16 53  1  0  0  0  0
 17  6  1  0  0  0  0
 17 10  1  0  0  0  0
 18 19  1  0  0  0  0
 19 20  1  0  0  0  0
 19 54  1  0  0  0  0
 19 55  1  0  0  0  0
 20 21  1  0  0  0  0
 20 56  1  0  0  0  0
 20 57  1  0  0  0  0
 21 22  1  0  0  0  0
 21 58  1  0  0  0  0
 21 59  1  0  0  0  0
 22 23  1  0  0  0  0
 22 24  1  0  0  0  0
 23 60  1  0  0  0  0
 23 61  1  0  0  0  0
 23 62  1  0  0  0  0
 24 25  1  0  0  0  0
 24 18  1  0  0  0  0
 24 63  1  0  0  0  0
 25  2  1  0  0  0  0
 25 64  1  0  0  0  0
 25 65  1  0  0  0  0
M  END
>  <IDENTIFIER>
CNP0230638.1

>  <Energy>
590.896

$$$$
