
 OpenBabel09062510413D

 77 81  0  0  0  0  0  0  0  0999 V2000
    9.3878    2.6700   -1.2854 C   0  0  0  0  0  0  0  0  0  0  0  0
    9.1515    2.0458    0.1110 C   0  0  0  0  0  0  0  0  0  0  0  0
   10.2125    0.9423    0.3162 C   0  0  0  0  0  0  0  0  0  0  0  0
    9.3510    3.1571    1.1637 C   0  0  0  0  0  0  0  0  0  0  0  0
    7.7417    1.4375    0.2664 C   0  0  0  0  0  0  0  0  0  0  0  0
    7.3823    0.8104    1.4796 C   0  0  0  0  0  0  0  0  0  0  0  0
    6.1199    0.2403    1.6532 C   0  0  0  0  0  0  0  0  0  0  0  0
    5.1704    0.2824    0.6245 C   0  0  0  0  0  0  0  0  0  0  0  0
    3.8401   -0.3292    0.8329 C   0  0  0  0  0  0  0  0  0  0  0  0
    2.7650   -0.3297   -0.0339 C   0  0  0  0  0  0  0  0  0  0  0  0
    1.7832   -1.0199    0.6428 C   0  0  0  0  0  0  0  0  0  0  0  0
    0.3808   -1.2566    0.1552 C   0  0  0  0  0  0  0  0  0  0  0  0
   -0.0026   -2.7399   -0.1171 C   0  0  1  0  0  0  0  0  0  0  0  0
    0.1438   -3.6921    1.1161 C   0  0  0  0  0  0  0  0  0  0  0  0
   -1.0953   -3.7732    1.8898 N   0  0  0  0  0  0  0  0  0  0  0  0
   -2.2029   -4.3684    1.1015 C   0  0  0  0  0  0  0  0  0  0  0  0
   -2.0017   -4.2676   -0.4344 C   0  0  0  0  0  0  0  0  0  0  0  0
   -1.4347   -2.8784   -0.7975 C   0  0  1  0  0  0  0  0  0  0  0  0
   -2.4290   -1.7246   -0.4286 C   0  0  0  0  0  0  0  0  0  0  0  0
   -3.7807   -1.7224   -1.1237 C   0  0  0  0  0  0  0  0  0  0  0  0
   -4.0565   -2.6345   -1.8895 O   0  0  0  0  0  0  0  0  0  0  0  0
   -4.6752   -0.6897   -0.9418 N   0  0  0  0  0  0  0  0  0  0  0  0
   -4.4005    0.4601   -0.0781 C   0  0  0  0  0  0  0  0  0  0  0  0
   -5.5208    0.6048    0.9554 C   0  0  0  0  0  0  0  0  0  0  0  0
   -6.7992    0.6617    0.2463 N   0  0  0  0  0  0  0  0  0  0  0  0
   -7.6739    1.8171    0.3025 C   0  0  0  0  0  0  0  0  0  0  0  0
   -8.6548    2.0496   -0.6951 C   0  0  0  0  0  0  0  0  0  0  0  0
   -9.4800    3.1777   -0.6510 C   0  0  0  0  0  0  0  0  0  0  0  0
   -9.3547    4.1004    0.3828 C   0  0  0  0  0  0  0  0  0  0  0  0
   -8.4047    3.8989    1.3792 C   0  0  0  0  0  0  0  0  0  0  0  0
   -7.5723    2.7757    1.3449 C   0  0  0  0  0  0  0  0  0  0  0  0
   -7.0798   -0.5154   -0.5785 C   0  0  0  0  0  0  0  0  0  0  0  0
   -5.9692   -0.6681   -1.6224 C   0  0  0  0  0  0  0  0  0  0  0  0
    2.2596   -1.3966    1.8446 N   0  0  0  0  0  0  0  0  0  0  0  0
    3.4875   -0.9718    1.9244 O   0  0  0  0  0  0  0  0  0  0  0  0
    5.5082    0.9081   -0.5845 C   0  0  0  0  0  0  0  0  0  0  0  0
    6.7732    1.4743   -0.7641 C   0  0  0  0  0  0  0  0  0  0  0  0
   10.4138    3.0919   -1.3588 H   0  0  0  0  0  0  0  0  0  0  0  0
    8.6714    3.4975   -1.4779 H   0  0  0  0  0  0  0  0  0  0  0  0
    9.2833    1.9035   -2.0839 H   0  0  0  0  0  0  0  0  0  0  0  0
   11.2380    1.3576    0.2091 H   0  0  0  0  0  0  0  0  0  0  0  0
   10.0813    0.1349   -0.4364 H   0  0  0  0  0  0  0  0  0  0  0  0
   10.1432    0.4890    1.3267 H   0  0  0  0  0  0  0  0  0  0  0  0
   10.3637    3.6066    1.0735 H   0  0  0  0  0  0  0  0  0  0  0  0
    9.2502    2.7652    2.1971 H   0  0  0  0  0  0  0  0  0  0  0  0
    8.5979    3.9625    1.0221 H   0  0  0  0  0  0  0  0  0  0  0  0
    8.0799    0.7540    2.3039 H   0  0  0  0  0  0  0  0  0  0  0  0
    5.8861   -0.2332    2.5989 H   0  0  0  0  0  0  0  0  0  0  0  0
    2.6904    0.1162   -1.0163 H   0  0  0  0  0  0  0  0  0  0  0  0
    0.2796   -0.7104   -0.8084 H   0  0  0  0  0  0  0  0  0  0  0  0
   -0.3069   -0.8022    0.8991 H   0  0  0  0  0  0  0  0  0  0  0  0
    0.7567   -3.1197   -0.8380 H   0  0  0  0  0  0  0  0  0  0  0  0
    1.0037   -3.4496    1.7621 H   0  0  0  0  0  0  0  0  0  0  0  0
    0.3692   -4.7203    0.7537 H   0  0  0  0  0  0  0  0  0  0  0  0
   -1.3456   -2.8097    2.2120 H   0  0  0  0  0  0  0  0  0  0  0  0
   -3.1464   -3.8529    1.3852 H   0  0  0  0  0  0  0  0  0  0  0  0
   -2.3318   -5.4378    1.3719 H   0  0  0  0  0  0  0  0  0  0  0  0
   -2.9459   -4.5275   -0.9506 H   0  0  0  0  0  0  0  0  0  0  0  0
   -1.2612   -5.0265   -0.7692 H   0  0  0  0  0  0  0  0  0  0  0  0
   -1.2889   -2.8007   -1.8979 H   0  0  0  0  0  0  0  0  0  0  0  0
   -1.9619   -0.7722   -0.7456 H   0  0  0  0  0  0  0  0  0  0  0  0
   -2.5970   -1.6980    0.6656 H   0  0  0  0  0  0  0  0  0  0  0  0
   -4.3805    1.3783   -0.7056 H   0  0  0  0  0  0  0  0  0  0  0  0
   -3.4329    0.4076    0.4549 H   0  0  0  0  0  0  0  0  0  0  0  0
   -5.2914    1.5059    1.5470 H   0  0  0  0  0  0  0  0  0  0  0  0
   -5.5172   -0.2686    1.6441 H   0  0  0  0  0  0  0  0  0  0  0  0
   -8.7932    1.3928   -1.5374 H   0  0  0  0  0  0  0  0  0  0  0  0
  -10.2158    3.3385   -1.4280 H   0  0  0  0  0  0  0  0  0  0  0  0
   -9.9942    4.9735    0.4115 H   0  0  0  0  0  0  0  0  0  0  0  0
   -8.3102    4.6162    2.1843 H   0  0  0  0  0  0  0  0  0  0  0  0
   -6.8723    2.6809    2.1569 H   0  0  0  0  0  0  0  0  0  0  0  0
   -8.0624   -0.4905   -1.0784 H   0  0  0  0  0  0  0  0  0  0  0  0
   -7.0951   -1.4158    0.0748 H   0  0  0  0  0  0  0  0  0  0  0  0
   -6.0042    0.2088   -2.3052 H   0  0  0  0  0  0  0  0  0  0  0  0
   -6.1544   -1.5790   -2.2306 H   0  0  0  0  0  0  0  0  0  0  0  0
    4.8005    0.9595   -1.4006 H   0  0  0  0  0  0  0  0  0  0  0  0
    6.9716    1.9364   -1.7193 H   0  0  0  0  0  0  0  0  0  0  0  0
  1  2  1  0  0  0  0
  1 38  1  0  0  0  0
  1 39  1  0  0  0  0
  1 40  1  0  0  0  0
  2  3  1  0  0  0  0
  2  4  1  0  0  0  0
  2  5  1  0  0  0  0
  3 41  1  0  0  0  0
  3 42  1  0  0  0  0
  3 43  1  0  0  0  0
  4 44  1  0  0  0  0
  4 45  1  0  0  0  0
  4 46  1  0  0  0  0
  5  6  2  0  0  0  0
  6  7  1  0  0  0  0
  6 47  1  0  0  0  0
  7  8  2  0  0  0  0
  7 48  1  0  0  0  0
  8  9  1  0  0  0  0
  8 36  1  0  0  0  0
  9 10  2  0  0  0  0
 10 11  1  0  0  0  0
 10 49  1  0  0  0  0
 11 12  1  0  0  0  0
 11 34  2  0  0  0  0
 12 50  1  0  0  0  0
 12 51  1  0  0  0  0
 13 12  1  0  0  0  0
 13 14  1  0  0  0  0
 13 52  1  6  0  0  0
 14 15  1  0  0  0  0
 14 53  1  0  0  0  0
 14 54  1  0  0  0  0
 15 16  1  0  0  0  0
 15 55  1  0  0  0  0
 16 17  1  0  0  0  0
 16 56  1  0  0  0  0
 16 57  1  0  0  0  0
 17 18  1  0  0  0  0
 17 58  1  0  0  0  0
 17 59  1  0  0  0  0
 18 19  1  0  0  0  0
 18 13  1  0  0  0  0
 18 60  1  6  0  0  0
 19 20  1  0  0  0  0
 19 61  1  0  0  0  0
 19 62  1  0  0  0  0
 20 21  2  0  0  0  0
 20 22  1  0  0  0  0
 22 23  1  0  0  0  0
 23 24  1  0  0  0  0
 23 63  1  0  0  0  0
 23 64  1  0  0  0  0
 24 25  1  0  0  0  0
 24 65  1  0  0  0  0
 24 66  1  0  0  0  0
 25 26  1  0  0  0  0
 25 32  1  0  0  0  0
 26 27  2  0  0  0  0
 27 28  1  0  0  0  0
 27 67  1  0  0  0  0
 28 29  2  0  0  0  0
 28 68  1  0  0  0  0
 29 30  1  0  0  0  0
 29 69  1  0  0  0  0
 30 31  2  0  0  0  0
 30 70  1  0  0  0  0
 31 26  1  0  0  0  0
 31 71  1  0  0  0  0
 32 33  1  0  0  0  0
 32 72  1  0  0  0  0
 32 73  1  0  0  0  0
 33 22  1  0  0  0  0
 33 74  1  0  0  0  0
 33 75  1  0  0  0  0
 34 35  1  0  0  0  0
 35  9  1  0  0  0  0
 36 37  2  0  0  0  0
 36 76  1  0  0  0  0
 37  5  1  0  0  0  0
 37 77  1  0  0  0  0
M  END
>  <IDENTIFIER>
CNP0012742.1

>  <Energy>
721.04

$$$$
