
 OpenBabel09052509003D

 42 44  0  0  0  0  0  0  0  0999 V2000
    3.9075   -0.4057    0.8848 C   0  0  0  0  0  0  0  0  0  0  0  0
    2.8364   -0.0304   -0.1582 C   0  0  0  0  0  0  0  0  0  0  0  0
    3.3689    1.1691   -0.9652 C   0  0  0  0  0  0  0  0  0  0  0  0
    1.4502    0.2684    0.5241 C   0  0  2  0  0  0  0  0  0  0  0  0
    0.9140   -0.9807    1.2737 C   0  0  0  0  0  0  0  0  0  0  0  0
   -0.4963   -0.7592    1.7979 C   0  0  0  0  0  0  0  0  0  0  0  0
   -1.4829   -0.0113    0.8368 C   0  0  1  0  0  0  0  0  0  0  0  0
   -2.7984    0.1336    1.6717 C   0  0  0  0  0  0  0  0  0  0  0  0
   -0.8756    1.3116    0.3724 C   0  0  2  0  0  0  0  0  0  0  0  0
   -1.9395    1.9043   -0.5857 C   0  0  0  0  0  0  0  0  0  0  0  0
   -2.5631    0.6510   -1.2236 C   0  0  0  0  0  0  0  0  0  0  0  0
   -1.6816   -0.4908   -0.6482 C   0  0  2  0  0  0  0  0  0  0  0  0
   -2.3197   -1.8676   -0.8673 C   0  0  0  0  0  0  0  0  0  0  0  0
   -0.3036   -0.2782   -1.3688 C   0  0  2  0  0  0  0  0  0  0  0  0
    0.4726   -1.4362   -1.5184 O   0  0  0  0  0  0  0  0  0  0  0  0
    0.3452    0.8066   -0.4613 C   0  0  2  0  0  0  0  0  0  0  0  0
    4.8794   -0.6020    0.3834 H   0  0  0  0  0  0  0  0  0  0  0  0
    3.6441   -1.3330    1.4304 H   0  0  0  0  0  0  0  0  0  0  0  0
    4.0475    0.4186    1.6149 H   0  0  0  0  0  0  0  0  0  0  0  0
    2.7429   -0.8822   -0.8620 H   0  0  0  0  0  0  0  0  0  0  0  0
    3.4670    2.0677   -0.3192 H   0  0  0  0  0  0  0  0  0  0  0  0
    2.7173    1.4024   -1.8297 H   0  0  0  0  0  0  0  0  0  0  0  0
    4.3649    0.9296   -1.3956 H   0  0  0  0  0  0  0  0  0  0  0  0
    1.6273    1.0839    1.2619 H   0  0  0  0  0  0  0  0  0  0  0  0
    1.5645   -1.2735    2.1226 H   0  0  0  0  0  0  0  0  0  0  0  0
    0.8896   -1.8674    0.6218 H   0  0  0  0  0  0  0  0  0  0  0  0
   -0.3892   -0.1198    2.7037 H   0  0  0  0  0  0  0  0  0  0  0  0
   -0.9108   -1.7375    2.1276 H   0  0  0  0  0  0  0  0  0  0  0  0
   -2.5845    0.6275    2.6437 H   0  0  0  0  0  0  0  0  0  0  0  0
   -3.2231   -0.8712    1.8815 H   0  0  0  0  0  0  0  0  0  0  0  0
   -3.5996    0.7372    1.2135 H   0  0  0  0  0  0  0  0  0  0  0  0
   -0.5727    2.0429    1.1540 H   0  0  0  0  0  0  0  0  0  0  0  0
   -1.4733    2.6015   -1.3154 H   0  0  0  0  0  0  0  0  0  0  0  0
   -2.7256    2.4543   -0.0253 H   0  0  0  0  0  0  0  0  0  0  0  0
   -2.6150    0.6948   -2.3339 H   0  0  0  0  0  0  0  0  0  0  0  0
   -3.6151    0.5394   -0.8901 H   0  0  0  0  0  0  0  0  0  0  0  0
   -2.4500   -2.0606   -1.9532 H   0  0  0  0  0  0  0  0  0  0  0  0
   -3.3168   -1.9133   -0.3813 H   0  0  0  0  0  0  0  0  0  0  0  0
   -1.6789   -2.6608   -0.4300 H   0  0  0  0  0  0  0  0  0  0  0  0
   -0.4530    0.1365   -2.3945 H   0  0  0  0  0  0  0  0  0  0  0  0
    0.0496   -1.9807   -2.2324 H   0  0  0  0  0  0  0  0  0  0  0  0
    0.7460    1.6598   -1.0411 H   0  0  0  0  0  0  0  0  0  0  0  0
  1  2  1  0  0  0  0
  1 17  1  0  0  0  0
  1 18  1  0  0  0  0
  1 19  1  0  0  0  0
  2  3  1  0  0  0  0
  2 20  1  0  0  0  0
  3 21  1  0  0  0  0
  3 22  1  0  0  0  0
  3 23  1  0  0  0  0
  4  2  1  0  0  0  0
  4  5  1  0  0  0  0
  4 24  1  1  0  0  0
  5  6  1  0  0  0  0
  5 25  1  0  0  0  0
  5 26  1  0  0  0  0
  6  7  1  0  0  0  0
  6 27  1  0  0  0  0
  6 28  1  0  0  0  0
  7  8  1  1  0  0  0
  7  9  1  0  0  0  0
  8 29  1  0  0  0  0
  8 30  1  0  0  0  0
  8 31  1  0  0  0  0
  9 10  1  0  0  0  0
  9 32  1  1  0  0  0
 10 11  1  0  0  0  0
 10 33  1  0  0  0  0
 10 34  1  0  0  0  0
 11 12  1  0  0  0  0
 11 35  1  0  0  0  0
 11 36  1  0  0  0  0
 12 13  1  6  0  0  0
 12 14  1  0  0  0  0
 12  7  1  0  0  0  0
 13 37  1  0  0  0  0
 13 38  1  0  0  0  0
 13 39  1  0  0  0  0
 14 15  1  0  0  0  0
 14 16  1  0  0  0  0
 14 40  1  6  0  0  0
 15 41  1  0  0  0  0
 16  4  1  0  0  0  0
 16  9  1  0  0  0  0
 16 42  1  6  0  0  0
M  END
>  <IDENTIFIER>
CNP0059687.2

>  <Energy>
627.353

$$$$
