
 OpenBabel09072513183D

 76 81  0  0  0  0  0  0  0  0999 V2000
   -5.9851   -2.5119   -1.4903 C   0  0  0  0  0  0  0  0  0  0  0  0
   -5.2688   -1.3461   -0.8032 C   0  0  2  0  0  0  0  0  0  0  0  0
   -6.2531   -0.5437    0.0765 C   0  0  0  0  0  0  0  0  0  0  0  0
   -5.7776    0.9015    0.3433 C   0  0  2  0  0  0  0  0  0  0  0  0
   -6.4630    1.7905   -0.5136 O   0  0  0  0  0  0  0  0  0  0  0  0
   -4.2385    1.0771    0.1886 C   0  0  1  0  0  0  0  0  0  0  0  0
   -3.3100    0.5240    1.3122 C   0  0  1  0  0  0  0  0  0  0  0  0
   -3.9442   -0.2122    2.4995 C   0  0  0  0  0  0  0  0  0  0  0  0
   -2.2241   -0.3316    0.5981 C   0  0  1  0  0  0  0  0  0  0  0  0
   -2.3329    0.1485   -0.8472 C   0  0  2  0  0  0  0  0  0  0  0  0
   -1.2174    1.2115   -0.9597 C   0  0  0  0  0  0  0  0  0  0  0  0
   -0.0805    0.3808   -0.3487 C   0  0  1  0  0  0  0  0  0  0  0  0
    1.3639    0.8797   -0.1574 C   0  0  2  0  0  0  0  0  0  0  0  0
    1.9357    1.4890   -1.4508 C   0  0  0  0  0  0  0  0  0  0  0  0
    3.4007    1.9182   -1.2589 C   0  0  0  0  0  0  0  0  0  0  0  0
    4.2241    0.6895   -0.8406 C   0  0  1  0  0  0  0  0  0  0  0  0
    5.7397    0.9127   -0.8349 C   0  0  0  0  0  0  0  0  0  0  0  0
    6.4742   -0.4611   -0.7370 C   0  0  1  0  0  0  0  0  0  0  0  0
    7.7034   -0.3227    0.0497 N   0  0  0  0  0  0  0  0  0  0  0  0
    5.5761   -1.6089   -0.1849 C   0  0  0  0  0  0  0  0  0  0  0  0
    4.7068   -1.1094    0.9669 C   0  0  0  0  0  0  0  0  0  0  0  0
    3.7415    0.0767    0.5450 C   0  0  1  0  0  0  0  0  0  0  0  0
    3.8213    1.1118    1.7188 C   0  0  0  0  0  0  0  0  0  0  0  0
    2.2371   -0.3648    0.3136 C   0  0  1  0  0  0  0  0  0  0  0  0
    1.5833   -1.1206    1.5319 C   0  0  0  0  0  0  0  0  0  0  0  0
    0.0678   -1.4083    1.3421 C   0  0  0  0  0  0  0  0  0  0  0  0
   -0.6993   -0.1130    0.9846 C   0  0  2  0  0  0  0  0  0  0  0  0
   -0.5431    0.9285    2.1520 C   0  0  0  0  0  0  0  0  0  0  0  0
   -3.7084    0.6171   -1.1220 N   0  0  1  0  0  0  0  0  0  0  0  0
   -4.5454   -0.4263   -1.8018 C   0  0  0  0  0  0  0  0  0  0  0  0
   -6.4543   -3.1728   -0.7301 H   0  0  0  0  0  0  0  0  0  0  0  0
   -5.2574   -3.1148   -2.0743 H   0  0  0  0  0  0  0  0  0  0  0  0
   -6.7725   -2.1363   -2.1780 H   0  0  0  0  0  0  0  0  0  0  0  0
   -4.4937   -1.7862   -0.1540 H   0  0  0  0  0  0  0  0  0  0  0  0
   -6.3956   -1.1135    1.0191 H   0  0  0  0  0  0  0  0  0  0  0  0
   -7.2616   -0.4717   -0.3890 H   0  0  0  0  0  0  0  0  0  0  0  0
   -6.1007    1.2094    1.3597 H   0  0  0  0  0  0  0  0  0  0  0  0
   -6.0347    1.8041   -1.4040 H   0  0  0  0  0  0  0  0  0  0  0  0
   -4.0884    2.1834    0.2042 H   0  0  0  0  0  0  0  0  0  0  0  0
   -2.9028    1.4499    1.7442 H   0  0  0  0  0  0  0  0  0  0  0  0
   -4.4312   -1.1521    2.1797 H   0  0  0  0  0  0  0  0  0  0  0  0
   -4.6847    0.4381    3.0098 H   0  0  0  0  0  0  0  0  0  0  0  0
   -3.1618   -0.4752    3.2411 H   0  0  0  0  0  0  0  0  0  0  0  0
   -2.5225   -1.3995    0.5992 H   0  0  0  0  0  0  0  0  0  0  0  0
   -2.0409   -0.6753   -1.5426 H   0  0  0  0  0  0  0  0  0  0  0  0
   -1.4351    2.1140   -0.3497 H   0  0  0  0  0  0  0  0  0  0  0  0
   -1.0316    1.5137   -2.0125 H   0  0  0  0  0  0  0  0  0  0  0  0
    0.0337   -0.4740   -1.0636 H   0  0  0  0  0  0  0  0  0  0  0  0
    1.3569    1.6978    0.5806 H   0  0  0  0  0  0  0  0  0  0  0  0
    1.3340    2.3715   -1.7579 H   0  0  0  0  0  0  0  0  0  0  0  0
    1.8820    0.7371   -2.2695 H   0  0  0  0  0  0  0  0  0  0  0  0
    3.4870    2.7373   -0.5167 H   0  0  0  0  0  0  0  0  0  0  0  0
    3.7762    2.3083   -2.2302 H   0  0  0  0  0  0  0  0  0  0  0  0
    4.0498   -0.0438   -1.6619 H   0  0  0  0  0  0  0  0  0  0  0  0
    5.9819    1.5664    0.0258 H   0  0  0  0  0  0  0  0  0  0  0  0
    6.1031    1.4429   -1.7415 H   0  0  0  0  0  0  0  0  0  0  0  0
    6.7610   -0.7996   -1.7575 H   0  0  0  0  0  0  0  0  0  0  0  0
    7.4829   -0.0055    1.0203 H   0  0  0  0  0  0  0  0  0  0  0  0
    8.3228    0.3934   -0.3949 H   0  0  0  0  0  0  0  0  0  0  0  0
    6.2083   -2.4744    0.1096 H   0  0  0  0  0  0  0  0  0  0  0  0
    4.8862   -1.9755   -0.9757 H   0  0  0  0  0  0  0  0  0  0  0  0
    5.4388   -0.7702    1.7309 H   0  0  0  0  0  0  0  0  0  0  0  0
    4.1720   -1.9447    1.4485 H   0  0  0  0  0  0  0  0  0  0  0  0
    3.5051    0.6558    2.6773 H   0  0  0  0  0  0  0  0  0  0  0  0
    3.2144    2.0199    1.5684 H   0  0  0  0  0  0  0  0  0  0  0  0
    4.8587    1.4614    1.8865 H   0  0  0  0  0  0  0  0  0  0  0  0
    2.2240   -1.1022   -0.5215 H   0  0  0  0  0  0  0  0  0  0  0  0
    1.7148   -0.5509    2.4634 H   0  0  0  0  0  0  0  0  0  0  0  0
    2.0761   -2.0955    1.7083 H   0  0  0  0  0  0  0  0  0  0  0  0
   -0.3494   -1.8695    2.2633 H   0  0  0  0  0  0  0  0  0  0  0  0
   -0.0530   -2.1467    0.5177 H   0  0  0  0  0  0  0  0  0  0  0  0
   -1.0655    0.5686    3.0613 H   0  0  0  0  0  0  0  0  0  0  0  0
   -0.9038    1.9369    1.8722 H   0  0  0  0  0  0  0  0  0  0  0  0
    0.4926    1.1286    2.4676 H   0  0  0  0  0  0  0  0  0  0  0  0
   -3.9276   -1.0319   -2.5003 H   0  0  0  0  0  0  0  0  0  0  0  0
   -5.2992    0.0592   -2.4537 H   0  0  0  0  0  0  0  0  0  0  0  0
  1 31  1  0  0  0  0
  1 32  1  0  0  0  0
  1 33  1  0  0  0  0
  2  1  1  0  0  0  0
  2  3  1  0  0  0  0
  2 34  1  1  0  0  0
  3  4  1  0  0  0  0
  3 35  1  0  0  0  0
  3 36  1  0  0  0  0
  4  5  1  0  0  0  0
  4  6  1  0  0  0  0
  4 37  1  1  0  0  0
  5 38  1  0  0  0  0
  6  7  1  0  0  0  0
  6 29  1  0  0  0  0
  6 39  1  1  0  0  0
  7  8  1  0  0  0  0
  7  9  1  0  0  0  0
  7 40  1  1  0  0  0
  8 41  1  0  0  0  0
  8 42  1  0  0  0  0
  8 43  1  0  0  0  0
  9 10  1  0  0  0  0
  9 44  1  1  0  0  0
 10 11  1  0  0  0  0
 10 29  1  0  0  0  0
 10 45  1  6  0  0  0
 11 46  1  0  0  0  0
 11 47  1  0  0  0  0
 12 11  1  0  0  0  0
 12 13  1  0  0  0  0
 12 48  1  6  0  0  0
 13 14  1  0  0  0  0
 13 49  1  1  0  0  0
 14 15  1  0  0  0  0
 14 50  1  0  0  0  0
 14 51  1  0  0  0  0
 15 52  1  0  0  0  0
 15 53  1  0  0  0  0
 16 15  1  0  0  0  0
 16 17  1  0  0  0  0
 16 54  1  6  0  0  0
 17 18  1  0  0  0  0
 17 55  1  0  0  0  0
 17 56  1  0  0  0  0
 18 19  1  0  0  0  0
 18 20  1  0  0  0  0
 18 57  1  6  0  0  0
 19 58  1  0  0  0  0
 19 59  1  0  0  0  0
 20 21  1  0  0  0  0
 20 60  1  0  0  0  0
 20 61  1  0  0  0  0
 21 22  1  0  0  0  0
 21 62  1  0  0  0  0
 21 63  1  0  0  0  0
 22 23  1  1  0  0  0
 22 24  1  0  0  0  0
 22 16  1  0  0  0  0
 23 64  1  0  0  0  0
 23 65  1  0  0  0  0
 23 66  1  0  0  0  0
 24 25  1  0  0  0  0
 24 13  1  0  0  0  0
 24 67  1  6  0  0  0
 25 26  1  0  0  0  0
 25 68  1  0  0  0  0
 25 69  1  0  0  0  0
 26 27  1  0  0  0  0
 26 70  1  0  0  0  0
 26 71  1  0  0  0  0
 27 28  1  1  0  0  0
 27  9  1  0  0  0  0
 27 12  1  0  0  0  0
 28 72  1  0  0  0  0
 28 73  1  0  0  0  0
 28 74  1  0  0  0  0
 29 30  1  1  0  0  0
 30  2  1  0  0  0  0
 30 75  1  0  0  0  0
 30 76  1  0  0  0  0
M  END
>  <IDENTIFIER>
CNP0260967.6

>  <Energy>
1177.08

$$$$
