
 OpenBabel09072503203D

 18 18  0  0  0  0  0  0  0  0999 V2000
   -2.1814    1.3312   -0.2754 N   0  0  0  0  0  0  0  0  0  0  0  0
   -1.1734    0.3322   -0.1420 C   0  0  0  0  0  0  0  0  0  0  0  0
   -1.6119   -0.9949   -0.0499 C   0  0  0  0  0  0  0  0  0  0  0  0
   -0.7185   -2.0314    0.1518 C   0  0  0  0  0  0  0  0  0  0  0  0
    0.6381   -1.7709    0.2542 C   0  0  0  0  0  0  0  0  0  0  0  0
    1.1510   -0.4598    0.1497 C   0  0  0  0  0  0  0  0  0  0  0  0
    2.5832   -0.3046    0.1863 N   0  3  0  0  0  0  0  0  0  0  0  0
    3.2758   -1.2368    0.4671 O   0  0  0  0  0  0  0  0  0  0  0  0
    3.1691    0.7708   -0.2905 O   0  5  0  0  0  0  0  0  0  0  0  0
    0.2265    0.6329   -0.0423 C   0  0  0  0  0  0  0  0  0  0  0  0
    0.6797    1.9941   -0.1071 N   0  3  0  0  0  0  0  0  0  0  0  0
    1.5645    2.3708    0.6002 O   0  0  0  0  0  0  0  0  0  0  0  0
    0.0740    2.8774   -0.8689 O   0  5  0  0  0  0  0  0  0  0  0  0
   -3.1730    1.0576   -0.3437 H   0  0  0  0  0  0  0  0  0  0  0  0
   -1.9994    2.3373   -0.2163 H   0  0  0  0  0  0  0  0  0  0  0  0
   -2.6678   -1.2276   -0.1156 H   0  0  0  0  0  0  0  0  0  0  0  0
   -1.0807   -3.0489    0.2272 H   0  0  0  0  0  0  0  0  0  0  0  0
    1.2989   -2.6170    0.3940 H   0  0  0  0  0  0  0  0  0  0  0  0
  1  2  1  0  0  0  0
  1 14  1  0  0  0  0
  1 15  1  0  0  0  0
  2  3  2  0  0  0  0
  3  4  1  0  0  0  0
  3 16  1  0  0  0  0
  4  5  2  0  0  0  0
  4 17  1  0  0  0  0
  5  6  1  0  0  0  0
  5 18  1  0  0  0  0
  6  7  1  0  0  0  0
  6 10  2  0  0  0  0
  7  8  2  0  0  0  0
  7  9  1  0  0  0  0
 10 11  1  0  0  0  0
 10  2  1  0  0  0  0
 11 12  2  0  0  0  0
 11 13  1  0  0  0  0
M  CHG  4   7   1   9  -1  11   1  13  -1
M  END
>  <IDENTIFIER>
CNP0553487.0

>  <Energy>
207.019

$$$$
