
 OpenBabel09072518412D

 64 68  0  0  0  0  0  0  0  0999 V2000
    1.3625   -5.6437    1.1969 C   0  0  0  0  0  0  0  0  0  0  0  0
    0.8120   -4.5369    0.6809 C   0  0  0  0  0  0  0  0  0  0  0  0
   -0.4027   -3.9167    1.1771 C   0  0  0  0  0  0  0  0  0  0  0  0
   -1.0890   -4.3386    2.0953 O   0  0  0  0  0  0  0  0  0  0  0  0
   -0.8892   -3.0595    0.0718 C   0  0  1  0  0  0  0  0  0  0  0  0
   -0.2602   -3.7191   -1.1705 C   0  0  0  0  0  0  0  0  0  0  0  0
    1.1774   -3.8718   -0.6353 C   0  0  2  0  0  0  0  0  0  0  0  0
    1.8613   -2.4369   -0.4529 C   0  0  0  0  0  0  0  0  0  0  0  0
    0.8938   -1.2057   -0.6277 C   0  0  1  0  0  0  0  0  0  0  0  0
    1.5085    0.0725   -0.4422 O   0  0  0  0  0  0  0  0  0  0  0  0
    0.8003    0.9398    0.4648 C   0  0  2  0  0  0  0  0  0  0  0  0
    1.6160    1.9958    0.8743 O   0  0  0  0  0  0  0  0  0  0  0  0
   -0.7500    1.2990   -0.0000 C   0  0  2  0  0  0  0  0  0  0  0  0
   -1.5000    2.5981    0.0000 C   0  0  2  0  0  0  0  0  0  0  0  0
   -1.7605    4.0753    0.0000 C   0  0  0  0  0  0  0  0  0  0  0  0
   -0.1436    3.2385   -1.0051 C   0  0  0  0  0  0  0  0  0  0  0  0
    1.1055    3.8210   -0.4406 O   0  0  0  0  0  0  0  0  0  0  0  0
    1.5796    5.1013    0.0000 C   0  0  0  0  0  0  0  0  0  0  0  0
    2.9891    5.6144    0.0000 C   0  0  0  0  0  0  0  0  0  0  0  0
    0.7324    5.9628    0.1777 O   0  0  0  0  0  0  0  0  0  0  0  0
   -3.1684    2.4177   -0.0230 C   0  0  2  0  0  0  0  0  0  0  0  0
   -4.1514    3.3820    0.4898 O   0  0  0  0  0  0  0  0  0  0  0  0
   -4.6700    4.5883    0.0000 C   0  0  0  0  0  0  0  0  0  0  0  0
   -6.0796    5.1013    0.0000 C   0  0  0  0  0  0  0  0  0  0  0  0
   -4.0664    5.1940   -0.8631 O   0  0  0  0  0  0  0  0  0  0  0  0
   -3.4037    1.2285    0.8774 C   0  0  0  0  0  0  0  0  0  0  0  0
   -3.0000    0.0000    0.0000 C   0  0  1  0  0  0  0  0  0  0  0  0
   -4.2296   -1.1349    0.0233 O   0  0  0  0  0  0  0  0  0  0  0  0
   -3.0000   -2.5981    0.0000 C   0  0  0  0  0  0  0  0  0  0  0  0
   -3.8948   -4.1698   -0.2488 O   0  0  0  0  0  0  0  0  0  0  0  0
   -1.5000    0.0000    0.0000 C   0  0  2  0  0  0  0  0  0  0  0  0
   -2.2500   -1.2990   -0.0000 C   0  0  0  0  0  0  0  0  0  0  0  0
   -3.0000   -2.5981    0.0000 O   0  0  0  0  0  0  0  0  0  0  0  0
   -0.3269   -1.4104    0.2338 C   0  0  1  0  0  0  0  0  0  0  0  0
    0.9474   -6.1007    2.0927 H   0  0  0  0  0  0  0  0  0  0  0  0
    2.2035   -6.1250    0.7116 H   0  0  0  0  0  0  0  0  0  0  0  0
   -0.7314   -4.7169   -1.3413 H   0  0  0  0  0  0  0  0  0  0  0  0
   -0.3562   -3.1487   -2.1151 H   0  0  0  0  0  0  0  0  0  0  0  0
    1.8398   -4.5323   -1.2360 H   0  0  0  0  0  0  0  0  0  0  0  0
    2.3896   -2.4112    0.5259 H   0  0  0  0  0  0  0  0  0  0  0  0
    2.6357   -2.3253   -1.2397 H   0  0  0  0  0  0  0  0  0  0  0  0
    0.5383   -1.2123   -1.6774 H   0  0  0  0  0  0  0  0  0  0  0  0
    0.7911    0.4159    1.4472 H   0  0  0  0  0  0  0  0  0  0  0  0
    2.4803    1.9367    0.3862 H   0  0  0  0  0  0  0  0  0  0  0  0
   -0.9037    1.4813    1.0813 H   0  0  0  0  0  0  0  0  0  0  0  0
   -1.1062    4.4086    0.8443 H   0  0  0  0  0  0  0  0  0  0  0  0
   -2.0934    4.3498   -1.0394 H   0  0  0  0  0  0  0  0  0  0  0  0
   -1.9463    5.1290    0.0000 H   0  0  0  0  0  0  0  0  0  0  0  0
   -0.3768    3.8975   -1.8854 H   0  0  0  0  0  0  0  0  0  0  0  0
    0.2034    2.4678   -1.7402 H   0  0  0  0  0  0  0  0  0  0  0  0
    3.4620    4.6157   -0.1051 H   0  0  0  0  0  0  0  0  0  0  0  0
    2.9946    5.9205    1.0690 H   0  0  0  0  0  0  0  0  0  0  0  0
    3.9946    5.9804    0.0000 H   0  0  0  0  0  0  0  0  0  0  0  0
   -3.5075    2.1726   -1.0584 H   0  0  0  0  0  0  0  0  0  0  0  0
   -5.8671    5.9815    0.6455 H   0  0  0  0  0  0  0  0  0  0  0  0
   -6.4886    4.2792    0.6239 H   0  0  0  0  0  0  0  0  0  0  0  0
   -7.0851    5.4672    0.0000 H   0  0  0  0  0  0  0  0  0  0  0  0
   -2.8675    1.2917    1.8505 H   0  0  0  0  0  0  0  0  0  0  0  0
   -4.4710    1.2899    1.2956 H   0  0  0  0  0  0  0  0  0  0  0  0
   -4.0700    0.0000    0.0000 H   0  0  0  0  0  0  0  0  0  0  0  0
   -2.1039   -1.2727    1.3735 H   0  0  0  0  0  0  0  0  0  0  0  0
   -1.8973   -1.3030   -1.2771 H   0  0  0  0  0  0  0  0  0  0  0  0
   -3.5250   -2.8448    1.6771 H   0  0  0  0  0  0  0  0  0  0  0  0
   -0.0065   -1.4154    1.3045 H   0  0  0  0  0  0  0  0  0  0  0  0
  1  2  2  0  0  0  0
  1 35  1  0  0  0  0
  1 36  1  0  0  0  0
  2  3  1  0  0  0  0
  3  4  2  0  0  0  0
  5  3  1  1  0  0  0
  5  6  1  0  0  0  0
  6  7  1  0  0  0  0
  6 37  1  0  0  0  0
  6 38  1  0  0  0  0
  7  8  1  0  0  0  0
  7  2  1  0  0  0  0
  7 39  1  1  0  0  0
  8 40  1  0  0  0  0
  8 41  1  0  0  0  0
  9  8  1  0  0  0  0
  9 10  1  0  0  0  0
  9 42  1  1  0  0  0
 10 11  1  0  0  0  0
 11 12  1  0  0  0  0
 11 43  1  6  0  0  0
 12 44  1  0  0  0  0
 13 11  1  0  0  0  0
 13 14  1  0  0  0  0
 13 45  1  6  0  0  0
 14 15  1  6  0  0  0
 14 16  1  0  0  0  0
 14 21  1  0  0  0  0
 15 46  1  0  0  0  0
 15 47  1  0  0  0  0
 15 48  1  0  0  0  0
 16 17  1  0  0  0  0
 16 49  1  0  0  0  0
 16 50  1  0  0  0  0
 17 18  1  0  0  0  0
 18 19  1  0  0  0  0
 18 20  2  0  0  0  0
 19 51  1  0  0  0  0
 19 52  1  0  0  0  0
 19 53  1  0  0  0  0
 21 22  1  0  0  0  0
 21 26  1  0  0  0  0
 21 54  1  6  0  0  0
 22 23  1  0  0  0  0
 23 24  1  0  0  0  0
 23 25  2  0  0  0  0
 24 55  1  0  0  0  0
 24 56  1  0  0  0  0
 24 57  1  0  0  0  0
 26 58  1  0  0  0  0
 26 59  1  0  0  0  0
 27 26  1  0  0  0  0
 27 28  1  0  0  0  0
 27 31  1  0  0  0  0
 27 60  1  1  0  0  0
 28 29  1  0  0  0  0
 29 30  2  0  0  0  0
 29  5  1  0  0  0  0
 31 32  1  1  0  0  0
 31 34  1  0  0  0  0
 31 13  1  0  0  0  0
 32 33  1  0  0  0  0
 32 61  1  0  0  0  0
 32 62  1  0  0  0  0
 33 63  1  0  0  0  0
 34  9  1  0  0  0  0
 34  5  1  0  0  0  0
 34 64  1  1  0  0  0
M  END
>  <IDENTIFIER>
CNP0275111.2

>  <Energy>
1.99252e+36

$$$$
