
 OpenBabel09072511203D

 97 98  0  0  0  0  0  0  0  0999 V2000
    7.6738    3.2771   -0.8993 C   0  0  0  0  0  0  0  0  0  0  0  0
    8.2750    3.1772   -2.3019 C   0  0  0  0  0  0  0  0  0  0  0  0
    8.1240    1.8144   -3.0122 C   0  0  0  0  0  0  0  0  0  0  0  0
    9.0490    0.6591   -2.5625 C   0  0  0  0  0  0  0  0  0  0  0  0
    8.8039    0.0480   -1.1697 C   0  0  0  0  0  0  0  0  0  0  0  0
    7.3682   -0.4162   -0.8263 C   0  0  0  0  0  0  0  0  0  0  0  0
    6.8739   -1.7847   -1.3947 C   0  0  2  0  0  0  0  0  0  0  0  0
    6.7075   -1.8025   -2.9214 C   0  0  0  0  0  0  0  0  0  0  0  0
    5.5034   -2.1580   -0.7669 C   0  0  0  0  0  0  0  0  0  0  0  0
    5.5540   -2.2637    0.7541 C   0  0  0  0  0  0  0  0  0  0  0  0
    6.3574   -3.3824    1.3655 C   0  0  0  0  0  0  0  0  0  0  0  0
    4.9168   -1.4084    1.5936 C   0  0  0  0  0  0  0  0  0  0  0  0
    4.1268   -0.1886    1.1704 C   0  0  1  0  0  0  0  0  0  0  0  0
    2.6244   -0.3600    0.9853 C   0  0  0  0  0  0  0  0  0  0  0  0
    1.7272   -1.2854    1.4360 C   0  0  0  0  0  0  0  0  0  0  0  0
    2.0334   -2.4556    2.3476 C   0  0  0  0  0  0  0  0  0  0  0  0
    0.3152   -1.0833    0.9860 C   0  0  0  0  0  0  0  0  0  0  0  0
   -0.7568   -1.7398    1.4738 C   0  0  0  0  0  0  0  0  0  0  0  0
   -2.1716   -1.4562    0.9851 C   0  0  2  0  0  0  0  0  0  0  0  0
   -2.1657   -0.7740   -0.2517 O   0  0  0  0  0  0  0  0  0  0  0  0
   -3.0606   -0.7233    2.0546 C   0  0  0  0  0  0  0  0  0  0  0  0
   -2.3448    0.5516    2.5898 C   0  0  0  0  0  0  0  0  0  0  0  0
   -3.3166   -1.6439    3.2693 C   0  0  0  0  0  0  0  0  0  0  0  0
   -4.4122   -0.4125    1.4027 C   0  0  0  0  0  0  0  0  0  0  0  0
   -4.9003    0.8953    1.2130 C   0  0  0  0  0  0  0  0  0  0  0  0
   -6.1444    1.0851    0.6056 C   0  0  0  0  0  0  0  0  0  0  0  0
   -6.6110    2.3368    0.4052 O   0  0  0  0  0  0  0  0  0  0  0  0
   -6.8949   -0.0310    0.1941 C   0  0  0  0  0  0  0  0  0  0  0  0
   -8.2713    0.1343   -0.4344 C   0  0  2  0  0  0  0  0  0  0  0  0
   -8.1915    1.0372   -1.5309 O   0  0  0  0  0  0  0  0  0  0  0  0
   -9.4412    1.1289   -2.2090 C   0  0  2  0  0  0  0  0  0  0  0  0
   -9.2872    2.0571   -3.4173 C   0  0  0  0  0  0  0  0  0  0  0  0
   -8.3187    1.5594   -4.3010 O   0  0  0  0  0  0  0  0  0  0  0  0
  -10.5340    1.6911   -1.2709 C   0  0  0  0  0  0  0  0  0  0  0  0
  -10.6635    0.7896   -0.0411 C   0  0  2  0  0  0  0  0  0  0  0  0
  -11.6198    1.2907    0.8598 O   0  0  0  0  0  0  0  0  0  0  0  0
   -9.2836    0.6456    0.6236 C   0  0  1  0  0  0  0  0  0  0  0  0
   -9.3514   -0.2173    1.7313 O   0  0  0  0  0  0  0  0  0  0  0  0
   -6.3320   -1.3096    0.3978 C   0  0  0  0  0  0  0  0  0  0  0  0
   -6.9325   -2.3151    0.0631 O   0  0  0  0  0  0  0  0  0  0  0  0
   -5.1450   -1.4394    0.9793 O   0  0  0  0  0  0  0  0  0  0  0  0
    4.4355    0.9965    2.1002 C   0  0  0  0  0  0  0  0  0  0  0  0
    3.8030    2.1693    1.6583 O   0  0  0  0  0  0  0  0  0  0  0  0
    7.7465    4.3305   -0.5542 H   0  0  0  0  0  0  0  0  0  0  0  0
    8.2083    2.6712   -0.1540 H   0  0  0  0  0  0  0  0  0  0  0  0
    6.6019    2.9884   -0.9166 H   0  0  0  0  0  0  0  0  0  0  0  0
    9.3422    3.4871   -2.2900 H   0  0  0  0  0  0  0  0  0  0  0  0
    7.7173    3.9164   -2.9184 H   0  0  0  0  0  0  0  0  0  0  0  0
    8.4079    2.0080   -4.0704 H   0  0  0  0  0  0  0  0  0  0  0  0
    7.0601    1.4973   -3.0249 H   0  0  0  0  0  0  0  0  0  0  0  0
   10.1035    1.0076   -2.6110 H   0  0  0  0  0  0  0  0  0  0  0  0
    8.9730   -0.1319   -3.3211 H   0  0  0  0  0  0  0  0  0  0  0  0
    9.0940    0.8144   -0.4334 H   0  0  0  0  0  0  0  0  0  0  0  0
    9.5098   -0.7934   -0.9996 H   0  0  0  0  0  0  0  0  0  0  0  0
    6.6376    0.3919   -1.0361 H   0  0  0  0  0  0  0  0  0  0  0  0
    7.3927   -0.5386    0.2771 H   0  0  0  0  0  0  0  0  0  0  0  0
    7.6095   -2.5710   -1.1194 H   0  0  0  0  0  0  0  0  0  0  0  0
    6.0229   -0.9926   -3.2539 H   0  0  0  0  0  0  0  0  0  0  0  0
    6.2847   -2.7776   -3.2452 H   0  0  0  0  0  0  0  0  0  0  0  0
    7.6719   -1.7236   -3.4412 H   0  0  0  0  0  0  0  0  0  0  0  0
    5.1583   -3.1416   -1.1541 H   0  0  0  0  0  0  0  0  0  0  0  0
    4.7494   -1.4328   -1.1225 H   0  0  0  0  0  0  0  0  0  0  0  0
    6.8195   -4.0235    0.5863 H   0  0  0  0  0  0  0  0  0  0  0  0
    5.6968   -4.0212    1.9894 H   0  0  0  0  0  0  0  0  0  0  0  0
    7.1656   -2.9619    2.0009 H   0  0  0  0  0  0  0  0  0  0  0  0
    5.0226   -1.5720    2.6643 H   0  0  0  0  0  0  0  0  0  0  0  0
    4.5123    0.1375    0.1887 H   0  0  0  0  0  0  0  0  0  0  0  0
    2.2186    0.4491    0.3810 H   0  0  0  0  0  0  0  0  0  0  0  0
    3.0718   -2.5513    2.6727 H   0  0  0  0  0  0  0  0  0  0  0  0
    1.7575   -3.4003    1.8339 H   0  0  0  0  0  0  0  0  0  0  0  0
    1.4358   -2.3638    3.2782 H   0  0  0  0  0  0  0  0  0  0  0  0
    0.1494   -0.3254    0.2291 H   0  0  0  0  0  0  0  0  0  0  0  0
   -0.6379   -2.4690    2.2670 H   0  0  0  0  0  0  0  0  0  0  0  0
   -2.6345   -2.4420    0.7595 H   0  0  0  0  0  0  0  0  0  0  0  0
   -2.0211    0.1916   -0.0951 H   0  0  0  0  0  0  0  0  0  0  0  0
   -1.3893    0.2896    3.0917 H   0  0  0  0  0  0  0  0  0  0  0  0
   -2.9779    1.0644    3.3459 H   0  0  0  0  0  0  0  0  0  0  0  0
   -2.1082    1.2797    1.7888 H   0  0  0  0  0  0  0  0  0  0  0  0
   -2.3702   -1.9043    3.7880 H   0  0  0  0  0  0  0  0  0  0  0  0
   -3.8096   -2.5895    2.9569 H   0  0  0  0  0  0  0  0  0  0  0  0
   -3.9791   -1.1375    4.0054 H   0  0  0  0  0  0  0  0  0  0  0  0
   -4.3401    1.7658    1.5190 H   0  0  0  0  0  0  0  0  0  0  0  0
   -6.1026    3.1241    0.6464 H   0  0  0  0  0  0  0  0  0  0  0  0
   -8.6234   -0.8601   -0.7962 H   0  0  0  0  0  0  0  0  0  0  0  0
   -9.7422    0.1270   -2.5920 H   0  0  0  0  0  0  0  0  0  0  0  0
   -9.0247    3.0918   -3.0916 H   0  0  0  0  0  0  0  0  0  0  0  0
  -10.2527    2.1295   -3.9646 H   0  0  0  0  0  0  0  0  0  0  0  0
   -7.4496    1.9528   -4.0254 H   0  0  0  0  0  0  0  0  0  0  0  0
  -11.5106    1.7463   -1.7999 H   0  0  0  0  0  0  0  0  0  0  0  0
  -10.2457    2.7174   -0.9475 H   0  0  0  0  0  0  0  0  0  0  0  0
  -11.0042   -0.2150   -0.3781 H   0  0  0  0  0  0  0  0  0  0  0  0
  -11.3066    2.1813    1.1667 H   0  0  0  0  0  0  0  0  0  0  0  0
   -8.9590    1.6444    0.9868 H   0  0  0  0  0  0  0  0  0  0  0  0
   -9.5902   -1.1217    1.3968 H   0  0  0  0  0  0  0  0  0  0  0  0
    5.5352    1.1675    2.1652 H   0  0  0  0  0  0  0  0  0  0  0  0
    4.0765    0.7695    3.1267 H   0  0  0  0  0  0  0  0  0  0  0  0
    4.2920    2.4690    0.8476 H   0  0  0  0  0  0  0  0  0  0  0  0
  1  2  1  0  0  0  0
  1 44  1  0  0  0  0
  1 45  1  0  0  0  0
  1 46  1  0  0  0  0
  2  3  1  0  0  0  0
  2 47  1  0  0  0  0
  2 48  1  0  0  0  0
  3  4  1  0  0  0  0
  3 49  1  0  0  0  0
  3 50  1  0  0  0  0
  4  5  1  0  0  0  0
  4 51  1  0  0  0  0
  4 52  1  0  0  0  0
  5  6  1  0  0  0  0
  5 53  1  0  0  0  0
  5 54  1  0  0  0  0
  6  7  1  0  0  0  0
  6 55  1  0  0  0  0
  6 56  1  0  0  0  0
  7  8  1  0  0  0  0
  7  9  1  0  0  0  0
  7 57  1  1  0  0  0
  8 58  1  0  0  0  0
  8 59  1  0  0  0  0
  8 60  1  0  0  0  0
  9 10  1  0  0  0  0
  9 61  1  0  0  0  0
  9 62  1  0  0  0  0
 10 11  1  0  0  0  0
 10 12  2  0  0  0  0
 11 63  1  0  0  0  0
 11 64  1  0  0  0  0
 11 65  1  0  0  0  0
 12 13  1  0  0  0  0
 12 66  1  0  0  0  0
 13 14  1  0  0  0  0
 13 42  1  0  0  0  0
 13 67  1  6  0  0  0
 14 15  2  0  0  0  0
 14 68  1  0  0  0  0
 15 16  1  0  0  0  0
 15 17  1  0  0  0  0
 16 69  1  0  0  0  0
 16 70  1  0  0  0  0
 16 71  1  0  0  0  0
 17 18  2  3  0  0  0
 17 72  1  0  0  0  0
 18 19  1  0  0  0  0
 18 73  1  0  0  0  0
 19 20  1  0  0  0  0
 19 21  1  0  0  0  0
 19 74  1  6  0  0  0
 20 75  1  0  0  0  0
 21 22  1  0  0  0  0
 21 23  1  0  0  0  0
 21 24  1  0  0  0  0
 22 76  1  0  0  0  0
 22 77  1  0  0  0  0
 22 78  1  0  0  0  0
 23 79  1  0  0  0  0
 23 80  1  0  0  0  0
 23 81  1  0  0  0  0
 24 25  2  0  0  0  0
 25 26  1  0  0  0  0
 25 82  1  0  0  0  0
 26 27  1  0  0  0  0
 26 28  2  0  0  0  0
 27 83  1  0  0  0  0
 28 39  1  0  0  0  0
 29 28  1  0  0  0  0
 29 30  1  0  0  0  0
 29 84  1  6  0  0  0
 30 31  1  0  0  0  0
 31 32  1  0  0  0  0
 31 34  1  0  0  0  0
 31 85  1  6  0  0  0
 32 33  1  0  0  0  0
 32 86  1  0  0  0  0
 32 87  1  0  0  0  0
 33 88  1  0  0  0  0
 34 35  1  0  0  0  0
 34 89  1  0  0  0  0
 34 90  1  0  0  0  0
 35 36  1  0  0  0  0
 35 37  1  0  0  0  0
 35 91  1  6  0  0  0
 36 92  1  0  0  0  0
 37 38  1  0  0  0  0
 37 29  1  0  0  0  0
 37 93  1  1  0  0  0
 38 94  1  0  0  0  0
 39 40  2  0  0  0  0
 39 41  1  0  0  0  0
 41 24  1  0  0  0  0
 42 43  1  0  0  0  0
 42 95  1  0  0  0  0
 42 96  1  0  0  0  0
 43 97  1  0  0  0  0
M  END
>  <IDENTIFIER>
CNP0157513.2

>  <Energy>
641.191

$$$$
