
 OpenBabel09122517253D

 62 66  0  0  0  0  0  0  0  0999 V2000
    6.7683    1.0967    0.8286 C   0  0  0  0  0  0  0  0  0  0  0  0
    6.6561   -0.2493    1.1143 O   0  0  0  0  0  0  0  0  0  0  0  0
    5.5076   -0.9770    1.0772 C   0  0  0  0  0  0  0  0  0  0  0  0
    4.2503   -0.3861    0.8366 C   0  0  0  0  0  0  0  0  0  0  0  0
    3.0833   -1.1696    0.7578 C   0  0  0  0  0  0  0  0  0  0  0  0
    1.7599   -0.5675    0.4414 C   0  0  0  0  0  0  0  0  0  0  0  0
    1.3476    0.7582    0.5569 C   0  0  0  0  0  0  0  0  0  0  0  0
    2.0408    1.8900    1.1978 C   0  0  0  0  0  0  0  0  0  0  0  0
    2.0863    3.1824    0.6284 C   0  0  0  0  0  0  0  0  0  0  0  0
    1.5898    3.4518   -0.6007 O   0  0  0  0  0  0  0  0  0  0  0  0
    2.6994    4.2078    1.3574 C   0  0  0  0  0  0  0  0  0  0  0  0
    2.7754    5.3329    0.8951 O   0  0  0  0  0  0  0  0  0  0  0  0
    3.2189    3.9418    2.6239 C   0  0  0  0  0  0  0  0  0  0  0  0
    3.1260    2.6419    3.1328 C   0  0  0  0  0  0  0  0  0  0  0  0
    3.6133    2.3157    4.5099 C   0  0  0  0  0  0  0  0  0  0  0  0
    2.5654    1.6812    2.4047 O   0  0  0  0  0  0  0  0  0  0  0  0
    0.0989    0.8517    0.0719 N   0  0  0  0  0  0  0  0  0  0  0  0
   -0.2430   -0.3911   -0.3170 C   0  0  0  0  0  0  0  0  0  0  0  0
   -1.5629   -0.7639   -0.8836 C   0  0  0  0  0  0  0  0  0  0  0  0
   -1.7632   -2.0472   -1.4137 C   0  0  0  0  0  0  0  0  0  0  0  0
   -2.9999   -2.4127   -1.9505 C   0  0  0  0  0  0  0  0  0  0  0  0
   -4.0845   -1.5096   -1.9533 C   0  0  0  0  0  0  0  0  0  0  0  0
   -3.8829   -0.2181   -1.4134 C   0  0  0  0  0  0  0  0  0  0  0  0
   -2.6330    0.1450   -0.8931 C   0  0  0  0  0  0  0  0  0  0  0  0
   -5.0069    0.7804   -1.4026 C   0  0  0  0  0  0  0  0  0  0  0  0
   -6.3231    0.0401   -1.2169 C   0  0  0  0  0  0  0  0  0  0  0  0
   -6.5406   -0.9998   -2.3349 C   0  0  1  0  0  0  0  0  0  0  0  0
   -6.8999   -0.3372   -3.6750 C   0  0  0  0  0  0  0  0  0  0  0  0
   -5.3726   -1.8738   -2.4954 N   0  0  0  0  0  0  0  0  0  0  0  0
   -5.5332   -3.1110   -3.2463 C   0  0  0  0  0  0  0  0  0  0  0  0
    0.7526   -1.2797   -0.1082 N   0  0  0  0  0  0  0  0  0  0  0  0
    3.1925   -2.5606    0.9206 C   0  0  0  0  0  0  0  0  0  0  0  0
    4.4313   -3.1501    1.1828 C   0  0  0  0  0  0  0  0  0  0  0  0
    5.5888   -2.3642    1.2610 C   0  0  0  0  0  0  0  0  0  0  0  0
    6.7884   -2.9360    1.4953 O   0  0  0  0  0  0  0  0  0  0  0  0
    7.8308    1.4009    0.9221 H   0  0  0  0  0  0  0  0  0  0  0  0
    6.1614    1.6972    1.5388 H   0  0  0  0  0  0  0  0  0  0  0  0
    6.4389    1.2927   -0.2152 H   0  0  0  0  0  0  0  0  0  0  0  0
    4.1968    0.6756    0.6716 H   0  0  0  0  0  0  0  0  0  0  0  0
    1.2310    2.7775   -1.1918 H   0  0  0  0  0  0  0  0  0  0  0  0
    3.6769    4.7343    3.2044 H   0  0  0  0  0  0  0  0  0  0  0  0
    4.0394    3.2081    5.0162 H   0  0  0  0  0  0  0  0  0  0  0  0
    4.3862    1.5227    4.4593 H   0  0  0  0  0  0  0  0  0  0  0  0
    2.7568    1.9499    5.1166 H   0  0  0  0  0  0  0  0  0  0  0  0
   -0.4841    1.7186    0.0493 H   0  0  0  0  0  0  0  0  0  0  0  0
   -0.9577   -2.7704   -1.4224 H   0  0  0  0  0  0  0  0  0  0  0  0
   -3.0954   -3.4111   -2.3519 H   0  0  0  0  0  0  0  0  0  0  0  0
   -2.5150    1.1403   -0.4881 H   0  0  0  0  0  0  0  0  0  0  0  0
   -5.0040    1.3559   -2.3506 H   0  0  0  0  0  0  0  0  0  0  0  0
   -4.8793    1.5039   -0.5676 H   0  0  0  0  0  0  0  0  0  0  0  0
   -7.1779    0.7491   -1.1691 H   0  0  0  0  0  0  0  0  0  0  0  0
   -6.2753   -0.4944   -0.2408 H   0  0  0  0  0  0  0  0  0  0  0  0
   -7.4136   -1.6069   -2.0056 H   0  0  0  0  0  0  0  0  0  0  0  0
   -6.0587    0.2761   -4.0572 H   0  0  0  0  0  0  0  0  0  0  0  0
   -7.7929    0.3118   -3.5510 H   0  0  0  0  0  0  0  0  0  0  0  0
   -7.1401   -1.1040   -4.4396 H   0  0  0  0  0  0  0  0  0  0  0  0
   -6.5759   -3.2389   -3.6070 H   0  0  0  0  0  0  0  0  0  0  0  0
   -5.3013   -3.9823   -2.5993 H   0  0  0  0  0  0  0  0  0  0  0  0
   -4.8592   -3.1051   -4.1293 H   0  0  0  0  0  0  0  0  0  0  0  0
    2.3172   -3.1940    0.8531 H   0  0  0  0  0  0  0  0  0  0  0  0
    4.4924   -4.2232    1.3137 H   0  0  0  0  0  0  0  0  0  0  0  0
    6.8894   -3.8905    1.6194 H   0  0  0  0  0  0  0  0  0  0  0  0
  1  2  1  0  0  0  0
  1 36  1  0  0  0  0
  1 37  1  0  0  0  0
  1 38  1  0  0  0  0
  2  3  1  0  0  0  0
  3  4  2  0  0  0  0
  4  5  1  0  0  0  0
  4 39  1  0  0  0  0
  5  6  1  0  0  0  0
  5 32  2  0  0  0  0
  6  7  2  0  0  0  0
  7  8  1  0  0  0  0
  7 17  1  0  0  0  0
  8  9  2  0  0  0  0
  9 10  1  0  0  0  0
  9 11  1  0  0  0  0
 10 40  1  0  0  0  0
 11 12  2  0  0  0  0
 11 13  1  0  0  0  0
 13 14  2  0  0  0  0
 13 41  1  0  0  0  0
 14 15  1  0  0  0  0
 14 16  1  0  0  0  0
 15 42  1  0  0  0  0
 15 43  1  0  0  0  0
 15 44  1  0  0  0  0
 16  8  1  0  0  0  0
 17 18  1  0  0  0  0
 17 45  1  0  0  0  0
 18 19  1  0  0  0  0
 18 31  2  0  0  0  0
 19 20  2  0  0  0  0
 20 21  1  0  0  0  0
 20 46  1  0  0  0  0
 21 22  2  0  0  0  0
 21 47  1  0  0  0  0
 22 23  1  0  0  0  0
 23 24  2  0  0  0  0
 23 25  1  0  0  0  0
 24 19  1  0  0  0  0
 24 48  1  0  0  0  0
 25 26  1  0  0  0  0
 25 49  1  0  0  0  0
 25 50  1  0  0  0  0
 26 27  1  0  0  0  0
 26 51  1  0  0  0  0
 26 52  1  0  0  0  0
 27 28  1  0  0  0  0
 27 29  1  0  0  0  0
 27 53  1  1  0  0  0
 28 54  1  0  0  0  0
 28 55  1  0  0  0  0
 28 56  1  0  0  0  0
 29 30  1  0  0  0  0
 29 22  1  0  0  0  0
 30 57  1  0  0  0  0
 30 58  1  0  0  0  0
 30 59  1  0  0  0  0
 31  6  1  0  0  0  0
 32 33  1  0  0  0  0
 32 60  1  0  0  0  0
 33 34  2  0  0  0  0
 33 61  1  0  0  0  0
 34 35  1  0  0  0  0
 34  3  1  0  0  0  0
 35 62  1  0  0  0  0
M  END
>  <IDENTIFIER>
CNP0497598.0

>  <Energy>
597.007

$$$$
