
 OpenBabel09062516173D

 27 27  0  0  0  0  0  0  0  0999 V2000
    1.9960   -1.8485   -0.3789 C   0  0  0  0  0  0  0  0  0  0  0  0
    1.1617   -0.7185    0.1775 C   0  0  0  0  0  0  0  0  0  0  0  0
    1.5708    0.5717    0.4116 C   0  0  0  0  0  0  0  0  0  0  0  0
    2.9334    1.1297    0.1682 C   0  0  0  0  0  0  0  0  0  0  0  0
    3.8693    0.4586   -0.2289 O   0  0  0  0  0  0  0  0  0  0  0  0
    0.5057    1.5542    0.8964 C   0  0  0  0  0  0  0  0  0  0  0  0
   -0.6650    1.4481   -0.0927 C   0  0  0  0  0  0  0  0  0  0  0  0
   -1.2746   -0.0010   -0.1052 C   0  0  0  0  0  0  0  0  0  0  0  0
   -2.5690   -0.0327    0.7361 C   0  0  0  0  0  0  0  0  0  0  0  0
   -1.6239   -0.3882   -1.5567 C   0  0  0  0  0  0  0  0  0  0  0  0
   -0.2796   -1.0377    0.5134 C   0  0  0  0  0  0  0  0  0  0  0  0
    3.0386   -1.6018   -0.6219 H   0  0  0  0  0  0  0  0  0  0  0  0
    1.5225   -2.2183   -1.3126 H   0  0  0  0  0  0  0  0  0  0  0  0
    2.0164   -2.6778    0.3587 H   0  0  0  0  0  0  0  0  0  0  0  0
    3.1121    2.1809    0.3660 H   0  0  0  0  0  0  0  0  0  0  0  0
    0.8962    2.5945    0.9201 H   0  0  0  0  0  0  0  0  0  0  0  0
    0.1574    1.3017    1.9210 H   0  0  0  0  0  0  0  0  0  0  0  0
   -0.2176    1.6840   -1.0853 H   0  0  0  0  0  0  0  0  0  0  0  0
   -1.4477    2.2186    0.0789 H   0  0  0  0  0  0  0  0  0  0  0  0
   -3.3220    0.6735    0.3250 H   0  0  0  0  0  0  0  0  0  0  0  0
   -2.3596    0.2632    1.7868 H   0  0  0  0  0  0  0  0  0  0  0  0
   -3.0120   -1.0522    0.7395 H   0  0  0  0  0  0  0  0  0  0  0  0
   -2.3442    0.3378   -1.9917 H   0  0  0  0  0  0  0  0  0  0  0  0
   -2.0829   -1.4000   -1.5928 H   0  0  0  0  0  0  0  0  0  0  0  0
   -0.7100   -0.4017   -2.1889 H   0  0  0  0  0  0  0  0  0  0  0  0
   -0.5731   -2.0861    0.2835 H   0  0  0  0  0  0  0  0  0  0  0  0
   -0.3243   -0.9485    1.6219 H   0  0  0  0  0  0  0  0  0  0  0  0
  1  2  1  0  0  0  0
  1 12  1  0  0  0  0
  1 13  1  0  0  0  0
  1 14  1  0  0  0  0
  2  3  2  0  0  0  0
  3  4  1  0  0  0  0
  3  6  1  0  0  0  0
  4  5  2  0  0  0  0
  4 15  1  0  0  0  0
  6  7  1  0  0  0  0
  6 16  1  0  0  0  0
  6 17  1  0  0  0  0
  7  8  1  0  0  0  0
  7 18  1  0  0  0  0
  7 19  1  0  0  0  0
  8  9  1  0  0  0  0
  8 10  1  0  0  0  0
  8 11  1  0  0  0  0
  9 20  1  0  0  0  0
  9 21  1  0  0  0  0
  9 22  1  0  0  0  0
 10 23  1  0  0  0  0
 10 24  1  0  0  0  0
 10 25  1  0  0  0  0
 11  2  1  0  0  0  0
 11 26  1  0  0  0  0
 11 27  1  0  0  0  0
M  END
>  <IDENTIFIER>
CNP0106998.0

>  <Energy>
214.962

$$$$
