
 OpenBabel09122513563D

 64 68  0  0  0  0  0  0  0  0999 V2000
    2.0818   -4.2252    0.8402 C   0  0  0  0  0  0  0  0  0  0  0  0
    2.7373   -3.0224    0.6733 O   0  0  0  0  0  0  0  0  0  0  0  0
    2.1746   -1.7958    0.8185 C   0  0  0  0  0  0  0  0  0  0  0  0
    0.8127   -1.6035    1.1686 C   0  0  0  0  0  0  0  0  0  0  0  0
    0.2702   -0.2939    1.3150 C   0  0  0  0  0  0  0  0  0  0  0  0
   -1.1810   -0.0250    1.6888 C   0  0  2  0  0  0  0  0  0  0  0  0
   -1.2317    0.5476    2.9706 O   0  0  0  0  0  0  0  0  0  0  0  0
   -2.1621   -1.2201    1.6019 C   0  0  0  0  0  0  0  0  0  0  0  0
   -2.3601   -1.7326    0.1585 C   0  0  0  0  0  0  0  0  0  0  0  0
   -2.7632   -0.6942   -0.7197 O   0  0  0  0  0  0  0  0  0  0  0  0
   -4.1508   -0.4022   -0.6334 C   0  0  2  0  0  0  0  0  0  0  0  0
   -4.7225   -0.5713   -1.9254 O   0  0  0  0  0  0  0  0  0  0  0  0
   -6.0405   -0.0293   -2.0901 C   0  0  1  0  0  0  0  0  0  0  0  0
   -6.9202   -1.0551   -2.8178 C   0  0  0  0  0  0  0  0  0  0  0  0
   -6.3231   -1.4485   -4.0241 O   0  0  0  0  0  0  0  0  0  0  0  0
   -6.7285    0.4536   -0.7791 C   0  0  1  0  0  0  0  0  0  0  0  0
   -6.9702   -0.6557    0.0612 O   0  0  0  0  0  0  0  0  0  0  0  0
   -5.7934    1.5302   -0.1754 C   0  0  1  0  0  0  0  0  0  0  0  0
   -6.2745    2.0686    1.0336 O   0  0  0  0  0  0  0  0  0  0  0  0
   -4.3174    1.0462   -0.0948 C   0  0  2  0  0  0  0  0  0  0  0  0
   -3.4741    1.9420   -0.7798 O   0  0  0  0  0  0  0  0  0  0  0  0
    1.1108    0.8241    1.1189 C   0  0  0  0  0  0  0  0  0  0  0  0
    2.4351    0.6003    0.7718 C   0  0  0  0  0  0  0  0  0  0  0  0
    2.9518   -0.6549    0.6279 C   0  0  0  0  0  0  0  0  0  0  0  0
    4.2226   -0.5909    0.3028 O   0  0  0  0  0  0  0  0  0  0  0  0
    4.5569    0.6903    0.2202 C   0  0  0  0  0  0  0  0  0  0  0  0
    5.9142    1.1641   -0.1257 C   0  0  0  0  0  0  0  0  0  0  0  0
    6.2023    2.5530   -0.2424 C   0  0  0  0  0  0  0  0  0  0  0  0
    7.4992    2.9918   -0.5643 C   0  0  0  0  0  0  0  0  0  0  0  0
    8.4794    2.0252   -0.7589 C   0  0  0  0  0  0  0  0  0  0  0  0
    9.7678    2.1987   -1.0626 O   0  0  0  0  0  0  0  0  0  0  0  0
   10.3506    0.9367   -1.1487 C   0  0  0  0  0  0  0  0  0  0  0  0
    9.3374    0.0172   -0.8858 O   0  0  0  0  0  0  0  0  0  0  0  0
    8.2184    0.7074   -0.6523 C   0  0  0  0  0  0  0  0  0  0  0  0
    6.9502    0.2244   -0.3397 C   0  0  0  0  0  0  0  0  0  0  0  0
    3.4482    1.4866    0.5103 C   0  0  0  0  0  0  0  0  0  0  0  0
    2.7920   -5.0563    0.6545 H   0  0  0  0  0  0  0  0  0  0  0  0
    1.2414   -4.3087    0.1182 H   0  0  0  0  0  0  0  0  0  0  0  0
    1.6989   -4.3120    1.8796 H   0  0  0  0  0  0  0  0  0  0  0  0
    0.1904   -2.4674    1.3333 H   0  0  0  0  0  0  0  0  0  0  0  0
   -1.5632    0.7364    0.9773 H   0  0  0  0  0  0  0  0  0  0  0  0
   -0.9073   -0.1382    3.6119 H   0  0  0  0  0  0  0  0  0  0  0  0
   -3.1509   -0.8872    1.9809 H   0  0  0  0  0  0  0  0  0  0  0  0
   -1.8328   -2.0469    2.2661 H   0  0  0  0  0  0  0  0  0  0  0  0
   -3.0652   -2.5945    0.1367 H   0  0  0  0  0  0  0  0  0  0  0  0
   -1.4111   -2.1406   -0.2377 H   0  0  0  0  0  0  0  0  0  0  0  0
   -4.6746   -1.0991    0.0581 H   0  0  0  0  0  0  0  0  0  0  0  0
   -5.9459    0.8551   -2.7595 H   0  0  0  0  0  0  0  0  0  0  0  0
   -7.9334   -0.6356   -3.0156 H   0  0  0  0  0  0  0  0  0  0  0  0
   -7.0536   -1.9582   -2.1860 H   0  0  0  0  0  0  0  0  0  0  0  0
   -6.4287   -0.6895   -4.6553 H   0  0  0  0  0  0  0  0  0  0  0  0
   -7.7101    0.9244   -1.0091 H   0  0  0  0  0  0  0  0  0  0  0  0
   -6.8344   -0.4019    1.0066 H   0  0  0  0  0  0  0  0  0  0  0  0
   -5.8143    2.3685   -0.9079 H   0  0  0  0  0  0  0  0  0  0  0  0
   -6.0183    1.4624    1.7751 H   0  0  0  0  0  0  0  0  0  0  0  0
   -3.9808    1.0366    0.9616 H   0  0  0  0  0  0  0  0  0  0  0  0
   -3.6726    1.8618   -1.7497 H   0  0  0  0  0  0  0  0  0  0  0  0
    0.7354    1.8348    1.2248 H   0  0  0  0  0  0  0  0  0  0  0  0
    5.4355    3.2987   -0.0881 H   0  0  0  0  0  0  0  0  0  0  0  0
    7.7275    4.0451   -0.6557 H   0  0  0  0  0  0  0  0  0  0  0  0
   11.1602    0.8393   -0.3941 H   0  0  0  0  0  0  0  0  0  0  0  0
   10.7590    0.7745   -2.1686 H   0  0  0  0  0  0  0  0  0  0  0  0
    6.7775   -0.8414   -0.2605 H   0  0  0  0  0  0  0  0  0  0  0  0
    3.3814    2.5658    0.5327 H   0  0  0  0  0  0  0  0  0  0  0  0
  1  2  1  0  0  0  0
  1 37  1  0  0  0  0
  1 38  1  0  0  0  0
  1 39  1  0  0  0  0
  2  3  1  0  0  0  0
  3  4  2  0  0  0  0
  4  5  1  0  0  0  0
  4 40  1  0  0  0  0
  5  6  1  0  0  0  0
  5 22  2  0  0  0  0
  6  7  1  0  0  0  0
  6  8  1  0  0  0  0
  6 41  1  6  0  0  0
  7 42  1  0  0  0  0
  8  9  1  0  0  0  0
  8 43  1  0  0  0  0
  8 44  1  0  0  0  0
  9 10  1  0  0  0  0
  9 45  1  0  0  0  0
  9 46  1  0  0  0  0
 11 10  1  0  0  0  0
 11 12  1  0  0  0  0
 11 47  1  1  0  0  0
 12 13  1  0  0  0  0
 13 14  1  0  0  0  0
 13 16  1  0  0  0  0
 13 48  1  6  0  0  0
 14 15  1  0  0  0  0
 14 49  1  0  0  0  0
 14 50  1  0  0  0  0
 15 51  1  0  0  0  0
 16 17  1  0  0  0  0
 16 18  1  0  0  0  0
 16 52  1  6  0  0  0
 17 53  1  0  0  0  0
 18 19  1  0  0  0  0
 18 20  1  0  0  0  0
 18 54  1  6  0  0  0
 19 55  1  0  0  0  0
 20 21  1  0  0  0  0
 20 11  1  0  0  0  0
 20 56  1  1  0  0  0
 21 57  1  0  0  0  0
 22 23  1  0  0  0  0
 22 58  1  0  0  0  0
 23 24  2  0  0  0  0
 24 25  1  0  0  0  0
 24  3  1  0  0  0  0
 25 26  1  0  0  0  0
 26 27  1  0  0  0  0
 26 36  2  0  0  0  0
 27 28  2  0  0  0  0
 28 29  1  0  0  0  0
 28 59  1  0  0  0  0
 29 30  2  0  0  0  0
 29 60  1  0  0  0  0
 30 31  1  0  0  0  0
 31 32  1  0  0  0  0
 32 33  1  0  0  0  0
 32 61  1  0  0  0  0
 32 62  1  0  0  0  0
 33 34  1  0  0  0  0
 34 35  2  0  0  0  0
 34 30  1  0  0  0  0
 35 27  1  0  0  0  0
 35 63  1  0  0  0  0
 36 23  1  0  0  0  0
 36 64  1  0  0  0  0
M  END
>  <IDENTIFIER>
CNP0151495.3

>  <Energy>
847.768

$$$$
