
 OpenBabel09052514223D

 79 83  0  0  0  0  0  0  0  0999 V2000
   -3.8719    2.8847   -1.2468 C   0  0  0  0  0  0  0  0  0  0  0  0
   -4.3288    2.5463   -0.0263 C   0  0  0  0  0  0  0  0  0  0  0  0
   -5.0614    3.5863    0.7886 C   0  0  0  0  0  0  0  0  0  0  0  0
   -4.1781    1.1567    0.5953 C   0  0  1  0  0  0  0  0  0  0  0  0
   -5.5154    0.4569    0.6107 C   0  0  0  0  0  0  0  0  0  0  0  0
   -5.3667   -0.9124    0.4617 C   0  0  0  0  0  0  0  0  0  0  0  0
   -3.9136   -1.2454    0.4385 C   0  0  1  0  0  0  0  0  0  0  0  0
   -3.5432   -1.5923    1.9144 C   0  0  0  0  0  0  0  0  0  0  0  0
   -3.4949   -2.3784   -0.5144 C   0  0  0  0  0  0  0  0  0  0  0  0
   -1.9474   -2.4950   -0.5469 C   0  0  0  0  0  0  0  0  0  0  0  0
   -1.1934   -1.1595   -0.9543 C   0  0  1  0  0  0  0  0  0  0  0  0
   -1.5324   -0.9311   -2.4792 C   0  0  0  0  0  0  0  0  0  0  0  0
   -1.7584    0.0350   -0.0697 C   0  0  1  0  0  0  0  0  0  0  0  0
   -1.0964    1.3465   -0.4864 C   0  0  0  0  0  0  0  0  0  0  0  0
    0.4152    1.2762   -0.2860 C   0  0  0  0  0  0  0  0  0  0  0  0
    1.1301    0.1313   -1.0911 C   0  0  1  0  0  0  0  0  0  0  0  0
    2.7406    0.1644   -0.9223 C   0  0  1  0  0  0  0  0  0  0  0  0
    3.3936   -0.4427   -2.2152 C   0  0  0  0  0  0  0  0  0  0  0  0
    3.2557    1.6629   -0.9026 C   0  0  0  0  0  0  0  0  0  0  0  0
    4.7315    1.8019   -0.5574 C   0  0  0  0  0  0  0  0  0  0  0  0
    5.0947    1.1748    0.8164 C   0  0  2  0  0  0  0  0  0  0  0  0
    6.3410    0.5279    0.6766 O   0  0  0  0  0  0  0  0  0  0  0  0
    3.9952    0.2414    1.4901 C   0  0  0  0  0  0  0  0  0  0  0  0
    4.7403   -0.6560    2.5316 C   0  0  0  0  0  0  0  0  0  0  0  0
    2.9898    1.0679    2.3351 C   0  0  0  0  0  0  0  0  0  0  0  0
    3.2835   -0.6258    0.3690 C   0  0  1  0  0  0  0  0  0  0  0  0
    2.3739   -1.8005    0.8654 C   0  0  0  0  0  0  0  0  0  0  0  0
    0.8504   -1.6186    0.7085 C   0  0  0  0  0  0  0  0  0  0  0  0
    0.4268   -1.2727   -0.7635 C   0  0  1  0  0  0  0  0  0  0  0  0
    0.9136   -2.4422   -1.6904 C   0  0  0  0  0  0  0  0  0  0  0  0
   -3.3249    0.0744   -0.1143 C   0  0  2  0  0  0  0  0  0  0  0  0
   -4.0163    3.8876   -1.6358 H   0  0  0  0  0  0  0  0  0  0  0  0
   -3.3708    2.1889   -1.8994 H   0  0  0  0  0  0  0  0  0  0  0  0
   -5.1254    4.5661    0.2668 H   0  0  0  0  0  0  0  0  0  0  0  0
   -4.5290    3.7429    1.7500 H   0  0  0  0  0  0  0  0  0  0  0  0
   -6.0959    3.2476    1.0024 H   0  0  0  0  0  0  0  0  0  0  0  0
   -3.8119    1.2782    1.6368 H   0  0  0  0  0  0  0  0  0  0  0  0
   -6.4762    0.9294    0.7666 H   0  0  0  0  0  0  0  0  0  0  0  0
   -6.1849   -1.6188    0.5197 H   0  0  0  0  0  0  0  0  0  0  0  0
   -4.0652   -2.5247    2.2198 H   0  0  0  0  0  0  0  0  0  0  0  0
   -3.8589   -0.7928    2.6166 H   0  0  0  0  0  0  0  0  0  0  0  0
   -2.4641   -1.7473    2.0882 H   0  0  0  0  0  0  0  0  0  0  0  0
   -3.8844   -2.1830   -1.5354 H   0  0  0  0  0  0  0  0  0  0  0  0
   -3.9384   -3.3422   -0.1845 H   0  0  0  0  0  0  0  0  0  0  0  0
   -1.7093   -3.3252   -1.2401 H   0  0  0  0  0  0  0  0  0  0  0  0
   -1.6289   -2.8304    0.4508 H   0  0  0  0  0  0  0  0  0  0  0  0
   -2.6045   -0.8049   -2.6944 H   0  0  0  0  0  0  0  0  0  0  0  0
   -1.2553   -1.8076   -3.0949 H   0  0  0  0  0  0  0  0  0  0  0  0
   -1.0309   -0.0550   -2.9231 H   0  0  0  0  0  0  0  0  0  0  0  0
   -1.4911   -0.1137    0.9929 H   0  0  0  0  0  0  0  0  0  0  0  0
   -1.4870    2.1762    0.1416 H   0  0  0  0  0  0  0  0  0  0  0  0
   -1.3053    1.5951   -1.5420 H   0  0  0  0  0  0  0  0  0  0  0  0
    0.6095    1.1853    0.7944 H   0  0  0  0  0  0  0  0  0  0  0  0
    0.7613    2.2726   -0.6213 H   0  0  0  0  0  0  0  0  0  0  0  0
    0.9289    0.3995   -2.1473 H   0  0  0  0  0  0  0  0  0  0  0  0
    3.0806    0.1313   -3.1138 H   0  0  0  0  0  0  0  0  0  0  0  0
    3.1903   -1.4852   -2.4361 H   0  0  0  0  0  0  0  0  0  0  0  0
    4.4979   -0.4232   -2.1767 H   0  0  0  0  0  0  0  0  0  0  0  0
    2.7714    2.2872   -0.1505 H   0  0  0  0  0  0  0  0  0  0  0  0
    3.0404    2.1582   -1.8749 H   0  0  0  0  0  0  0  0  0  0  0  0
    5.0526    2.8667   -0.5755 H   0  0  0  0  0  0  0  0  0  0  0  0
    5.3210    1.3310   -1.3658 H   0  0  0  0  0  0  0  0  0  0  0  0
    5.2740    2.0009    1.5362 H   0  0  0  0  0  0  0  0  0  0  0  0
    6.2282   -0.2225    0.0388 H   0  0  0  0  0  0  0  0  0  0  0  0
    5.3276   -0.0258    3.2344 H   0  0  0  0  0  0  0  0  0  0  0  0
    5.4456   -1.3572    2.0360 H   0  0  0  0  0  0  0  0  0  0  0  0
    4.0585   -1.2579    3.1613 H   0  0  0  0  0  0  0  0  0  0  0  0
    3.5300    1.6157    3.1386 H   0  0  0  0  0  0  0  0  0  0  0  0
    2.2554    0.3960    2.8264 H   0  0  0  0  0  0  0  0  0  0  0  0
    2.4271    1.8351    1.7986 H   0  0  0  0  0  0  0  0  0  0  0  0
    4.1876   -1.1682    0.0169 H   0  0  0  0  0  0  0  0  0  0  0  0
    2.5847   -2.0835    1.9097 H   0  0  0  0  0  0  0  0  0  0  0  0
    2.6724   -2.7172    0.3297 H   0  0  0  0  0  0  0  0  0  0  0  0
    0.5238   -0.8527    1.4318 H   0  0  0  0  0  0  0  0  0  0  0  0
    0.3950   -2.5710    1.0401 H   0  0  0  0  0  0  0  0  0  0  0  0
    0.3868   -3.3866   -1.4702 H   0  0  0  0  0  0  0  0  0  0  0  0
    1.9459   -2.7622   -1.5647 H   0  0  0  0  0  0  0  0  0  0  0  0
    0.8097   -2.1978   -2.7639 H   0  0  0  0  0  0  0  0  0  0  0  0
   -3.6511    0.1512   -1.1701 H   0  0  0  0  0  0  0  0  0  0  0  0
  1  2  2  0  0  0  0
  1 32  1  0  0  0  0
  1 33  1  0  0  0  0
  2  3  1  0  0  0  0
  3 34  1  0  0  0  0
  3 35  1  0  0  0  0
  3 36  1  0  0  0  0
  4  2  1  0  0  0  0
  4  5  1  0  0  0  0
  4 37  1  1  0  0  0
  5  6  2  0  0  0  0
  5 38  1  0  0  0  0
  6  7  1  0  0  0  0
  6 39  1  0  0  0  0
  7  8  1  1  0  0  0
  7  9  1  0  0  0  0
  8 40  1  0  0  0  0
  8 41  1  0  0  0  0
  8 42  1  0  0  0  0
  9 10  1  0  0  0  0
  9 43  1  0  0  0  0
  9 44  1  0  0  0  0
 10 11  1  0  0  0  0
 10 45  1  0  0  0  0
 10 46  1  0  0  0  0
 11 12  1  6  0  0  0
 11 13  1  0  0  0  0
 12 47  1  0  0  0  0
 12 48  1  0  0  0  0
 12 49  1  0  0  0  0
 13 14  1  0  0  0  0
 13 31  1  0  0  0  0
 13 50  1  1  0  0  0
 14 15  1  0  0  0  0
 14 51  1  0  0  0  0
 14 52  1  0  0  0  0
 15 53  1  0  0  0  0
 15 54  1  0  0  0  0
 16 15  1  0  0  0  0
 16 17  1  0  0  0  0
 16 55  1  6  0  0  0
 17 18  1  6  0  0  0
 17 19  1  0  0  0  0
 18 56  1  0  0  0  0
 18 57  1  0  0  0  0
 18 58  1  0  0  0  0
 19 20  1  0  0  0  0
 19 59  1  0  0  0  0
 19 60  1  0  0  0  0
 20 21  1  0  0  0  0
 20 61  1  0  0  0  0
 20 62  1  0  0  0  0
 21 22  1  0  0  0  0
 21 23  1  0  0  0  0
 21 63  1  1  0  0  0
 22 64  1  0  0  0  0
 23 24  1  0  0  0  0
 23 25  1  0  0  0  0
 23 26  1  0  0  0  0
 24 65  1  0  0  0  0
 24 66  1  0  0  0  0
 24 67  1  0  0  0  0
 25 68  1  0  0  0  0
 25 69  1  0  0  0  0
 25 70  1  0  0  0  0
 26 27  1  0  0  0  0
 26 17  1  0  0  0  0
 26 71  1  6  0  0  0
 27 28  1  0  0  0  0
 27 72  1  0  0  0  0
 27 73  1  0  0  0  0
 28 29  1  0  0  0  0
 28 74  1  0  0  0  0
 28 75  1  0  0  0  0
 29 30  1  6  0  0  0
 29 11  1  0  0  0  0
 29 16  1  0  0  0  0
 30 76  1  0  0  0  0
 30 77  1  0  0  0  0
 30 78  1  0  0  0  0
 31  4  1  0  0  0  0
 31  7  1  0  0  0  0
 31 79  1  6  0  0  0
M  END
>  <IDENTIFIER>
CNP0323143.0

>  <Energy>
1067.48

$$$$
