
 OpenBabel09092509172D

186192  0  0  0  0  0  0  0  0999 V2000
  -17.2500   11.6913    0.0000 C   0  0  0  0  0  0  0  0  0  0  0  0
  -16.5000   10.3923    0.0000 C   0  0  0  0  0  0  0  0  0  0  0  0
  -17.2148    9.4033    0.0000 O   0  0  0  0  0  0  0  0  0  0  0  0
  -15.1298   10.2200   -0.0000 O   0  0  0  0  0  0  0  0  0  0  0  0
  -14.3727    9.0389   -0.0000 C   0  0  0  0  0  0  0  0  0  0  0  0
  -14.8868    7.6936    0.0000 C   0  0  0  0  0  0  0  0  0  0  0  0
  -14.0520    6.5035    0.0001 C   0  0  0  0  0  0  0  0  0  0  0  0
  -14.7470    5.2407    0.0002 O   0  0  0  0  0  0  0  0  0  0  0  0
  -14.2500    3.8971    0.0000 C   0  0  0  0  0  0  0  0  0  0  0  0
  -15.0000    2.5981    0.0000 C   0  0  0  0  0  0  0  0  0  0  0  0
  -13.1143    4.0169   -0.0012 O   0  0  0  0  0  0  0  0  0  0  0  0
  -12.5734    6.7237    0.0000 C   0  0  0  0  0  0  0  0  0  0  0  0
  -11.6173    5.6676    0.0001 O   0  0  0  0  0  0  0  0  0  0  0  0
  -10.2362    5.2983    0.0000 C   0  0  0  0  0  0  0  0  0  0  0  0
   -9.2342    6.0905    0.0000 C   0  0  0  0  0  0  0  0  0  0  0  0
   -7.8974    5.9408   -0.0000 C   0  0  0  0  0  0  0  0  0  0  0  0
   -7.1094    7.0264   -0.0000 O   0  0  0  0  0  0  0  0  0  0  0  0
   -6.0000    7.7942    0.0000 C   0  0  0  0  0  0  0  0  0  0  0  0
   -5.2500    9.0933    0.0000 C   0  0  0  0  0  0  0  0  0  0  0  0
   -5.0791    6.9952   -0.0000 O   0  0  0  0  0  0  0  0  0  0  0  0
   -7.4179    4.7449    0.0000 C   0  0  0  0  0  0  0  0  0  0  0  0
   -6.0951    4.8389    0.0000 O   0  0  0  0  0  0  0  0  0  0  0  0
   -5.2500    3.8971    0.0000 C   0  0  0  0  0  0  0  0  0  0  0  0
   -3.7500    3.8971    0.0000 C   0  0  0  0  0  0  0  0  0  0  0  0
   -5.6095    2.7432   -0.0000 O   0  0  0  0  0  0  0  0  0  0  0  0
   -8.3314    3.6413    0.0000 C   0  0  0  0  0  0  0  0  0  0  0  0
   -7.8191    2.3458    0.0004 O   0  0  0  0  0  0  0  0  0  0  0  0
   -8.3626    1.0915    0.0004 C   0  0  0  0  0  0  0  0  0  0  0  0
   -9.7080    1.0438   -0.0002 C   0  0  0  0  0  0  0  0  0  0  0  0
  -10.5755    0.0250   -0.0000 C   0  0  0  0  0  0  0  0  0  0  0  0
  -11.9422    0.2067   -0.0005 O   0  0  0  0  0  0  0  0  0  0  0  0
  -12.7500    1.2990    0.0000 C   0  0  0  0  0  0  0  0  0  0  0  0
  -14.2500    1.2990    0.0000 C   0  0  0  0  0  0  0  0  0  0  0  0
  -12.1074    2.2146    0.0027 O   0  0  0  0  0  0  0  0  0  0  0  0
  -10.0015   -1.1967   -0.0006 C   0  0  0  0  0  0  0  0  0  0  0  0
  -10.6979   -2.3487   -0.0004 O   0  0  0  0  0  0  0  0  0  0  0  0
  -12.0000   -2.5981    0.0000 C   0  0  0  0  0  0  0  0  0  0  0  0
  -12.7500   -3.8971    0.0000 C   0  0  0  0  0  0  0  0  0  0  0  0
  -12.8462   -1.7546    0.0002 O   0  0  0  0  0  0  0  0  0  0  0  0
   -8.6169   -1.3034   -0.0022 C   0  0  0  0  0  0  0  0  0  0  0  0
   -8.2407   -2.5440   -0.0052 O   0  0  0  0  0  0  0  0  0  0  0  0
   -8.2500   -3.8971    0.0000 C   0  0  0  0  0  0  0  0  0  0  0  0
   -7.5000   -5.1962    0.0000 C   0  0  0  0  0  0  0  0  0  0  0  0
   -9.4217   -4.2547    0.0014 O   0  0  0  0  0  0  0  0  0  0  0  0
   -7.6678   -0.1635    0.0017 C   0  0  0  0  0  0  0  0  0  0  0  0
   -6.2368   -0.2260    0.0085 O   0  0  0  0  0  0  0  0  0  0  0  0
   -5.3291   -1.3263    0.0198 C   0  0  0  0  0  0  0  0  0  0  0  0
   -5.6981   -2.6160    0.0406 C   0  0  0  0  0  0  0  0  0  0  0  0
   -4.9519   -3.8751    0.0164 C   0  0  0  0  0  0  0  0  0  0  0  0
   -5.3017   -5.1299    0.0214 O   0  0  0  0  0  0  0  0  0  0  0  0
   -5.2500   -6.4952    0.0000 C   0  0  0  0  0  0  0  0  0  0  0  0
   -6.0000   -7.7942   -0.0000 C   0  0  0  0  0  0  0  0  0  0  0  0
   -4.1346   -6.9580    0.0823 O   0  0  0  0  0  0  0  0  0  0  0  0
   -3.7602   -3.9095   -0.1015 C   0  0  0  0  0  0  0  0  0  0  0  0
   -3.0840   -5.1756   -0.3373 O   0  0  0  0  0  0  0  0  0  0  0  0
   -1.7838   -5.6914   -0.3517 C   0  0  0  0  0  0  0  0  0  0  0  0
   -0.7500   -3.8971    0.0000 C   0  0  0  0  0  0  0  0  0  0  0  0
    0.7500   -3.8971    0.0000 C   0  0  0  0  0  0  0  0  0  0  0  0
    1.2474   -2.1429    0.7512 O   0  0  0  0  0  0  0  0  0  0  0  0
    0.7500   -1.2990    0.0000 C   0  0  0  0  0  0  0  0  0  0  0  0
    1.5000    0.0000    0.0000 C   0  0  0  0  0  0  0  0  0  0  0  0
   -0.3788   -0.9222   -0.2959 O   0  0  0  0  0  0  0  0  0  0  0  0
    1.7229   -5.7459    0.2527 C   0  0  0  0  0  0  0  0  0  0  0  0
    3.1209   -5.2193    0.3667 O   0  0  0  0  0  0  0  0  0  0  0  0
    3.7500   -3.8971    0.0000 C   0  0  0  0  0  0  0  0  0  0  0  0
    5.2500   -3.8971    0.0000 C   0  0  0  0  0  0  0  0  0  0  0  0
    3.4755   -2.7539    0.3646 O   0  0  0  0  0  0  0  0  0  0  0  0
    0.8490   -6.7940    0.0700 C   0  0  0  0  0  0  0  0  0  0  0  0
    1.6786   -7.6953    0.0482 O   0  0  0  0  0  0  0  0  0  0  0  0
    3.0000   -7.7942    0.0000 C   0  0  0  0  0  0  0  0  0  0  0  0
    3.7500   -9.0933    0.0000 C   0  0  0  0  0  0  0  0  0  0  0  0
    3.9224   -7.0402   -0.1329 O   0  0  0  0  0  0  0  0  0  0  0  0
   -0.7908   -6.9500   -0.1797 C   0  0  0  0  0  0  0  0  0  0  0  0
   -1.3946   -8.2366   -0.1222 O   0  0  0  0  0  0  0  0  0  0  0  0
   -0.8833   -9.5394   -0.0284 C   0  0  0  0  0  0  0  0  0  0  0  0
    0.4206   -9.9275   -0.0138 C   0  0  0  0  0  0  0  0  0  0  0  0
    1.0891  -11.1316    0.0067 C   0  0  0  0  0  0  0  0  0  0  0  0
    2.4595  -11.2004    0.0019 O   0  0  0  0  0  0  0  0  0  0  0  0
    3.7500  -11.6913    0.0000 C   0  0  0  0  0  0  0  0  0  0  0  0
    5.2500  -11.6913    0.0000 C   0  0  0  0  0  0  0  0  0  0  0  0
    3.5379  -12.8949   -0.0002 O   0  0  0  0  0  0  0  0  0  0  0  0
    0.3309  -12.1708    0.0087 C   0  0  0  0  0  0  0  0  0  0  0  0
    1.0374  -13.3477    0.0023 O   0  0  0  0  0  0  0  0  0  0  0  0
    0.6994  -14.6530    0.0003 C   0  0  0  0  0  0  0  0  0  0  0  0
    1.5743  -15.6703   -0.0002 C   0  0  0  0  0  0  0  0  0  0  0  0
    1.0215  -17.0013   -0.0001 C   0  0  0  0  0  0  0  0  0  0  0  0
    1.7383  -18.0683   -0.0000 O   0  0  0  0  0  0  0  0  0  0  0  0
    3.0000  -18.1865    0.0000 C   0  0  0  0  0  0  0  0  0  0  0  0
    3.7500  -19.4856    0.0000 C   0  0  0  0  0  0  0  0  0  0  0  0
    3.7385  -17.2151   -0.0000 O   0  0  0  0  0  0  0  0  0  0  0  0
   -0.3872  -17.2063   -0.0000 C   0  0  0  0  0  0  0  0  0  0  0  0
   -1.1353  -18.2870    0.0000 O   0  0  0  0  0  0  0  0  0  0  0  0
   -0.7500  -19.4856    0.0000 C   0  0  0  0  0  0  0  0  0  0  0  0
   -1.5000  -20.7846    0.0000 C   0  0  0  0  0  0  0  0  0  0  0  0
    0.4127  -19.7982   -0.0000 O   0  0  0  0  0  0  0  0  0  0  0  0
   -1.1539  -16.2101   -0.0000 C   0  0  0  0  0  0  0  0  0  0  0  0
   -2.5085  -16.3250   -0.0000 O   0  0  0  0  0  0  0  0  0  0  0  0
   -3.7500  -16.8875    0.0000 C   0  0  0  0  0  0  0  0  0  0  0  0
   -5.2500  -16.8875    0.0000 C   0  0  0  0  0  0  0  0  0  0  0  0
   -3.5214  -18.0854   -0.0000 O   0  0  0  0  0  0  0  0  0  0  0  0
   -0.5483  -15.0389   -0.0000 C   0  0  0  0  0  0  0  0  0  0  0  0
   -1.0677  -11.8517    0.0107 C   0  0  0  0  0  0  0  0  0  0  0  0
   -1.7943  -12.7650    0.0043 O   0  0  0  0  0  0  0  0  0  0  0  0
   -3.0000  -12.9904    0.0000 C   0  0  0  0  0  0  0  0  0  0  0  0
   -3.7500  -14.2894    0.0000 C   0  0  0  0  0  0  0  0  0  0  0  0
   -3.8165  -12.0789    0.0003 O   0  0  0  0  0  0  0  0  0  0  0  0
   -1.6571  -10.5804    0.0038 C   0  0  0  0  0  0  0  0  0  0  0  0
   -3.3098   -2.6759   -0.1245 C   0  0  0  0  0  0  0  0  0  0  0  0
   -2.2257   -2.7389   -0.6248 O   0  0  0  0  0  0  0  0  0  0  0  0
   -0.7500   -3.8971    0.0000 C   0  0  0  0  0  0  0  0  0  0  0  0
    0.7500   -3.8971    0.0000 C   0  0  0  0  0  0  0  0  0  0  0  0
   -0.9964   -4.8965    1.6358 O   0  0  0  0  0  0  0  0  0  0  0  0
   -3.9518   -1.3502   -0.0104 C   0  0  0  0  0  0  0  0  0  0  0  0
   -9.7619    4.0467   -0.0000 C   0  0  0  0  0  0  0  0  0  0  0  0
  -12.1222    8.0713   -0.0000 C   0  0  0  0  0  0  0  0  0  0  0  0
  -10.7970    8.2207   -0.0000 O   0  0  0  0  0  0  0  0  0  0  0  0
   -9.7500    9.0933    0.0000 C   0  0  0  0  0  0  0  0  0  0  0  0
   -8.2500    9.0933    0.0000 C   0  0  0  0  0  0  0  0  0  0  0  0
  -10.1473   10.2538    0.0000 O   0  0  0  0  0  0  0  0  0  0  0  0
  -12.9818    9.1734   -0.0000 C   0  0  0  0  0  0  0  0  0  0  0  0
  -16.4632   12.4741   -0.0000 H   0  0  0  0  0  0  0  0  0  0  0  0
  -18.3324   11.4316    0.0000 H   0  0  0  0  0  0  0  0  0  0  0  0
  -17.7850   12.6179    0.0000 H   0  0  0  0  0  0  0  0  0  0  0  0
  -15.9513    7.5411    0.0000 H   0  0  0  0  0  0  0  0  0  0  0  0
  -16.0941    3.0122   -0.0000 H   0  0  0  0  0  0  0  0  0  0  0  0
  -15.7377    3.3840    0.0004 H   0  0  0  0  0  0  0  0  0  0  0  0
  -15.5350    1.6715    0.0000 H   0  0  0  0  0  0  0  0  0  0  0  0
   -9.5300    6.8133    0.0000 H   0  0  0  0  0  0  0  0  0  0  0  0
   -4.1439    8.8972    0.0000 H   0  0  0  0  0  0  0  0  0  0  0  0
   -5.6839   10.1355   -0.0000 H   0  0  0  0  0  0  0  0  0  0  0  0
   -4.7150   10.0200    0.0000 H   0  0  0  0  0  0  0  0  0  0  0  0
   -3.3963    2.8376   -0.0000 H   0  0  0  0  0  0  0  0  0  0  0  0
   -3.4612    4.9674    0.0000 H   0  0  0  0  0  0  0  0  0  0  0  0
   -2.6800    3.8971    0.0000 H   0  0  0  0  0  0  0  0  0  0  0  0
  -10.0981    1.8249   -0.0004 H   0  0  0  0  0  0  0  0  0  0  0  0
  -14.1756    0.1799   -0.0089 H   0  0  0  0  0  0  0  0  0  0  0  0
  -14.3973    0.1469    0.0048 H   0  0  0  0  0  0  0  0  0  0  0  0
  -15.3200    1.2990    0.0000 H   0  0  0  0  0  0  0  0  0  0  0  0
  -13.8496   -3.6897    0.0000 H   0  0  0  0  0  0  0  0  0  0  0  0
  -11.9675   -4.6822   -0.0000 H   0  0  0  0  0  0  0  0  0  0  0  0
  -13.2850   -4.8237    0.0000 H   0  0  0  0  0  0  0  0  0  0  0  0
   -8.2997   -5.9846   -0.0009 H   0  0  0  0  0  0  0  0  0  0  0  0
   -7.1249   -4.3559   -0.0147 H   0  0  0  0  0  0  0  0  0  0  0  0
   -6.9650   -6.1229    0.0000 H   0  0  0  0  0  0  0  0  0  0  0  0
   -6.4069   -2.6136    0.0582 H   0  0  0  0  0  0  0  0  0  0  0  0
   -7.1198   -7.9372   -0.0014 H   0  0  0  0  0  0  0  0  0  0  0  0
   -5.3065   -8.6850   -0.0025 H   0  0  0  0  0  0  0  0  0  0  0  0
   -6.5350   -8.7208    0.0000 H   0  0  0  0  0  0  0  0  0  0  0  0
   -1.1090   -2.3137    0.8832 H   0  0  0  0  0  0  0  0  0  0  0  0
    2.5794   -0.2688    0.0024 H   0  0  0  0  0  0  0  0  0  0  0  0
    0.8586    0.9245    0.0012 H   0  0  0  0  0  0  0  0  0  0  0  0
    2.0350    0.9266    0.0000 H   0  0  0  0  0  0  0  0  0  0  0  0
    5.5868   -4.9555   -0.0018 H   0  0  0  0  0  0  0  0  0  0  0  0
    5.7024   -2.8726   -0.0105 H   0  0  0  0  0  0  0  0  0  0  0  0
    6.3200   -3.8971    0.0000 H   0  0  0  0  0  0  0  0  0  0  0  0
    2.9068   -9.3722    0.0051 H   0  0  0  0  0  0  0  0  0  0  0  0
    4.8599   -8.9160   -0.0011 H   0  0  0  0  0  0  0  0  0  0  0  0
    4.2850  -10.0200    0.0000 H   0  0  0  0  0  0  0  0  0  0  0  0
    0.8981   -9.3669   -0.0483 H   0  0  0  0  0  0  0  0  0  0  0  0
    5.6415  -12.7456   -0.0002 H   0  0  0  0  0  0  0  0  0  0  0  0
    5.9390  -10.8005    0.0002 H   0  0  0  0  0  0  0  0  0  0  0  0
    6.3200  -11.6913    0.0000 H   0  0  0  0  0  0  0  0  0  0  0  0
    2.6012  -15.3762   -0.0000 H   0  0  0  0  0  0  0  0  0  0  0  0
    2.9693  -20.2734    0.0000 H   0  0  0  0  0  0  0  0  0  0  0  0
    4.8343  -19.2316   -0.0000 H   0  0  0  0  0  0  0  0  0  0  0  0
    4.2850  -20.4123    0.0000 H   0  0  0  0  0  0  0  0  0  0  0  0
   -2.5713  -20.4993    0.0000 H   0  0  0  0  0  0  0  0  0  0  0  0
   -0.7688  -21.6311   -0.0000 H   0  0  0  0  0  0  0  0  0  0  0  0
   -2.0350  -21.7112    0.0000 H   0  0  0  0  0  0  0  0  0  0  0  0
   -5.9358  -15.9909    0.0000 H   0  0  0  0  0  0  0  0  0  0  0  0
   -5.6335  -17.9434   -0.0000 H   0  0  0  0  0  0  0  0  0  0  0  0
   -6.3200  -16.8875    0.0000 H   0  0  0  0  0  0  0  0  0  0  0  0
   -1.0392  -14.4626   -0.0002 H   0  0  0  0  0  0  0  0  0  0  0  0
   -4.8232  -13.9792   -0.0001 H   0  0  0  0  0  0  0  0  0  0  0  0
   -2.8951  -14.4728   -0.0001 H   0  0  0  0  0  0  0  0  0  0  0  0
   -4.2850  -15.2160    0.0000 H   0  0  0  0  0  0  0  0  0  0  0  0
   -2.6858  -10.3468   -0.0038 H   0  0  0  0  0  0  0  0  0  0  0  0
    0.3961   -5.1152   -1.3753 H   0  0  0  0  0  0  0  0  0  0  0  0
    1.9330   -3.0308   -1.1383 H   0  0  0  0  0  0  0  0  0  0  0  0
    1.8200   -3.8971    0.0000 H   0  0  0  0  0  0  0  0  0  0  0  0
   -3.3732   -0.4225   -0.0378 H   0  0  0  0  0  0  0  0  0  0  0  0
  -10.5773    3.5471   -0.0001 H   0  0  0  0  0  0  0  0  0  0  0  0
   -8.5403    8.2990   -0.0000 H   0  0  0  0  0  0  0  0  0  0  0  0
   -7.9921   10.1795   -0.0000 H   0  0  0  0  0  0  0  0  0  0  0  0
   -7.1800    9.0933    0.0000 H   0  0  0  0  0  0  0  0  0  0  0  0
  -12.5350   10.1522   -0.0000 H   0  0  0  0  0  0  0  0  0  0  0  0
  1  2  1  0  0  0  0
  1121  1  0  0  0  0
  1122  1  0  0  0  0
  1123  1  0  0  0  0
  2  3  2  0  0  0  0
  2  4  1  0  0  0  0
  4  5  1  0  0  0  0
  5  6  2  0  0  0  0
  6  7  1  0  0  0  0
  6124  1  0  0  0  0
  7  8  1  0  0  0  0
  7 12  2  0  0  0  0
  8  9  1  0  0  0  0
  9 10  1  0  0  0  0
  9 11  2  0  0  0  0
 10125  1  0  0  0  0
 10126  1  0  0  0  0
 10127  1  0  0  0  0
 12 13  1  0  0  0  0
 12115  1  0  0  0  0
 13 14  1  0  0  0  0
 14 15  2  0  0  0  0
 15 16  1  0  0  0  0
 15128  1  0  0  0  0
 16 17  1  0  0  0  0
 16 21  2  0  0  0  0
 17 18  1  0  0  0  0
 18 19  1  0  0  0  0
 18 20  2  0  0  0  0
 19129  1  0  0  0  0
 19130  1  0  0  0  0
 19131  1  0  0  0  0
 21 22  1  0  0  0  0
 21 26  1  0  0  0  0
 22 23  1  0  0  0  0
 23 24  1  0  0  0  0
 23 25  2  0  0  0  0
 24132  1  0  0  0  0
 24133  1  0  0  0  0
 24134  1  0  0  0  0
 26 27  1  0  0  0  0
 26114  2  0  0  0  0
 27 28  1  0  0  0  0
 28 29  2  0  0  0  0
 29 30  1  0  0  0  0
 29135  1  0  0  0  0
 30 31  1  0  0  0  0
 30 35  2  0  0  0  0
 31 32  1  0  0  0  0
 32 33  1  0  0  0  0
 32 34  2  0  0  0  0
 33136  1  0  0  0  0
 33137  1  0  0  0  0
 33138  1  0  0  0  0
 35 36  1  0  0  0  0
 35 40  1  0  0  0  0
 36 37  1  0  0  0  0
 37 38  1  0  0  0  0
 37 39  2  0  0  0  0
 38139  1  0  0  0  0
 38140  1  0  0  0  0
 38141  1  0  0  0  0
 40 41  1  0  0  0  0
 40 45  2  0  0  0  0
 41 42  1  0  0  0  0
 42 43  1  0  0  0  0
 42 44  2  0  0  0  0
 43142  1  0  0  0  0
 43143  1  0  0  0  0
 43144  1  0  0  0  0
 45 46  1  0  0  0  0
 45 28  1  0  0  0  0
 46 47  1  0  0  0  0
 47 48  2  0  0  0  0
 48 49  1  0  0  0  0
 48145  1  0  0  0  0
 49 50  1  0  0  0  0
 49 54  2  0  0  0  0
 50 51  1  0  0  0  0
 51 52  1  0  0  0  0
 51 53  2  0  0  0  0
 52146  1  0  0  0  0
 52147  1  0  0  0  0
 52148  1  0  0  0  0
 54 55  1  0  0  0  0
 54108  1  0  0  0  0
 55 56  1  0  0  0  0
 56 57  2  0  0  0  0
 57 58  1  0  0  0  0
 57149  1  0  0  0  0
 58 59  1  0  0  0  0
 58 63  2  0  0  0  0
 59 60  1  0  0  0  0
 60 61  1  0  0  0  0
 60 62  2  0  0  0  0
 61150  1  0  0  0  0
 61151  1  0  0  0  0
 61152  1  0  0  0  0
 63 64  1  0  0  0  0
 63 68  1  0  0  0  0
 64 65  1  0  0  0  0
 65 66  1  0  0  0  0
 65 67  2  0  0  0  0
 66153  1  0  0  0  0
 66154  1  0  0  0  0
 66155  1  0  0  0  0
 68 69  1  0  0  0  0
 68 73  2  0  0  0  0
 69 70  1  0  0  0  0
 70 71  1  0  0  0  0
 70 72  2  0  0  0  0
 71156  1  0  0  0  0
 71157  1  0  0  0  0
 71158  1  0  0  0  0
 73 74  1  0  0  0  0
 73 56  1  0  0  0  0
 74 75  1  0  0  0  0
 75 76  2  0  0  0  0
 76 77  1  0  0  0  0
 76159  1  0  0  0  0
 77 78  1  0  0  0  0
 77 82  2  0  0  0  0
 78 79  1  0  0  0  0
 79 80  1  0  0  0  0
 79 81  2  0  0  0  0
 80160  1  0  0  0  0
 80161  1  0  0  0  0
 80162  1  0  0  0  0
 82 83  1  0  0  0  0
 82102  1  0  0  0  0
 83 84  1  0  0  0  0
 84 85  2  0  0  0  0
 85 86  1  0  0  0  0
 85163  1  0  0  0  0
 86 87  1  0  0  0  0
 86 91  2  0  0  0  0
 87 88  1  0  0  0  0
 88 89  1  0  0  0  0
 88 90  2  0  0  0  0
 89164  1  0  0  0  0
 89165  1  0  0  0  0
 89166  1  0  0  0  0
 91 92  1  0  0  0  0
 91 96  1  0  0  0  0
 92 93  1  0  0  0  0
 93 94  1  0  0  0  0
 93 95  2  0  0  0  0
 94167  1  0  0  0  0
 94168  1  0  0  0  0
 94169  1  0  0  0  0
 96 97  1  0  0  0  0
 96101  2  0  0  0  0
 97 98  1  0  0  0  0
 98 99  1  0  0  0  0
 98100  2  0  0  0  0
 99170  1  0  0  0  0
 99171  1  0  0  0  0
 99172  1  0  0  0  0
101 84  1  0  0  0  0
101173  1  0  0  0  0
102103  1  0  0  0  0
102107  2  0  0  0  0
103104  1  0  0  0  0
104105  1  0  0  0  0
104106  2  0  0  0  0
105174  1  0  0  0  0
105175  1  0  0  0  0
105176  1  0  0  0  0
107 75  1  0  0  0  0
107177  1  0  0  0  0
108109  1  0  0  0  0
108113  2  0  0  0  0
109110  1  0  0  0  0
110111  1  0  0  0  0
110112  2  0  0  0  0
111178  1  0  0  0  0
111179  1  0  0  0  0
111180  1  0  0  0  0
113 47  1  0  0  0  0
113181  1  0  0  0  0
114 14  1  0  0  0  0
114182  1  0  0  0  0
115116  1  0  0  0  0
115120  2  0  0  0  0
116117  1  0  0  0  0
117118  1  0  0  0  0
117119  2  0  0  0  0
118183  1  0  0  0  0
118184  1  0  0  0  0
118185  1  0  0  0  0
120  5  1  0  0  0  0
120186  1  0  0  0  0
M  END
>  <IDENTIFIER>
CNP0426578.0

>  <Energy>
9.35371e+36

$$$$
