
 OpenBabel09102510133D

 63 65  0  0  0  0  0  0  0  0999 V2000
   -5.0387    2.3475   -1.7810 C   0  0  0  0  0  0  0  0  0  0  0  0
   -4.4607    2.9805   -0.7415 C   0  0  0  0  0  0  0  0  0  0  0  0
   -4.9470    4.3178   -0.3175 C   0  0  0  0  0  0  0  0  0  0  0  0
   -5.8728    4.8727   -0.8904 O   0  0  0  0  0  0  0  0  0  0  0  0
   -3.3068    2.3983    0.0577 C   0  0  0  0  0  0  0  0  0  0  0  0
   -2.8057    0.9959   -0.3665 C   0  0  0  0  0  0  0  0  0  0  0  0
   -1.6896    0.4702    0.5985 C   0  0  2  0  0  0  0  0  0  0  0  0
   -0.5563    1.4841    0.6185 C   0  0  0  0  0  0  0  0  0  0  0  0
   -0.2741    2.2054    1.7136 C   0  0  0  0  0  0  0  0  0  0  0  0
    0.2527    1.6315   -0.6473 C   0  0  0  0  0  0  0  0  0  0  0  0
    0.9484    0.2979   -0.9295 C   0  0  1  0  0  0  0  0  0  0  0  0
    1.8796    0.1354    0.0869 O   0  0  0  0  0  0  0  0  0  0  0  0
    3.2276    0.2930   -0.0229 C   0  0  0  0  0  0  0  0  0  0  0  0
    3.7562    0.3791   -1.1231 O   0  0  0  0  0  0  0  0  0  0  0  0
    4.0501    0.4198    1.2064 C   0  0  0  0  0  0  0  0  0  0  0  0
    3.4373    0.4296    2.4740 C   0  0  0  0  0  0  0  0  0  0  0  0
    4.2051    0.5717    3.6330 C   0  0  0  0  0  0  0  0  0  0  0  0
    5.5915    0.7050    3.5425 C   0  0  0  0  0  0  0  0  0  0  0  0
    6.2129    0.6968    2.2917 C   0  0  0  0  0  0  0  0  0  0  0  0
    5.4487    0.5566    1.1279 C   0  0  0  0  0  0  0  0  0  0  0  0
   -0.1064   -0.8726   -0.9955 C   0  0  2  0  0  0  0  0  0  0  0  0
   -1.0704   -0.9609    0.2705 C   0  0  1  0  0  0  0  0  0  0  0  0
   -0.2994   -1.4087    1.5475 C   0  0  0  0  0  0  0  0  0  0  0  0
   -2.2029   -2.0449    0.0269 C   0  0  0  0  0  0  0  0  0  0  0  0
   -1.9565   -2.9928   -1.1650 C   0  0  0  0  0  0  0  0  0  0  0  0
   -0.5022   -3.4422   -1.2049 C   0  0  0  0  0  0  0  0  0  0  0  0
    0.4946   -2.2680   -1.4946 C   0  0  2  0  0  0  0  0  0  0  0  0
    1.8377   -2.6750   -0.8159 C   0  0  0  0  0  0  0  0  0  0  0  0
    0.7685   -2.1640   -3.0184 C   0  0  0  0  0  0  0  0  0  0  0  0
    1.8957   -2.3497   -3.4537 O   0  0  0  0  0  0  0  0  0  0  0  0
   -0.1969   -1.8682   -3.9180 O   0  0  0  0  0  0  0  0  0  0  0  0
   -5.8637    2.8007   -2.3222 H   0  0  0  0  0  0  0  0  0  0  0  0
   -4.7151    1.3723   -2.1226 H   0  0  0  0  0  0  0  0  0  0  0  0
   -4.4738    4.8188    0.5210 H   0  0  0  0  0  0  0  0  0  0  0  0
   -3.6353    2.3410    1.1186 H   0  0  0  0  0  0  0  0  0  0  0  0
   -2.4684    3.1231   -0.0101 H   0  0  0  0  0  0  0  0  0  0  0  0
   -2.4528    1.0294   -1.4167 H   0  0  0  0  0  0  0  0  0  0  0  0
   -3.6920    0.3413   -0.3171 H   0  0  0  0  0  0  0  0  0  0  0  0
   -2.1845    0.4178    1.5953 H   0  0  0  0  0  0  0  0  0  0  0  0
   -0.8558    2.0890    2.6223 H   0  0  0  0  0  0  0  0  0  0  0  0
    0.5434    2.9197    1.7152 H   0  0  0  0  0  0  0  0  0  0  0  0
    1.0225    2.4302   -0.5575 H   0  0  0  0  0  0  0  0  0  0  0  0
   -0.4066    1.9147   -1.4927 H   0  0  0  0  0  0  0  0  0  0  0  0
    1.4549    0.3925   -1.9155 H   0  0  0  0  0  0  0  0  0  0  0  0
    2.3665    0.3393    2.5748 H   0  0  0  0  0  0  0  0  0  0  0  0
    3.7225    0.5827    4.6019 H   0  0  0  0  0  0  0  0  0  0  0  0
    6.1833    0.8176    4.4417 H   0  0  0  0  0  0  0  0  0  0  0  0
    7.2879    0.8030    2.2234 H   0  0  0  0  0  0  0  0  0  0  0  0
    5.9523    0.5580    0.1695 H   0  0  0  0  0  0  0  0  0  0  0  0
   -0.8154   -0.5613   -1.7892 H   0  0  0  0  0  0  0  0  0  0  0  0
    0.0824   -2.4386    1.4761 H   0  0  0  0  0  0  0  0  0  0  0  0
   -0.9860   -1.4166    2.4216 H   0  0  0  0  0  0  0  0  0  0  0  0
    0.5245   -0.7315    1.8150 H   0  0  0  0  0  0  0  0  0  0  0  0
   -3.2049   -1.6350   -0.1558 H   0  0  0  0  0  0  0  0  0  0  0  0
   -2.3430   -2.6502    0.9500 H   0  0  0  0  0  0  0  0  0  0  0  0
   -2.2196   -2.4905   -2.1093 H   0  0  0  0  0  0  0  0  0  0  0  0
   -2.6393   -3.8649   -1.0693 H   0  0  0  0  0  0  0  0  0  0  0  0
   -0.3403   -4.2655   -1.9350 H   0  0  0  0  0  0  0  0  0  0  0  0
   -0.3179   -3.8874   -0.2030 H   0  0  0  0  0  0  0  0  0  0  0  0
    2.1621   -3.6745   -1.1809 H   0  0  0  0  0  0  0  0  0  0  0  0
    1.7874   -2.7367    0.2823 H   0  0  0  0  0  0  0  0  0  0  0  0
    2.6516   -1.9784   -1.0770 H   0  0  0  0  0  0  0  0  0  0  0  0
   -1.1121   -1.6716   -3.6987 H   0  0  0  0  0  0  0  0  0  0  0  0
  1  2  2  0  0  0  0
  1 32  1  0  0  0  0
  1 33  1  0  0  0  0
  2  3  1  0  0  0  0
  2  5  1  0  0  0  0
  3  4  2  0  0  0  0
  3 34  1  0  0  0  0
  5  6  1  0  0  0  0
  5 35  1  0  0  0  0
  5 36  1  0  0  0  0
  6 37  1  0  0  0  0
  6 38  1  0  0  0  0
  7  6  1  0  0  0  0
  7  8  1  0  0  0  0
  7 39  1  1  0  0  0
  8  9  2  0  0  0  0
  8 10  1  0  0  0  0
  9 40  1  0  0  0  0
  9 41  1  0  0  0  0
 10 11  1  0  0  0  0
 10 42  1  0  0  0  0
 10 43  1  0  0  0  0
 11 12  1  0  0  0  0
 11 44  1  6  0  0  0
 12 13  1  0  0  0  0
 13 14  2  0  0  0  0
 13 15  1  0  0  0  0
 15 16  2  0  0  0  0
 16 17  1  0  0  0  0
 16 45  1  0  0  0  0
 17 18  2  0  0  0  0
 17 46  1  0  0  0  0
 18 19  1  0  0  0  0
 18 47  1  0  0  0  0
 19 20  2  0  0  0  0
 19 48  1  0  0  0  0
 20 15  1  0  0  0  0
 20 49  1  0  0  0  0
 21 11  1  0  0  0  0
 21 22  1  0  0  0  0
 21 50  1  6  0  0  0
 22 23  1  1  0  0  0
 22 24  1  0  0  0  0
 22  7  1  0  0  0  0
 23 51  1  0  0  0  0
 23 52  1  0  0  0  0
 23 53  1  0  0  0  0
 24 25  1  0  0  0  0
 24 54  1  0  0  0  0
 24 55  1  0  0  0  0
 25 26  1  0  0  0  0
 25 56  1  0  0  0  0
 25 57  1  0  0  0  0
 26 27  1  0  0  0  0
 26 58  1  0  0  0  0
 26 59  1  0  0  0  0
 27 28  1  0  0  0  0
 27 29  1  6  0  0  0
 27 21  1  0  0  0  0
 28 60  1  0  0  0  0
 28 61  1  0  0  0  0
 28 62  1  0  0  0  0
 29 30  2  0  0  0  0
 29 31  1  0  0  0  0
 31 63  1  0  0  0  0
M  END
>  <IDENTIFIER>
CNP0399585.1

>  <Energy>
548.027

$$$$
