
 OpenBabel09042521373D

 45 48  0  0  0  0  0  0  0  0999 V2000
   -6.8274   -0.3769   -0.0660 C   0  0  0  0  0  0  0  0  0  0  0  0
   -5.8431   -0.9848    0.6860 O   0  0  0  0  0  0  0  0  0  0  0  0
   -4.5232   -0.6578    0.6819 C   0  0  0  0  0  0  0  0  0  0  0  0
   -4.0070    0.3756   -0.1229 C   0  0  0  0  0  0  0  0  0  0  0  0
   -2.6401    0.6799   -0.0939 C   0  0  0  0  0  0  0  0  0  0  0  0
   -1.7610   -0.0479    0.7246 C   0  0  0  0  0  0  0  0  0  0  0  0
   -2.2782   -1.0899    1.5192 C   0  0  0  0  0  0  0  0  0  0  0  0
   -3.6502   -1.3880    1.5018 C   0  0  0  0  0  0  0  0  0  0  0  0
   -4.1397   -2.3855    2.2680 O   0  0  0  0  0  0  0  0  0  0  0  0
   -0.2775    0.3237    0.6596 C   0  0  1  0  0  0  0  0  0  0  0  0
    0.6618   -0.7140    1.3414 C   0  0  0  0  0  0  0  0  0  0  0  0
    2.0897   -0.3918    0.9963 C   0  0  0  0  0  0  0  0  0  0  0  0
    3.0956   -0.2907    1.9600 C   0  0  0  0  0  0  0  0  0  0  0  0
    4.3998    0.0282    1.5735 C   0  0  0  0  0  0  0  0  0  0  0  0
    4.7115    0.2603    0.2153 C   0  0  0  0  0  0  0  0  0  0  0  0
    5.9688    0.5803   -0.1918 O   0  0  0  0  0  0  0  0  0  0  0  0
    7.0705    0.7340    0.6236 C   0  0  0  0  0  0  0  0  0  0  0  0
    3.6888    0.1691   -0.7530 C   0  0  0  0  0  0  0  0  0  0  0  0
    3.9506    0.4014   -2.0583 O   0  0  0  0  0  0  0  0  0  0  0  0
    2.3808   -0.1629   -0.3562 C   0  0  0  0  0  0  0  0  0  0  0  0
    1.2124   -0.2148   -1.3104 C   0  0  0  0  0  0  0  0  0  0  0  0
    0.1583    0.6479   -0.7464 N   0  0  1  0  0  0  0  0  0  0  0  0
   -0.8805    1.0584   -1.7181 C   0  0  0  0  0  0  0  0  0  0  0  0
   -2.0544    1.7253   -0.9955 C   0  0  0  0  0  0  0  0  0  0  0  0
   -7.8011   -0.8620    0.1505 H   0  0  0  0  0  0  0  0  0  0  0  0
   -6.6086   -0.4912   -1.1493 H   0  0  0  0  0  0  0  0  0  0  0  0
   -6.9016    0.6999    0.1970 H   0  0  0  0  0  0  0  0  0  0  0  0
   -4.6570    0.9417   -0.7768 H   0  0  0  0  0  0  0  0  0  0  0  0
   -1.6336   -1.6775    2.1569 H   0  0  0  0  0  0  0  0  0  0  0  0
   -3.5743   -2.9194    2.8443 H   0  0  0  0  0  0  0  0  0  0  0  0
   -0.1702    1.2812    1.2156 H   0  0  0  0  0  0  0  0  0  0  0  0
    0.4497   -1.7133    0.9015 H   0  0  0  0  0  0  0  0  0  0  0  0
    0.4943   -0.7770    2.4386 H   0  0  0  0  0  0  0  0  0  0  0  0
    2.8726   -0.4591    3.0060 H   0  0  0  0  0  0  0  0  0  0  0  0
    5.1594    0.0969    2.3403 H   0  0  0  0  0  0  0  0  0  0  0  0
    7.9491    0.9945   -0.0016 H   0  0  0  0  0  0  0  0  0  0  0  0
    7.2866   -0.2138    1.1609 H   0  0  0  0  0  0  0  0  0  0  0  0
    6.8971    1.5561    1.3503 H   0  0  0  0  0  0  0  0  0  0  0  0
    4.8306    0.6316   -2.3872 H   0  0  0  0  0  0  0  0  0  0  0  0
    0.8294   -1.2557   -1.3937 H   0  0  0  0  0  0  0  0  0  0  0  0
    1.5053    0.1234   -2.3276 H   0  0  0  0  0  0  0  0  0  0  0  0
   -1.2519    0.1756   -2.2869 H   0  0  0  0  0  0  0  0  0  0  0  0
   -0.4346    1.7767   -2.4392 H   0  0  0  0  0  0  0  0  0  0  0  0
   -2.8067    2.1094   -1.7177 H   0  0  0  0  0  0  0  0  0  0  0  0
   -1.6714    2.5805   -0.3967 H   0  0  0  0  0  0  0  0  0  0  0  0
  1  2  1  0  0  0  0
  1 25  1  0  0  0  0
  1 26  1  0  0  0  0
  1 27  1  0  0  0  0
  2  3  1  0  0  0  0
  3  4  2  0  0  0  0
  4  5  1  0  0  0  0
  4 28  1  0  0  0  0
  5  6  2  0  0  0  0
  6  7  1  0  0  0  0
  6 10  1  0  0  0  0
  7  8  2  0  0  0  0
  7 29  1  0  0  0  0
  8  9  1  0  0  0  0
  8  3  1  0  0  0  0
  9 30  1  0  0  0  0
 10 11  1  0  0  0  0
 10 31  1  1  0  0  0
 11 12  1  0  0  0  0
 11 32  1  0  0  0  0
 11 33  1  0  0  0  0
 12 13  2  0  0  0  0
 13 14  1  0  0  0  0
 13 34  1  0  0  0  0
 14 15  2  0  0  0  0
 14 35  1  0  0  0  0
 15 16  1  0  0  0  0
 15 18  1  0  0  0  0
 16 17  1  0  0  0  0
 17 36  1  0  0  0  0
 17 37  1  0  0  0  0
 17 38  1  0  0  0  0
 18 19  1  0  0  0  0
 18 20  2  0  0  0  0
 19 39  1  0  0  0  0
 20 21  1  0  0  0  0
 20 12  1  0  0  0  0
 21 40  1  0  0  0  0
 21 41  1  0  0  0  0
 22 21  1  6  0  0  0
 22 23  1  0  0  0  0
 22 10  1  0  0  0  0
 23 24  1  0  0  0  0
 23 42  1  0  0  0  0
 23 43  1  0  0  0  0
 24  5  1  0  0  0  0
 24 44  1  0  0  0  0
 24 45  1  0  0  0  0
M  END
>  <IDENTIFIER>
CNP0177868.2

>  <Energy>
369.047

$$$$
