
 OpenBabel09042516343D

 42 44  0  0  0  0  0  0  0  0999 V2000
   -7.1171   -1.1309   -0.4700 C   0  0  0  0  0  0  0  0  0  0  0  0
   -6.0446   -0.4159    0.3437 C   0  0  0  0  0  0  0  0  0  0  0  0
   -4.7949   -0.3148   -0.3922 N   0  0  0  0  0  0  0  0  0  0  0  0
   -3.7089    0.3036    0.1496 C   0  0  0  0  0  0  0  0  0  0  0  0
   -3.7878    0.7756    1.2771 O   0  0  0  0  0  0  0  0  0  0  0  0
   -2.5427    0.3989   -0.5574 N   0  0  0  0  0  0  0  0  0  0  0  0
   -1.3645    1.0788   -0.0133 C   0  0  2  0  0  0  0  0  0  0  0  0
   -0.8164    2.1773   -0.9672 C   0  0  0  0  0  0  0  0  0  0  0  0
    0.1648    1.6029   -1.8441 O   0  0  0  0  0  0  0  0  0  0  0  0
    0.2281    0.2587   -1.4440 C   0  0  2  0  0  0  0  0  0  0  0  0
   -0.1355    0.2325    0.0030 C   0  0  2  0  0  0  0  0  0  0  0  0
   -0.1034   -1.1124    0.3929 O   0  0  0  0  0  0  0  0  0  0  0  0
    0.9067   -1.6674   -0.4617 C   0  0  0  0  0  0  0  0  0  0  0  0
    1.5114   -0.5303   -1.3473 C   0  0  2  0  0  0  0  0  0  0  0  0
    2.5922    0.1963   -0.6435 N   0  0  0  0  0  0  0  0  0  0  0  0
    3.7006   -0.3458   -0.1054 C   0  0  0  0  0  0  0  0  0  0  0  0
    4.3949    0.6915    0.4780 C   0  0  0  0  0  0  0  0  0  0  0  0
    5.6407    0.6010    1.2520 C   0  0  0  0  0  0  0  0  0  0  0  0
    6.1283    1.6165    1.7297 O   0  0  0  0  0  0  0  0  0  0  0  0
    6.2130   -0.6107    1.4664 O   0  0  0  0  0  0  0  0  0  0  0  0
    7.3191   -0.8027    2.2669 C   0  0  0  0  0  0  0  0  0  0  0  0
    3.7162    1.8330    0.2559 N   0  0  0  0  0  0  0  0  0  0  0  0
    2.6308    1.5049   -0.4288 N   0  0  0  0  0  0  0  0  0  0  0  0
   -8.0554   -1.1843    0.1224 H   0  0  0  0  0  0  0  0  0  0  0  0
   -6.7883   -2.1627   -0.7147 H   0  0  0  0  0  0  0  0  0  0  0  0
   -7.3186   -0.5736   -1.4091 H   0  0  0  0  0  0  0  0  0  0  0  0
   -5.8751   -0.9786    1.2881 H   0  0  0  0  0  0  0  0  0  0  0  0
   -6.4102    0.6044    0.5940 H   0  0  0  0  0  0  0  0  0  0  0  0
   -4.7293   -0.7112   -1.3431 H   0  0  0  0  0  0  0  0  0  0  0  0
   -2.5148   -0.0042   -1.5043 H   0  0  0  0  0  0  0  0  0  0  0  0
   -1.5880    1.4876    0.9960 H   0  0  0  0  0  0  0  0  0  0  0  0
   -0.2701    2.9244   -0.3492 H   0  0  0  0  0  0  0  0  0  0  0  0
   -1.6319    2.6997   -1.5108 H   0  0  0  0  0  0  0  0  0  0  0  0
   -0.4783   -0.3234   -2.0829 H   0  0  0  0  0  0  0  0  0  0  0  0
    0.5858    0.7854    0.6506 H   0  0  0  0  0  0  0  0  0  0  0  0
    0.3869   -2.3863   -1.1354 H   0  0  0  0  0  0  0  0  0  0  0  0
    1.6816   -2.2299    0.0987 H   0  0  0  0  0  0  0  0  0  0  0  0
    1.9192   -0.9114   -2.3086 H   0  0  0  0  0  0  0  0  0  0  0  0
    3.9599   -1.3965   -0.1106 H   0  0  0  0  0  0  0  0  0  0  0  0
    7.5869   -1.8789    2.2669 H   0  0  0  0  0  0  0  0  0  0  0  0
    7.0917   -0.4923    3.3098 H   0  0  0  0  0  0  0  0  0  0  0  0
    8.1801   -0.2164    1.8813 H   0  0  0  0  0  0  0  0  0  0  0  0
  1  2  1  0  0  0  0
  1 24  1  0  0  0  0
  1 25  1  0  0  0  0
  1 26  1  0  0  0  0
  2  3  1  0  0  0  0
  2 27  1  0  0  0  0
  2 28  1  0  0  0  0
  3  4  1  0  0  0  0
  3 29  1  0  0  0  0
  4  5  2  0  0  0  0
  4  6  1  0  0  0  0
  6 30  1  0  0  0  0
  7  6  1  0  0  0  0
  7  8  1  0  0  0  0
  7 31  1  1  0  0  0
  8  9  1  0  0  0  0
  8 32  1  0  0  0  0
  8 33  1  0  0  0  0
 10  9  1  0  0  0  0
 10 11  1  0  0  0  0
 10 34  1  6  0  0  0
 11 12  1  0  0  0  0
 11  7  1  0  0  0  0
 11 35  1  1  0  0  0
 12 13  1  0  0  0  0
 13 14  1  0  0  0  0
 13 36  1  0  0  0  0
 13 37  1  0  0  0  0
 14 15  1  0  0  0  0
 14 10  1  0  0  0  0
 14 38  1  6  0  0  0
 15 16  1  0  0  0  0
 16 17  2  0  0  0  0
 16 39  1  0  0  0  0
 17 18  1  0  0  0  0
 17 22  1  0  0  0  0
 18 19  2  0  0  0  0
 18 20  1  0  0  0  0
 20 21  1  0  0  0  0
 21 40  1  0  0  0  0
 21 41  1  0  0  0  0
 21 42  1  0  0  0  0
 22 23  2  0  0  0  0
 23 15  1  0  0  0  0
M  END
>  <IDENTIFIER>
CNP0075274.1

>  <Energy>
630.956

$$$$
