
 OpenBabel09092505433D

186195  0  0  0  0  0  0  0  0999 V2000
   -7.9307    1.8535    7.3130 C   0  0  0  0  0  0  0  0  0  0  0  0
   -7.9054    1.7948    5.9378 O   0  0  0  0  0  0  0  0  0  0  0  0
   -7.1176    0.9421    5.2272 C   0  0  0  0  0  0  0  0  0  0  0  0
   -6.4094    0.1303    5.7943 O   0  0  0  0  0  0  0  0  0  0  0  0
   -7.0965    1.0683    3.7239 C   0  0  1  0  0  0  0  0  0  0  0  0
   -6.0945    0.1836    3.2096 O   0  0  0  0  0  0  0  0  0  0  0  0
   -6.1905    0.0793    1.8062 C   0  0  1  0  0  0  0  0  0  0  0  0
   -5.0548   -0.6008    1.3076 O   0  0  0  0  0  0  0  0  0  0  0  0
   -4.0413    0.2746    0.8435 C   0  0  1  0  0  0  0  0  0  0  0  0
   -2.8251    0.2620    1.8289 C   0  0  0  0  0  0  0  0  0  0  0  0
   -1.8093   -0.8062    1.4447 C   0  0  0  0  0  0  0  0  0  0  0  0
   -1.1676   -0.5389    0.0209 C   0  0  1  0  0  0  0  0  0  0  0  0
   -0.8163   -1.9714   -0.5225 C   0  0  0  0  0  0  0  0  0  0  0  0
   -2.1957    0.3088   -0.8603 C   0  0  1  0  0  0  0  0  0  0  0  0
   -1.6464    0.5744   -2.2791 C   0  0  0  0  0  0  0  0  0  0  0  0
   -0.4392    1.5353   -2.1453 C   0  0  0  0  0  0  0  0  0  0  0  0
    0.7176    0.9705   -1.2716 C   0  0  2  0  0  0  0  0  0  0  0  0
    1.4192   -0.1233   -2.1415 C   0  0  0  0  0  0  0  0  0  0  0  0
    0.1245    0.3919    0.1024 C   0  0  2  0  0  0  0  0  0  0  0  0
    1.2682   -0.1376    1.0211 C   0  0  0  0  0  0  0  0  0  0  0  0
    2.6347    0.4638    0.7836 C   0  0  0  0  0  0  0  0  0  0  0  0
    2.9156    1.4353   -0.1255 C   0  0  0  0  0  0  0  0  0  0  0  0
    4.3933    1.6580   -0.4412 C   0  0  2  0  0  0  0  0  0  0  0  0
    5.0182    2.3392    0.8216 C   0  0  0  0  0  0  0  0  0  0  0  0
    6.5137    2.6662    0.6495 C   0  0  1  0  0  0  0  0  0  0  0  0
    7.0108    3.4143    1.9057 C   0  0  0  0  0  0  0  0  0  0  0  0
    7.2850    1.3189    0.5645 C   0  0  0  0  0  0  0  0  0  0  0  0
    8.6696    1.5138    0.3660 O   0  0  0  0  0  0  0  0  0  0  0  0
    9.3327    0.2571    0.3333 C   0  0  2  0  0  0  0  0  0  0  0  0
   10.2899    0.2457    1.3901 O   0  0  0  0  0  0  0  0  0  0  0  0
   11.3193   -0.7406    1.2782 C   0  0  2  0  0  0  0  0  0  0  0  0
   12.6805   -0.0704    1.0417 C   0  0  0  0  0  0  0  0  0  0  0  0
   13.6393   -1.0940    1.1015 O   0  0  0  0  0  0  0  0  0  0  0  0
   14.9074   -0.6973    0.6365 C   0  0  2  0  0  0  0  0  0  0  0  0
   15.0865   -1.1307   -0.7055 O   0  0  0  0  0  0  0  0  0  0  0  0
   16.1909   -2.0168   -0.7064 C   0  0  0  0  0  0  0  0  0  0  0  0
   17.0474   -1.6739    0.5134 C   0  0  2  0  0  0  0  0  0  0  0  0
   17.7457   -0.4699    0.2903 O   0  0  0  0  0  0  0  0  0  0  0  0
   18.0218   -2.7935    0.9523 C   0  0  0  0  0  0  0  0  0  0  0  0
   17.3545   -4.0169    1.1414 O   0  0  0  0  0  0  0  0  0  0  0  0
   15.9326   -1.4370    1.4924 C   0  0  1  0  0  0  0  0  0  0  0  0
   16.3032   -0.7701    2.6745 O   0  0  0  0  0  0  0  0  0  0  0  0
   10.9982   -1.8967    0.2634 C   0  0  1  0  0  0  0  0  0  0  0  0
    9.8676   -2.6256    0.7030 O   0  0  0  0  0  0  0  0  0  0  0  0
   10.6594   -1.3294   -1.1408 C   0  0  2  0  0  0  0  0  0  0  0  0
   11.7465   -1.3242   -2.0324 O   0  0  0  0  0  0  0  0  0  0  0  0
   10.0061    0.0712   -1.0438 C   0  0  1  0  0  0  0  0  0  0  0  0
    9.1211    0.2796   -2.1142 O   0  0  0  0  0  0  0  0  0  0  0  0
    6.7123    3.5785   -0.6168 C   0  0  0  0  0  0  0  0  0  0  0  0
    5.4283    3.7589   -1.4927 C   0  0  1  0  0  0  0  0  0  0  0  0
    5.7072    4.5140   -2.6484 O   0  0  0  0  0  0  0  0  0  0  0  0
    4.7476    2.3892   -1.8205 C   0  0  1  0  0  0  0  0  0  0  0  0
    5.7292    1.5404   -2.6872 C   0  0  0  0  0  0  0  0  0  0  0  0
    3.5000    2.5459   -2.7379 C   0  0  0  0  0  0  0  0  0  0  0  0
    2.2897    3.0705   -1.9965 C   0  0  0  0  0  0  0  0  0  0  0  0
    1.7709    2.1345   -0.8464 C   0  0  1  0  0  0  0  0  0  0  0  0
    1.1810    3.1620    0.1917 C   0  0  0  0  0  0  0  0  0  0  0  0
   -3.7007   -0.0687   -0.6705 C   0  0  2  0  0  0  0  0  0  0  0  0
   -4.6072    0.8169   -1.5713 C   0  0  0  0  0  0  0  0  0  0  0  0
   -3.9930   -1.5560   -1.0397 C   0  0  0  0  0  0  0  0  0  0  0  0
   -5.3715   -1.8129   -1.1008 O   0  0  0  0  0  0  0  0  0  0  0  0
   -7.4581   -0.6999    1.3766 C   0  0  2  0  0  0  0  0  0  0  0  0
   -7.9051   -0.0893    0.1710 O   0  0  0  0  0  0  0  0  0  0  0  0
   -8.4416   -0.9847   -0.7895 C   0  0  2  0  0  0  0  0  0  0  0  0
   -7.6468   -0.8428   -1.9658 O   0  0  0  0  0  0  0  0  0  0  0  0
   -8.2003   -1.5357   -3.0640 C   0  0  2  0  0  0  0  0  0  0  0  0
   -7.1367   -1.6145   -4.1762 C   0  0  0  0  0  0  0  0  0  0  0  0
   -7.6085   -2.3458   -5.2749 O   0  0  0  0  0  0  0  0  0  0  0  0
   -9.5470   -0.8757   -3.5098 C   0  0  2  0  0  0  0  0  0  0  0  0
   -9.4828   -0.2088   -4.7480 O   0  0  0  0  0  0  0  0  0  0  0  0
  -10.1188    0.0586   -2.4082 C   0  0  2  0  0  0  0  0  0  0  0  0
   -9.5349    1.3439   -2.4357 O   0  0  0  0  0  0  0  0  0  0  0  0
   -9.9315   -0.5856   -1.0247 C   0  0  1  0  0  0  0  0  0  0  0  0
  -10.7743   -1.7317   -0.9249 O   0  0  0  0  0  0  0  0  0  0  0  0
  -11.8712   -1.4977   -0.0479 C   0  0  2  0  0  0  0  0  0  0  0  0
  -11.5469   -2.0285    1.2340 O   0  0  0  0  0  0  0  0  0  0  0  0
  -12.5699   -1.8067    2.2024 C   0  0  1  0  0  0  0  0  0  0  0  0
  -12.6286   -0.3344    2.6567 C   0  0  0  0  0  0  0  0  0  0  0  0
  -13.9305   -2.4203    1.7494 C   0  0  2  0  0  0  0  0  0  0  0  0
  -13.8731   -3.8295    1.7515 O   0  0  0  0  0  0  0  0  0  0  0  0
  -14.3384   -1.9198    0.3523 C   0  0  1  0  0  0  0  0  0  0  0  0
  -14.7486   -0.5707    0.4542 O   0  0  0  0  0  0  0  0  0  0  0  0
  -13.1444   -2.1629   -0.6175 C   0  0  1  0  0  0  0  0  0  0  0  0
  -13.4480   -1.7319   -1.9237 O   0  0  0  0  0  0  0  0  0  0  0  0
   -8.5488   -0.6080    2.4863 C   0  0  1  0  0  0  0  0  0  0  0  0
   -8.3694   -1.5794    3.4981 O   0  0  0  0  0  0  0  0  0  0  0  0
   -8.5326    0.7893    3.1228 C   0  0  2  0  0  0  0  0  0  0  0  0
   -8.9345    1.7513    2.1705 O   0  0  0  0  0  0  0  0  0  0  0  0
   -8.6464    2.6407    7.6267 H   0  0  0  0  0  0  0  0  0  0  0  0
   -6.9228    2.1146    7.7019 H   0  0  0  0  0  0  0  0  0  0  0  0
   -8.2572    0.8789    7.7326 H   0  0  0  0  0  0  0  0  0  0  0  0
   -6.7956    2.1251    3.5468 H   0  0  0  0  0  0  0  0  0  0  0  0
   -6.2867    1.1090    1.3892 H   0  0  0  0  0  0  0  0  0  0  0  0
   -4.3228    1.3532    0.8994 H   0  0  0  0  0  0  0  0  0  0  0  0
   -3.1940    0.1466    2.8709 H   0  0  0  0  0  0  0  0  0  0  0  0
   -2.2878    1.2350    1.8000 H   0  0  0  0  0  0  0  0  0  0  0  0
   -2.3914   -1.7494    1.4718 H   0  0  0  0  0  0  0  0  0  0  0  0
   -1.0317   -0.9356    2.2208 H   0  0  0  0  0  0  0  0  0  0  0  0
   -1.6297   -2.6987   -0.4787 H   0  0  0  0  0  0  0  0  0  0  0  0
   -0.0461   -2.4692    0.0925 H   0  0  0  0  0  0  0  0  0  0  0  0
   -0.5340   -2.0304   -1.5675 H   0  0  0  0  0  0  0  0  0  0  0  0
   -2.2308    1.3437   -0.4462 H   0  0  0  0  0  0  0  0  0  0  0  0
   -2.3767    1.1334   -2.8943 H   0  0  0  0  0  0  0  0  0  0  0  0
   -1.4218   -0.3647   -2.8200 H   0  0  0  0  0  0  0  0  0  0  0  0
   -0.8205    2.4735   -1.6932 H   0  0  0  0  0  0  0  0  0  0  0  0
   -0.0764    1.8050   -3.1601 H   0  0  0  0  0  0  0  0  0  0  0  0
    0.7648   -0.9011   -2.5167 H   0  0  0  0  0  0  0  0  0  0  0  0
    2.2687   -0.6169   -1.6300 H   0  0  0  0  0  0  0  0  0  0  0  0
    1.7535    0.2841   -3.1007 H   0  0  0  0  0  0  0  0  0  0  0  0
   -0.2938    1.2588    0.6250 H   0  0  0  0  0  0  0  0  0  0  0  0
    1.4546   -1.1960    0.7802 H   0  0  0  0  0  0  0  0  0  0  0  0
    0.9960   -0.0748    2.0946 H   0  0  0  0  0  0  0  0  0  0  0  0
    3.4486   -0.0416    1.2974 H   0  0  0  0  0  0  0  0  0  0  0  0
    4.7844    0.6257   -0.5627 H   0  0  0  0  0  0  0  0  0  0  0  0
    4.8736    1.7054    1.7238 H   0  0  0  0  0  0  0  0  0  0  0  0
    4.4680    3.2852    1.0213 H   0  0  0  0  0  0  0  0  0  0  0  0
    6.8575    2.7993    2.8196 H   0  0  0  0  0  0  0  0  0  0  0  0
    6.4519    4.3658    2.0381 H   0  0  0  0  0  0  0  0  0  0  0  0
    8.0923    3.6524    1.8206 H   0  0  0  0  0  0  0  0  0  0  0  0
    6.8965    0.6877   -0.2501 H   0  0  0  0  0  0  0  0  0  0  0  0
    7.1107    0.7649    1.5190 H   0  0  0  0  0  0  0  0  0  0  0  0
    8.6285   -0.5978    0.4875 H   0  0  0  0  0  0  0  0  0  0  0  0
   11.4149   -1.2214    2.2776 H   0  0  0  0  0  0  0  0  0  0  0  0
   12.8656    0.6567    1.8632 H   0  0  0  0  0  0  0  0  0  0  0  0
   12.7011    0.4774    0.0795 H   0  0  0  0  0  0  0  0  0  0  0  0
   15.0993    0.4028    0.6700 H   0  0  0  0  0  0  0  0  0  0  0  0
   16.7784   -1.9458   -1.6467 H   0  0  0  0  0  0  0  0  0  0  0  0
   15.7779   -3.0479   -0.6292 H   0  0  0  0  0  0  0  0  0  0  0  0
   18.4076   -0.6403   -0.4308 H   0  0  0  0  0  0  0  0  0  0  0  0
   18.5570   -2.4945    1.8830 H   0  0  0  0  0  0  0  0  0  0  0  0
   18.7943   -2.9474    0.1711 H   0  0  0  0  0  0  0  0  0  0  0  0
   17.0717   -4.0562    2.0925 H   0  0  0  0  0  0  0  0  0  0  0  0
   15.4882   -2.4236    1.7579 H   0  0  0  0  0  0  0  0  0  0  0  0
   16.5774    0.1539    2.4311 H   0  0  0  0  0  0  0  0  0  0  0  0
   11.8251   -2.6366    0.1853 H   0  0  0  0  0  0  0  0  0  0  0  0
    9.8246   -2.6282    1.6933 H   0  0  0  0  0  0  0  0  0  0  0  0
    9.9327   -2.0542   -1.5724 H   0  0  0  0  0  0  0  0  0  0  0  0
   12.4726   -0.7826   -1.6412 H   0  0  0  0  0  0  0  0  0  0  0  0
   10.7845    0.8610   -1.0905 H   0  0  0  0  0  0  0  0  0  0  0  0
    8.3751   -0.3675   -2.0093 H   0  0  0  0  0  0  0  0  0  0  0  0
    7.5649    3.1938   -1.2150 H   0  0  0  0  0  0  0  0  0  0  0  0
    7.0181    4.6053   -0.3191 H   0  0  0  0  0  0  0  0  0  0  0  0
    4.7185    4.3657   -0.8947 H   0  0  0  0  0  0  0  0  0  0  0  0
    6.5342    4.1582   -3.0639 H   0  0  0  0  0  0  0  0  0  0  0  0
    5.9191    2.0268   -3.6682 H   0  0  0  0  0  0  0  0  0  0  0  0
    5.2962    0.5381   -2.8997 H   0  0  0  0  0  0  0  0  0  0  0  0
    6.7108    1.3837   -2.2266 H   0  0  0  0  0  0  0  0  0  0  0  0
    3.2556    1.5938   -3.2087 H   0  0  0  0  0  0  0  0  0  0  0  0
    3.7394    3.2294   -3.5818 H   0  0  0  0  0  0  0  0  0  0  0  0
    1.4660    3.3401   -2.6853 H   0  0  0  0  0  0  0  0  0  0  0  0
    2.6387    4.0461   -1.5991 H   0  0  0  0  0  0  0  0  0  0  0  0
    1.9356    3.9359    0.4540 H   0  0  0  0  0  0  0  0  0  0  0  0
    0.9528    2.7426    1.1908 H   0  0  0  0  0  0  0  0  0  0  0  0
    0.2905    3.6912   -0.2024 H   0  0  0  0  0  0  0  0  0  0  0  0
   -4.4755    0.5760   -2.6471 H   0  0  0  0  0  0  0  0  0  0  0  0
   -4.3920    1.8960   -1.4169 H   0  0  0  0  0  0  0  0  0  0  0  0
   -5.6772    0.6609   -1.3316 H   0  0  0  0  0  0  0  0  0  0  0  0
   -3.5604   -2.2293   -0.2903 H   0  0  0  0  0  0  0  0  0  0  0  0
   -3.5629   -1.7924   -2.0369 H   0  0  0  0  0  0  0  0  0  0  0  0
   -5.5811   -2.5738   -0.4982 H   0  0  0  0  0  0  0  0  0  0  0  0
   -7.2066   -1.7796    1.2560 H   0  0  0  0  0  0  0  0  0  0  0  0
   -8.4022   -2.0467   -0.4511 H   0  0  0  0  0  0  0  0  0  0  0  0
   -8.3945   -2.5867   -2.7430 H   0  0  0  0  0  0  0  0  0  0  0  0
   -6.1983   -2.0702   -3.7845 H   0  0  0  0  0  0  0  0  0  0  0  0
   -6.8517   -0.5958   -4.5168 H   0  0  0  0  0  0  0  0  0  0  0  0
   -7.4638   -3.3036   -5.0584 H   0  0  0  0  0  0  0  0  0  0  0  0
  -10.2480   -1.7290   -3.6512 H   0  0  0  0  0  0  0  0  0  0  0  0
   -8.8415    0.5418   -4.6615 H   0  0  0  0  0  0  0  0  0  0  0  0
  -11.1984    0.2217   -2.6081 H   0  0  0  0  0  0  0  0  0  0  0  0
   -8.5528    1.2734   -2.3518 H   0  0  0  0  0  0  0  0  0  0  0  0
  -10.1756    0.1938   -0.2621 H   0  0  0  0  0  0  0  0  0  0  0  0
  -12.1041   -0.4157    0.0208 H   0  0  0  0  0  0  0  0  0  0  0  0
  -12.2797   -2.3606    3.1223 H   0  0  0  0  0  0  0  0  0  0  0  0
  -12.9148    0.3718    1.8576 H   0  0  0  0  0  0  0  0  0  0  0  0
  -11.6320   -0.0286    3.0393 H   0  0  0  0  0  0  0  0  0  0  0  0
  -13.3610   -0.2249    3.4833 H   0  0  0  0  0  0  0  0  0  0  0  0
  -14.7157   -2.1471    2.4881 H   0  0  0  0  0  0  0  0  0  0  0  0
  -12.9950   -4.1240    1.3983 H   0  0  0  0  0  0  0  0  0  0  0  0
  -15.2190   -2.4944   -0.0075 H   0  0  0  0  0  0  0  0  0  0  0  0
  -14.2471    0.0076   -0.1701 H   0  0  0  0  0  0  0  0  0  0  0  0
  -12.9415   -3.2529   -0.6854 H   0  0  0  0  0  0  0  0  0  0  0  0
  -13.3094   -0.7526   -1.9809 H   0  0  0  0  0  0  0  0  0  0  0  0
   -9.5290   -0.8286    2.0274 H   0  0  0  0  0  0  0  0  0  0  0  0
   -7.4125   -1.8282    3.5711 H   0  0  0  0  0  0  0  0  0  0  0  0
   -9.2969    0.8436    3.9292 H   0  0  0  0  0  0  0  0  0  0  0  0
   -8.1450    2.1429    1.7241 H   0  0  0  0  0  0  0  0  0  0  0  0
  1  2  1  0  0  0  0
  1 89  1  0  0  0  0
  1 90  1  0  0  0  0
  1 91  1  0  0  0  0
  2  3  1  0  0  0  0
  3  4  2  0  0  0  0
  5  3  1  0  0  0  0
  5  6  1  0  0  0  0
  5 92  1  6  0  0  0
  6  7  1  0  0  0  0
  7  8  1  0  0  0  0
  7 62  1  0  0  0  0
  7 93  1  6  0  0  0
  9  8  1  0  0  0  0
  9 10  1  0  0  0  0
  9 94  1  1  0  0  0
 10 11  1  0  0  0  0
 10 95  1  0  0  0  0
 10 96  1  0  0  0  0
 11 12  1  0  0  0  0
 11 97  1  0  0  0  0
 11 98  1  0  0  0  0
 12 13  1  6  0  0  0
 12 14  1  0  0  0  0
 13 99  1  0  0  0  0
 13100  1  0  0  0  0
 13101  1  0  0  0  0
 14 15  1  0  0  0  0
 14 58  1  0  0  0  0
 14102  1  1  0  0  0
 15 16  1  0  0  0  0
 15103  1  0  0  0  0
 15104  1  0  0  0  0
 16 17  1  0  0  0  0
 16105  1  0  0  0  0
 16106  1  0  0  0  0
 17 18  1  6  0  0  0
 17 19  1  0  0  0  0
 18107  1  0  0  0  0
 18108  1  0  0  0  0
 18109  1  0  0  0  0
 19 20  1  0  0  0  0
 19 12  1  0  0  0  0
 19110  1  1  0  0  0
 20 21  1  0  0  0  0
 20111  1  0  0  0  0
 20112  1  0  0  0  0
 21 22  2  0  0  0  0
 21113  1  0  0  0  0
 22 23  1  0  0  0  0
 23 24  1  0  0  0  0
 23114  1  6  0  0  0
 24 25  1  0  0  0  0
 24115  1  0  0  0  0
 24116  1  0  0  0  0
 25 26  1  1  0  0  0
 25 27  1  0  0  0  0
 25 49  1  0  0  0  0
 26117  1  0  0  0  0
 26118  1  0  0  0  0
 26119  1  0  0  0  0
 27 28  1  0  0  0  0
 27120  1  0  0  0  0
 27121  1  0  0  0  0
 29 28  1  0  0  0  0
 29 30  1  0  0  0  0
 29122  1  1  0  0  0
 30 31  1  0  0  0  0
 31 32  1  0  0  0  0
 31 43  1  0  0  0  0
 31123  1  1  0  0  0
 32 33  1  0  0  0  0
 32124  1  0  0  0  0
 32125  1  0  0  0  0
 34 33  1  0  0  0  0
 34 35  1  0  0  0  0
 34126  1  1  0  0  0
 35 36  1  0  0  0  0
 36 37  1  0  0  0  0
 36127  1  0  0  0  0
 36128  1  0  0  0  0
 37 38  1  6  0  0  0
 37 39  1  0  0  0  0
 37 41  1  0  0  0  0
 38129  1  0  0  0  0
 39 40  1  0  0  0  0
 39130  1  0  0  0  0
 39131  1  0  0  0  0
 40132  1  0  0  0  0
 41 42  1  0  0  0  0
 41 34  1  0  0  0  0
 41133  1  1  0  0  0
 42134  1  0  0  0  0
 43 44  1  0  0  0  0
 43 45  1  0  0  0  0
 43135  1  6  0  0  0
 44136  1  0  0  0  0
 45 46  1  0  0  0  0
 45 47  1  0  0  0  0
 45137  1  6  0  0  0
 46138  1  0  0  0  0
 47 48  1  0  0  0  0
 47 29  1  0  0  0  0
 47139  1  6  0  0  0
 48140  1  0  0  0  0
 49 50  1  0  0  0  0
 49141  1  0  0  0  0
 49142  1  0  0  0  0
 50 51  1  0  0  0  0
 50 52  1  0  0  0  0
 50143  1  1  0  0  0
 51144  1  0  0  0  0
 52 53  1  6  0  0  0
 52 54  1  0  0  0  0
 52 23  1  0  0  0  0
 53145  1  0  0  0  0
 53146  1  0  0  0  0
 53147  1  0  0  0  0
 54 55  1  0  0  0  0
 54148  1  0  0  0  0
 54149  1  0  0  0  0
 55 56  1  0  0  0  0
 55150  1  0  0  0  0
 55151  1  0  0  0  0
 56 57  1  1  0  0  0
 56 22  1  0  0  0  0
 56 17  1  0  0  0  0
 57152  1  0  0  0  0
 57153  1  0  0  0  0
 57154  1  0  0  0  0
 58 59  1  6  0  0  0
 58 60  1  0  0  0  0
 58  9  1  0  0  0  0
 59155  1  0  0  0  0
 59156  1  0  0  0  0
 59157  1  0  0  0  0
 60 61  1  0  0  0  0
 60158  1  0  0  0  0
 60159  1  0  0  0  0
 61160  1  0  0  0  0
 62 63  1  0  0  0  0
 62 85  1  0  0  0  0
 62161  1  6  0  0  0
 64 63  1  0  0  0  0
 64 65  1  0  0  0  0
 64162  1  1  0  0  0
 65 66  1  0  0  0  0
 66 67  1  0  0  0  0
 66 69  1  0  0  0  0
 66163  1  1  0  0  0
 67 68  1  0  0  0  0
 67164  1  0  0  0  0
 67165  1  0  0  0  0
 68166  1  0  0  0  0
 69 70  1  0  0  0  0
 69 71  1  0  0  0  0
 69167  1  6  0  0  0
 70168  1  0  0  0  0
 71 72  1  0  0  0  0
 71 73  1  0  0  0  0
 71169  1  6  0  0  0
 72170  1  0  0  0  0
 73 74  1  0  0  0  0
 73 64  1  0  0  0  0
 73171  1  1  0  0  0
 75 74  1  0  0  0  0
 75 76  1  0  0  0  0
 75172  1  1  0  0  0
 76 77  1  0  0  0  0
 77 78  1  0  0  0  0
 77 79  1  0  0  0  0
 77173  1  1  0  0  0
 78174  1  0  0  0  0
 78175  1  0  0  0  0
 78176  1  0  0  0  0
 79 80  1  0  0  0  0
 79 81  1  0  0  0  0
 79177  1  1  0  0  0
 80178  1  0  0  0  0
 81 82  1  0  0  0  0
 81 83  1  0  0  0  0
 81179  1  6  0  0  0
 82180  1  0  0  0  0
 83 84  1  0  0  0  0
 83 75  1  0  0  0  0
 83181  1  6  0  0  0
 84182  1  0  0  0  0
 85 86  1  0  0  0  0
 85 87  1  0  0  0  0
 85183  1  6  0  0  0
 86184  1  0  0  0  0
 87 88  1  0  0  0  0
 87  5  1  0  0  0  0
 87185  1  1  0  0  0
 88186  1  0  0  0  0
M  END
>  <IDENTIFIER>
CNP0203590.2

>  <Energy>
2895.8

$$$$
