
 OpenBabel09102516183D

111113  0  0  0  0  0  0  0  0999 V2000
   15.2654   -1.5115    1.0365 C   0  0  0  0  0  0  0  0  0  0  0  0
   15.4126   -1.4538    2.5581 C   0  0  0  0  0  0  0  0  0  0  0  0
   14.1207   -1.6430    3.3827 C   0  0  0  0  0  0  0  0  0  0  0  0
   13.0859   -0.4953    3.3858 C   0  0  0  0  0  0  0  0  0  0  0  0
   12.3089   -0.2399    2.0857 C   0  0  0  0  0  0  0  0  0  0  0  0
   11.5255   -1.4733    1.5993 C   0  0  0  0  0  0  0  0  0  0  0  0
   10.8527   -1.2547    0.2386 C   0  0  0  0  0  0  0  0  0  0  0  0
    9.8422   -0.1008    0.2376 C   0  0  0  0  0  0  0  0  0  0  0  0
    9.2326    0.1326   -1.1482 C   0  0  0  0  0  0  0  0  0  0  0  0
    8.3807   -1.0306   -1.6923 C   0  0  0  0  0  0  0  0  0  0  0  0
    7.1653   -1.4101   -0.8181 C   0  0  0  0  0  0  0  0  0  0  0  0
    6.2253   -0.2397   -0.4683 C   0  0  0  0  0  0  0  0  0  0  0  0
    5.7516    0.5287   -1.7064 C   0  0  0  0  0  0  0  0  0  0  0  0
    4.8046    1.6746   -1.3383 C   0  0  0  0  0  0  0  0  0  0  0  0
    4.5390    2.5236   -2.5846 C   0  0  0  0  0  0  0  0  0  0  0  0
    3.5647    3.6949   -2.3484 C   0  0  0  0  0  0  0  0  0  0  0  0
    2.1078    3.3141   -1.9884 C   0  0  0  0  0  0  0  0  0  0  0  0
    1.3927    2.5176   -3.0608 C   0  0  0  0  0  0  0  0  0  0  0  0
    2.0066    2.1405   -4.0491 O   0  0  0  0  0  0  0  0  0  0  0  0
    0.0612    2.2385   -2.9587 N   0  0  0  0  0  0  0  0  0  0  0  0
   -0.5697    1.4380   -3.9941 C   0  0  0  0  0  0  0  0  0  0  0  0
   -2.1069    1.3554   -3.9424 C   0  0  1  0  0  0  0  0  0  0  0  0
   -2.5255    0.6918   -5.1131 O   0  0  0  0  0  0  0  0  0  0  0  0
   -2.7779    0.7010   -2.7422 C   0  0  0  0  0  0  0  0  0  0  0  0
   -2.1070    0.2930   -1.5726 C   0  0  0  0  0  0  0  0  0  0  0  0
   -2.8196   -0.3058   -0.5208 C   0  0  0  0  0  0  0  0  0  0  0  0
   -1.8879   -0.8137    1.0721 Br  0  0  0  0  0  0  0  0  0  0  0  0
   -4.2062   -0.5241   -0.6318 C   0  0  0  0  0  0  0  0  0  0  0  0
   -4.8815   -1.1136    0.3754 O   0  0  0  0  0  0  0  0  0  0  0  0
   -5.6685   -0.3989    1.2513 C   0  0  0  0  0  0  0  0  0  0  0  0
   -6.3546   -1.3404    2.2435 C   0  0  0  0  0  0  0  0  0  0  0  0
   -7.3274   -2.3161    1.5605 C   0  0  0  0  0  0  0  0  0  0  0  0
   -8.4024   -1.6346    0.8562 N   0  0  0  0  0  0  0  0  0  0  0  0
   -9.3606   -0.8873    1.4774 C   0  0  0  0  0  0  0  0  0  0  0  0
   -9.3443   -0.7366    2.6899 O   0  0  0  0  0  0  0  0  0  0  0  0
  -10.4713   -0.3021    0.6926 C   0  0  0  0  0  0  0  0  0  0  0  0
  -10.5150   -0.3364   -0.5839 N   0  0  0  0  0  0  0  0  0  0  0  0
  -11.6223    0.2123   -1.0413 O   0  0  0  0  0  0  0  0  0  0  0  0
  -12.5640    0.3660   -0.0449 C   0  0  2  0  0  0  0  0  0  0  0  0
  -13.4581   -0.8762   -0.1580 C   0  0  0  0  0  0  0  0  0  0  0  0
  -14.4529   -1.0904    0.9406 C   0  0  0  0  0  0  0  0  0  0  0  0
  -14.4634   -2.8530    1.7302 Br  0  0  0  0  0  0  0  0  0  0  0  0
  -15.3437   -0.1695    1.3597 C   0  0  0  0  0  0  0  0  0  0  0  0
  -16.2841   -0.5609    2.2560 O   0  0  0  0  0  0  0  0  0  0  0  0
  -17.4593   -1.1629    1.8447 C   0  0  0  0  0  0  0  0  0  0  0  0
  -15.3919    1.2572    0.9134 C   0  0  0  0  0  0  0  0  0  0  0  0
  -16.9350    2.2745    1.4595 Br  0  0  0  0  0  0  0  0  0  0  0  0
  -14.4756    1.9540    0.2071 C   0  0  0  0  0  0  0  0  0  0  0  0
  -13.2743    1.5268   -0.2682 O   0  0  0  0  0  0  0  0  0  0  0  0
  -11.6613    0.4471    1.2155 C   0  0  1  0  0  0  0  0  0  0  0  0
  -12.2548   -0.0623    2.3841 O   0  0  0  0  0  0  0  0  0  0  0  0
   -4.8697   -0.1330   -1.8073 C   0  0  0  0  0  0  0  0  0  0  0  0
   -6.7375   -0.4530   -2.0733 Br  0  0  0  0  0  0  0  0  0  0  0  0
   -4.1616    0.4834   -2.8349 C   0  0  0  0  0  0  0  0  0  0  0  0
   16.2770   -1.5196    0.5790 H   0  0  0  0  0  0  0  0  0  0  0  0
   14.7630   -0.6261    0.6222 H   0  0  0  0  0  0  0  0  0  0  0  0
   14.7320   -2.4350    0.7279 H   0  0  0  0  0  0  0  0  0  0  0  0
   15.9242   -0.5129    2.8534 H   0  0  0  0  0  0  0  0  0  0  0  0
   16.0772   -2.3022    2.8313 H   0  0  0  0  0  0  0  0  0  0  0  0
   14.4564   -1.7336    4.4391 H   0  0  0  0  0  0  0  0  0  0  0  0
   13.6431   -2.6109    3.1275 H   0  0  0  0  0  0  0  0  0  0  0  0
   13.5905    0.4458    3.6942 H   0  0  0  0  0  0  0  0  0  0  0  0
   12.3306   -0.7394    4.1653 H   0  0  0  0  0  0  0  0  0  0  0  0
   12.9764    0.1280    1.2954 H   0  0  0  0  0  0  0  0  0  0  0  0
   11.5992    0.5866    2.2967 H   0  0  0  0  0  0  0  0  0  0  0  0
   10.7667   -1.7573    2.3609 H   0  0  0  0  0  0  0  0  0  0  0  0
   12.2179   -2.3273    1.4584 H   0  0  0  0  0  0  0  0  0  0  0  0
   10.3399   -2.2012   -0.0331 H   0  0  0  0  0  0  0  0  0  0  0  0
   11.6392   -1.0520   -0.5216 H   0  0  0  0  0  0  0  0  0  0  0  0
   10.3610    0.8423    0.5035 H   0  0  0  0  0  0  0  0  0  0  0  0
    9.0475   -0.2814    0.9918 H   0  0  0  0  0  0  0  0  0  0  0  0
   10.0508    0.3407   -1.8718 H   0  0  0  0  0  0  0  0  0  0  0  0
    8.6138    1.0513   -1.0950 H   0  0  0  0  0  0  0  0  0  0  0  0
    9.0083   -1.9335   -1.8419 H   0  0  0  0  0  0  0  0  0  0  0  0
    8.0217   -0.7399   -2.7020 H   0  0  0  0  0  0  0  0  0  0  0  0
    7.5150   -1.8668    0.1326 H   0  0  0  0  0  0  0  0  0  0  0  0
    6.5891   -2.1874   -1.3656 H   0  0  0  0  0  0  0  0  0  0  0  0
    6.7513    0.4658    0.2101 H   0  0  0  0  0  0  0  0  0  0  0  0
    5.3494   -0.6465    0.0824 H   0  0  0  0  0  0  0  0  0  0  0  0
    5.2441   -0.1625   -2.4142 H   0  0  0  0  0  0  0  0  0  0  0  0
    6.6329    0.9689   -2.2158 H   0  0  0  0  0  0  0  0  0  0  0  0
    5.2708    2.3250   -0.5657 H   0  0  0  0  0  0  0  0  0  0  0  0
    3.8647    1.2441   -0.9332 H   0  0  0  0  0  0  0  0  0  0  0  0
    4.1960    1.8687   -3.4058 H   0  0  0  0  0  0  0  0  0  0  0  0
    5.5083    2.9584   -2.9162 H   0  0  0  0  0  0  0  0  0  0  0  0
    3.5355    4.3041   -3.2783 H   0  0  0  0  0  0  0  0  0  0  0  0
    3.9775    4.3383   -1.5411 H   0  0  0  0  0  0  0  0  0  0  0  0
    1.5518    4.2644   -1.8457 H   0  0  0  0  0  0  0  0  0  0  0  0
    2.0769    2.7541   -1.0298 H   0  0  0  0  0  0  0  0  0  0  0  0
   -0.4860    2.6131   -2.1691 H   0  0  0  0  0  0  0  0  0  0  0  0
   -0.1328    0.4153   -3.9810 H   0  0  0  0  0  0  0  0  0  0  0  0
   -0.3331    1.9046   -4.9775 H   0  0  0  0  0  0  0  0  0  0  0  0
   -2.5021    2.3927   -4.0026 H   0  0  0  0  0  0  0  0  0  0  0  0
   -2.2197   -0.2514   -5.0485 H   0  0  0  0  0  0  0  0  0  0  0  0
   -1.0445    0.4400   -1.4564 H   0  0  0  0  0  0  0  0  0  0  0  0
   -6.4357    0.1952    0.7100 H   0  0  0  0  0  0  0  0  0  0  0  0
   -5.0236    0.3086    1.8193 H   0  0  0  0  0  0  0  0  0  0  0  0
   -6.8955   -0.7358    2.9997 H   0  0  0  0  0  0  0  0  0  0  0  0
   -5.5764   -1.9270    2.7778 H   0  0  0  0  0  0  0  0  0  0  0  0
   -7.7646   -3.0022    2.3159 H   0  0  0  0  0  0  0  0  0  0  0  0
   -6.7556   -2.9363    0.8345 H   0  0  0  0  0  0  0  0  0  0  0  0
   -8.4642   -1.7807   -0.1618 H   0  0  0  0  0  0  0  0  0  0  0  0
  -12.8201   -1.7866   -0.2114 H   0  0  0  0  0  0  0  0  0  0  0  0
  -14.0117   -0.8079   -1.1177 H   0  0  0  0  0  0  0  0  0  0  0  0
  -18.0766   -1.4179    2.7291 H   0  0  0  0  0  0  0  0  0  0  0  0
  -17.2484   -2.0932    1.2750 H   0  0  0  0  0  0  0  0  0  0  0  0
  -18.0371   -0.4746    1.1914 H   0  0  0  0  0  0  0  0  0  0  0  0
  -14.7158    2.9890   -0.0152 H   0  0  0  0  0  0  0  0  0  0  0  0
  -11.2944    1.4809    1.4028 H   0  0  0  0  0  0  0  0  0  0  0  0
  -12.0450   -1.0291    2.4473 H   0  0  0  0  0  0  0  0  0  0  0  0
   -4.6968    0.7719   -3.7321 H   0  0  0  0  0  0  0  0  0  0  0  0
  1  2  1  0  0  0  0
  1 55  1  0  0  0  0
  1 56  1  0  0  0  0
  1 57  1  0  0  0  0
  2  3  1  0  0  0  0
  2 58  1  0  0  0  0
  2 59  1  0  0  0  0
  3  4  1  0  0  0  0
  3 60  1  0  0  0  0
  3 61  1  0  0  0  0
  4  5  1  0  0  0  0
  4 62  1  0  0  0  0
  4 63  1  0  0  0  0
  5  6  1  0  0  0  0
  5 64  1  0  0  0  0
  5 65  1  0  0  0  0
  6  7  1  0  0  0  0
  6 66  1  0  0  0  0
  6 67  1  0  0  0  0
  7  8  1  0  0  0  0
  7 68  1  0  0  0  0
  7 69  1  0  0  0  0
  8  9  1  0  0  0  0
  8 70  1  0  0  0  0
  8 71  1  0  0  0  0
  9 10  1  0  0  0  0
  9 72  1  0  0  0  0
  9 73  1  0  0  0  0
 10 11  1  0  0  0  0
 10 74  1  0  0  0  0
 10 75  1  0  0  0  0
 11 12  1  0  0  0  0
 11 76  1  0  0  0  0
 11 77  1  0  0  0  0
 12 13  1  0  0  0  0
 12 78  1  0  0  0  0
 12 79  1  0  0  0  0
 13 14  1  0  0  0  0
 13 80  1  0  0  0  0
 13 81  1  0  0  0  0
 14 15  1  0  0  0  0
 14 82  1  0  0  0  0
 14 83  1  0  0  0  0
 15 16  1  0  0  0  0
 15 84  1  0  0  0  0
 15 85  1  0  0  0  0
 16 17  1  0  0  0  0
 16 86  1  0  0  0  0
 16 87  1  0  0  0  0
 17 18  1  0  0  0  0
 17 88  1  0  0  0  0
 17 89  1  0  0  0  0
 18 19  2  0  0  0  0
 18 20  1  0  0  0  0
 20 21  1  0  0  0  0
 20 90  1  0  0  0  0
 21 22  1  0  0  0  0
 21 91  1  0  0  0  0
 21 92  1  0  0  0  0
 22 23  1  0  0  0  0
 22 24  1  0  0  0  0
 22 93  1  6  0  0  0
 23 94  1  0  0  0  0
 24 25  2  0  0  0  0
 25 26  1  0  0  0  0
 25 95  1  0  0  0  0
 26 27  1  0  0  0  0
 26 28  2  0  0  0  0
 28 29  1  0  0  0  0
 28 52  1  0  0  0  0
 29 30  1  0  0  0  0
 30 31  1  0  0  0  0
 30 96  1  0  0  0  0
 30 97  1  0  0  0  0
 31 32  1  0  0  0  0
 31 98  1  0  0  0  0
 31 99  1  0  0  0  0
 32 33  1  0  0  0  0
 32100  1  0  0  0  0
 32101  1  0  0  0  0
 33 34  1  0  0  0  0
 33102  1  0  0  0  0
 34 35  2  0  0  0  0
 34 36  1  0  0  0  0
 36 37  2  0  0  0  0
 37 38  1  0  0  0  0
 39 38  1  6  0  0  0
 39 40  1  0  0  0  0
 39 50  1  0  0  0  0
 40 41  1  0  0  0  0
 40103  1  0  0  0  0
 40104  1  0  0  0  0
 41 42  1  0  0  0  0
 41 43  2  0  0  0  0
 43 44  1  0  0  0  0
 43 46  1  0  0  0  0
 44 45  1  0  0  0  0
 45105  1  0  0  0  0
 45106  1  0  0  0  0
 45107  1  0  0  0  0
 46 47  1  0  0  0  0
 46 48  2  0  0  0  0
 48 49  1  0  0  0  0
 48108  1  0  0  0  0
 49 39  1  0  0  0  0
 50 51  1  0  0  0  0
 50 36  1  0  0  0  0
 50109  1  1  0  0  0
 51110  1  0  0  0  0
 52 53  1  0  0  0  0
 52 54  2  0  0  0  0
 54 24  1  0  0  0  0
 54111  1  0  0  0  0
M  END
>  <IDENTIFIER>
CNP0221576.1

>  <Energy>
867.796

$$$$
