
 OpenBabel09102522122D

 81 84  0  0  0  0  0  0  0  0999 V2000
   -3.3496  -11.8285    0.0000 C   0  0  0  0  0  0  0  0  0  0  0  0
   -2.4679  -10.6150    0.0000 C   0  0  0  0  0  0  0  0  0  0  0  0
   -2.5845   -9.2760    1.2949 C   0  0  0  0  0  0  0  0  0  0  0  0
   -1.5821   -8.0232    2.1587 C   0  0  0  0  0  0  0  0  0  0  0  0
   -0.6208   -8.5310    2.7149 O   0  0  0  0  0  0  0  0  0  0  0  0
   -1.6409   -6.4692    2.2844 O   0  0  0  0  0  0  0  0  0  0  0  0
   -0.9201   -5.0781    1.8748 C   0  0  1  0  0  0  0  0  0  0  0  0
   -2.0185   -3.9641    1.4731 C   0  0  0  0  0  0  0  0  0  0  0  0
   -2.7413   -3.9271    0.0000 C   0  0  0  0  0  0  0  0  0  0  0  0
   -4.1679   -4.3906    0.0000 C   0  0  0  0  0  0  0  0  0  0  0  0
   -2.5326   -2.7841   -0.7765 C   0  0  0  0  0  0  0  0  0  0  0  0
   -1.9136   -1.3742   -0.3413 C   0  0  2  0  0  0  0  0  0  0  0  0
   -2.1779   -0.4304   -1.2886 O   0  0  0  0  0  0  0  0  0  0  0  0
   -1.5404    0.7385   -1.0813 C   0  0  0  0  0  0  0  0  0  0  0  0
   -1.8354    1.7131   -1.7601 O   0  0  0  0  0  0  0  0  0  0  0  0
   -0.4330    0.7500    0.0000 C   0  0  1  0  0  0  0  0  0  0  0  0
    0.1771    2.1203    0.0000 C   0  0  0  0  0  0  0  0  0  0  0  0
   -0.9022    0.3245    1.2489 O   0  0  0  0  0  0  0  0  0  0  0  0
   -0.6195   -0.8104    0.3901 C   0  0  2  0  0  0  0  0  0  0  0  0
    0.7768   -1.2521    0.1054 C   0  0  1  0  0  0  0  0  0  0  0  0
    1.4007   -0.2942    0.8737 O   0  0  0  0  0  0  0  0  0  0  0  0
    2.7320    0.7172    0.0000 C   0  0  0  0  0  0  0  0  0  0  0  0
    4.1586    1.1807    0.0000 C   0  0  0  0  0  0  0  0  0  0  0  0
    2.2075    2.1196    0.6261 O   0  0  0  0  0  0  0  0  0  0  0  0
    1.8452   -2.3870   -0.3431 C   0  0  1  0  0  0  0  0  0  0  0  0
    3.1743   -1.6771    0.0000 C   0  0  0  0  0  0  0  0  0  0  0  0
    3.1743   -0.1771    0.0000 C   0  0  0  0  0  0  0  0  0  0  0  0
    4.2376   -2.2669    0.6546 C   0  0  0  0  0  0  0  0  0  0  0  0
    4.4596   -3.7218    0.8286 C   0  0  0  0  0  0  0  0  0  0  0  0
    3.6560   -4.4566   -0.2110 C   0  0  2  0  0  0  0  0  0  0  0  0
    4.2936   -5.9114   -0.3715 O   0  0  0  0  0  0  0  0  0  0  0  0
    3.6254   -7.2357    0.0000 C   0  0  0  0  0  0  0  0  0  0  0  0
    4.5896   -8.3847    0.0000 C   0  0  0  0  0  0  0  0  0  0  0  0
    3.3727   -7.2974    1.2955 O   0  0  0  0  0  0  0  0  0  0  0  0
    1.8752   -3.9271    0.0000 C   0  0  1  0  0  0  0  0  0  0  0  0
    2.1871   -5.3943    0.0000 C   0  0  0  0  0  0  0  0  0  0  0  0
    0.6207   -5.1189    1.1769 C   0  0  1  0  0  0  0  0  0  0  0  0
    0.5266   -6.6468    0.8865 O   0  0  0  0  0  0  0  0  0  0  0  0
   -0.3055   -7.3906    0.0000 C   0  0  0  0  0  0  0  0  0  0  0  0
   -1.6045   -6.6406    0.0000 C   0  0  0  0  0  0  0  0  0  0  0  0
   -0.1179   -8.5643   -0.2857 O   0  0  0  0  0  0  0  0  0  0  0  0
   -4.2949  -11.2562   -0.1124 H   0  0  0  0  0  0  0  0  0  0  0  0
   -3.1794  -12.0878    1.0677 H   0  0  0  0  0  0  0  0  0  0  0  0
   -3.9785  -12.6941    0.0000 H   0  0  0  0  0  0  0  0  0  0  0  0
   -2.4364  -10.1512   -1.0091 H   0  0  0  0  0  0  0  0  0  0  0  0
   -1.4512  -11.0385    0.1571 H   0  0  0  0  0  0  0  0  0  0  0  0
   -3.5110   -8.7362    1.0102 H   0  0  0  0  0  0  0  0  0  0  0  0
   -2.8740   -9.8900    2.1728 H   0  0  0  0  0  0  0  0  0  0  0  0
   -0.7622   -4.8142    0.8310 H   0  0  0  0  0  0  0  0  0  0  0  0
   -2.8018   -4.0254    2.2587 H   0  0  0  0  0  0  0  0  0  0  0  0
   -1.5428   -2.9788    1.6634 H   0  0  0  0  0  0  0  0  0  0  0  0
   -4.5959   -3.4787    0.4751 H   0  0  0  0  0  0  0  0  0  0  0  0
   -4.1254   -5.1513    0.8049 H   0  0  0  0  0  0  0  0  0  0  0  0
   -5.1855   -4.7212    0.0000 H   0  0  0  0  0  0  0  0  0  0  0  0
   -3.2182   -2.6632   -1.6135 H   0  0  0  0  0  0  0  0  0  0  0  0
   -2.6606   -1.1497    0.4544 H   0  0  0  0  0  0  0  0  0  0  0  0
   -0.7432    2.6922    0.2580 H   0  0  0  0  0  0  0  0  0  0  0  0
    0.4651    2.1528   -1.0783 H   0  0  0  0  0  0  0  0  0  0  0  0
    0.6123    3.0978    0.0000 H   0  0  0  0  0  0  0  0  0  0  0  0
    0.8150   -0.8537   -0.9443 H   0  0  0  0  0  0  0  0  0  0  0  0
    4.4575    1.6076    1.0902 H   0  0  0  0  0  0  0  0  0  0  0  0
    4.2971    2.0366   -0.8438 H   0  0  0  0  0  0  0  0  0  0  0  0
    5.1762    1.5113    0.0000 H   0  0  0  0  0  0  0  0  0  0  0  0
    1.8177   -2.4844   -1.4591 H   0  0  0  0  0  0  0  0  0  0  0  0
    3.9934   -0.6820   -0.9309 H   0  0  0  0  0  0  0  0  0  0  0  0
    3.3719   -0.6835   -1.2685 H   0  0  0  0  0  0  0  0  0  0  0  0
    3.1743    0.8929    0.0000 H   0  0  0  0  0  0  0  0  0  0  0  0
    5.0376   -1.6307    1.0288 H   0  0  0  0  0  0  0  0  0  0  0  0
    5.5309   -3.9190    0.6050 H   0  0  0  0  0  0  0  0  0  0  0  0
    4.2458   -4.0522    1.8665 H   0  0  0  0  0  0  0  0  0  0  0  0
    3.9362   -3.9823   -1.1896 H   0  0  0  0  0  0  0  0  0  0  0  0
    4.0534   -8.9508   -0.7903 H   0  0  0  0  0  0  0  0  0  0  0  0
    5.4696   -7.8567   -0.4237 H   0  0  0  0  0  0  0  0  0  0  0  0
    5.2774   -9.2043    0.0000 H   0  0  0  0  0  0  0  0  0  0  0  0
    2.0474   -5.6140   -1.1395 H   0  0  0  0  0  0  0  0  0  0  0  0
    1.4403   -5.5804   -0.8542 H   0  0  0  0  0  0  0  0  0  0  0  0
    2.4096   -6.4409    0.0000 H   0  0  0  0  0  0  0  0  0  0  0  0
    1.1886   -5.0714    2.1468 H   0  0  0  0  0  0  0  0  0  0  0  0
   -1.3166   -6.0030   -0.8665 H   0  0  0  0  0  0  0  0  0  0  0  0
   -2.2104   -7.4346   -0.4806 H   0  0  0  0  0  0  0  0  0  0  0  0
   -2.5311   -6.1056    0.0000 H   0  0  0  0  0  0  0  0  0  0  0  0
  1  2  1  0  0  0  0
  1 42  1  0  0  0  0
  1 43  1  0  0  0  0
  1 44  1  0  0  0  0
  2  3  1  0  0  0  0
  2 45  1  0  0  0  0
  2 46  1  0  0  0  0
  3  4  1  0  0  0  0
  3 47  1  0  0  0  0
  3 48  1  0  0  0  0
  4  5  2  0  0  0  0
  4  6  1  0  0  0  0
  7  6  1  0  0  0  0
  7  8  1  0  0  0  0
  7 49  1  6  0  0  0
  8  9  1  0  0  0  0
  8 50  1  0  0  0  0
  8 51  1  0  0  0  0
  9 10  1  0  0  0  0
  9 11  2  0  0  0  0
 10 52  1  0  0  0  0
 10 53  1  0  0  0  0
 10 54  1  0  0  0  0
 11 12  1  0  0  0  0
 11 55  1  0  0  0  0
 12 13  1  0  0  0  0
 12 56  1  1  0  0  0
 13 14  1  0  0  0  0
 14 15  2  0  0  0  0
 14 16  1  0  0  0  0
 16 17  1  6  0  0  0
 16 18  1  0  0  0  0
 17 57  1  0  0  0  0
 17 58  1  0  0  0  0
 17 59  1  0  0  0  0
 19 18  1  6  0  0  0
 19 20  1  0  0  0  0
 19 12  1  0  0  0  0
 19 16  1  0  0  0  0
 20 21  1  0  0  0  0
 20 25  1  0  0  0  0
 20 60  1  6  0  0  0
 21 22  1  0  0  0  0
 22 23  1  0  0  0  0
 22 24  2  0  0  0  0
 23 61  1  0  0  0  0
 23 62  1  0  0  0  0
 23 63  1  0  0  0  0
 25 26  1  0  0  0  0
 25 64  1  6  0  0  0
 26 27  1  0  0  0  0
 26 28  2  0  0  0  0
 27 65  1  0  0  0  0
 27 66  1  0  0  0  0
 27 67  1  0  0  0  0
 28 29  1  0  0  0  0
 28 68  1  0  0  0  0
 29 30  1  0  0  0  0
 29 69  1  0  0  0  0
 29 70  1  0  0  0  0
 30 31  1  0  0  0  0
 30 35  1  0  0  0  0
 30 71  1  1  0  0  0
 31 32  1  0  0  0  0
 32 33  1  0  0  0  0
 32 34  2  0  0  0  0
 33 72  1  0  0  0  0
 33 73  1  0  0  0  0
 33 74  1  0  0  0  0
 35 36  1  1  0  0  0
 35 37  1  0  0  0  0
 35 25  1  0  0  0  0
 36 75  1  0  0  0  0
 36 76  1  0  0  0  0
 36 77  1  0  0  0  0
 37 38  1  0  0  0  0
 37  7  1  0  0  0  0
 37 78  1  6  0  0  0
 38 39  1  0  0  0  0
 39 40  1  0  0  0  0
 39 41  2  0  0  0  0
 40 79  1  0  0  0  0
 40 80  1  0  0  0  0
 40 81  1  0  0  0  0
M  END
>  <IDENTIFIER>
CNP0133915.2

>  <Energy>
3.97722e+09

$$$$
