
 OpenBabel09072504283D

111112  0  0  0  0  0  0  0  0999 V2000
   12.0169    0.3163   -0.1746 C   0  0  0  0  0  0  0  0  0  0  0  0
   11.3703    0.0277   -1.5278 C   0  0  0  0  0  0  0  0  0  0  0  0
   11.3434   -1.4746   -1.8844 C   0  0  0  0  0  0  0  0  0  0  0  0
   10.7217   -2.4714   -0.8730 C   0  0  0  0  0  0  0  0  0  0  0  0
    9.1916   -2.4607   -0.6696 C   0  0  0  0  0  0  0  0  0  0  0  0
    8.6638   -1.2235    0.0564 C   0  0  0  0  0  0  0  0  0  0  0  0
    7.1719   -1.3346    0.3869 C   0  0  0  0  0  0  0  0  0  0  0  0
    6.6604   -0.0803    1.1213 C   0  0  0  0  0  0  0  0  0  0  0  0
    6.7643    1.2342    0.3122 C   0  0  0  0  0  0  0  0  0  0  0  0
    5.9789    1.2373   -1.0185 C   0  0  0  0  0  0  0  0  0  0  0  0
    4.4785    0.9331   -0.8653 C   0  0  0  0  0  0  0  0  0  0  0  0
    3.7685    1.9567    0.0388 C   0  0  0  0  0  0  0  0  0  0  0  0
    2.2588    1.7388    0.2109 C   0  0  0  0  0  0  0  0  0  0  0  0
    1.8299    0.6436    1.2188 C   0  0  0  0  0  0  0  0  0  0  0  0
    2.0910   -0.8220    0.8446 C   0  0  0  0  0  0  0  0  0  0  0  0
    1.5718   -1.3121   -0.5279 C   0  0  0  0  0  0  0  0  0  0  0  0
    0.0427   -1.3016   -0.7128 C   0  0  0  0  0  0  0  0  0  0  0  0
   -0.5527    0.0603   -1.1170 C   0  0  0  0  0  0  0  0  0  0  0  0
   -1.9949   -0.0265   -1.2029 N   0  0  0  0  0  0  0  0  0  0  0  0
   -2.7629    1.0522   -1.5331 C   0  0  0  0  0  0  0  0  0  0  0  0
   -2.2325    2.1116   -1.8403 O   0  0  0  0  0  0  0  0  0  0  0  0
   -4.2777    0.9726   -1.4840 C   0  0  1  0  0  0  0  0  0  0  0  0
   -4.6747   -0.3713   -1.1895 O   0  0  0  0  0  0  0  0  0  0  0  0
   -5.2179   -0.5316    0.1069 C   0  0  2  0  0  0  0  0  0  0  0  0
   -5.4434   -1.9176    0.3322 O   0  0  0  0  0  0  0  0  0  0  0  0
   -4.6938   -2.3764    1.4439 C   0  0  0  0  0  0  0  0  0  0  0  0
   -4.6899   -3.8774    1.4774 C   0  0  0  0  0  0  0  0  0  0  0  0
   -5.2854   -4.5685    2.5456 C   0  0  0  0  0  0  0  0  0  0  0  0
   -5.2673   -5.9657    2.5779 C   0  0  0  0  0  0  0  0  0  0  0  0
   -4.6482   -6.6827    1.5506 C   0  0  0  0  0  0  0  0  0  0  0  0
   -4.0481   -6.0031    0.4866 C   0  0  0  0  0  0  0  0  0  0  0  0
   -4.0698   -4.6047    0.4466 C   0  0  0  0  0  0  0  0  0  0  0  0
   -6.5415    0.2611    0.1910 C   0  0  2  0  0  0  0  0  0  0  0  0
   -7.5006   -0.2787   -0.7662 N   0  0  0  0  0  0  0  0  0  0  0  0
   -8.7469   -0.7111   -0.4282 C   0  0  0  0  0  0  0  0  0  0  0  0
   -9.6870   -1.2160   -1.4860 C   0  0  0  0  0  0  0  0  0  0  0  0
   -9.1280   -0.6760    0.7327 O   0  0  0  0  0  0  0  0  0  0  0  0
   -6.2971    1.7670   -0.1432 C   0  0  1  0  0  0  0  0  0  0  0  0
   -6.6215    2.5582    0.9907 O   0  0  0  0  0  0  0  0  0  0  0  0
   -7.8295    3.2896    0.8666 C   0  0  2  0  0  0  0  0  0  0  0  0
   -7.4809    4.7773    0.9140 C   0  0  0  0  0  0  0  0  0  0  0  0
   -8.7574    2.9267    2.0044 C   0  0  0  0  0  0  0  0  0  0  0  0
   -8.4184    2.0967    2.8348 O   0  0  0  0  0  0  0  0  0  0  0  0
   -9.9739    3.5033    2.1133 O   0  0  0  0  0  0  0  0  0  0  0  0
   -4.8227    2.0453   -0.4877 C   0  0  2  0  0  0  0  0  0  0  0  0
   -4.7174    3.3119   -1.0428 O   0  0  0  0  0  0  0  0  0  0  0  0
   -4.0333    4.3653   -0.5307 C   0  0  0  0  0  0  0  0  0  0  0  0
   -4.0585    5.6712   -1.2555 C   0  0  0  0  0  0  0  0  0  0  0  0
   -3.4062    4.2660    0.5154 O   0  0  0  0  0  0  0  0  0  0  0  0
   12.0534    1.4140   -0.0088 H   0  0  0  0  0  0  0  0  0  0  0  0
   13.0514   -0.0840   -0.1465 H   0  0  0  0  0  0  0  0  0  0  0  0
   11.4275   -0.1323    0.6509 H   0  0  0  0  0  0  0  0  0  0  0  0
   11.9603    0.5478   -2.3141 H   0  0  0  0  0  0  0  0  0  0  0  0
   10.3709    0.4848   -1.5711 H   0  0  0  0  0  0  0  0  0  0  0  0
   12.4068   -1.7804   -1.9978 H   0  0  0  0  0  0  0  0  0  0  0  0
   10.8557   -1.6030   -2.8749 H   0  0  0  0  0  0  0  0  0  0  0  0
   11.2339   -2.3942    0.1092 H   0  0  0  0  0  0  0  0  0  0  0  0
   10.9569   -3.4822   -1.2731 H   0  0  0  0  0  0  0  0  0  0  0  0
    8.9519   -3.3433   -0.0356 H   0  0  0  0  0  0  0  0  0  0  0  0
    8.6737   -2.5883   -1.6452 H   0  0  0  0  0  0  0  0  0  0  0  0
    8.7914   -0.3585   -0.5957 H   0  0  0  0  0  0  0  0  0  0  0  0
    9.2264   -1.0812    1.0045 H   0  0  0  0  0  0  0  0  0  0  0  0
    7.0169   -2.2123    1.0518 H   0  0  0  0  0  0  0  0  0  0  0  0
    6.5822   -1.5044   -0.5387 H   0  0  0  0  0  0  0  0  0  0  0  0
    7.2389    0.0427    2.0624 H   0  0  0  0  0  0  0  0  0  0  0  0
    5.6036   -0.2477    1.4160 H   0  0  0  0  0  0  0  0  0  0  0  0
    7.8254    1.4712    0.0954 H   0  0  0  0  0  0  0  0  0  0  0  0
    6.4078    2.0641    0.9547 H   0  0  0  0  0  0  0  0  0  0  0  0
    6.4200    0.4882   -1.7103 H   0  0  0  0  0  0  0  0  0  0  0  0
    6.1008    2.2337   -1.4957 H   0  0  0  0  0  0  0  0  0  0  0  0
    4.3817   -0.0938   -0.4958 H   0  0  0  0  0  0  0  0  0  0  0  0
    4.0093    0.9589   -1.8731 H   0  0  0  0  0  0  0  0  0  0  0  0
    3.9054    2.9461   -0.4512 H   0  0  0  0  0  0  0  0  0  0  0  0
    4.2179    2.0088    1.0504 H   0  0  0  0  0  0  0  0  0  0  0  0
    1.7782    1.6182   -0.7807 H   0  0  0  0  0  0  0  0  0  0  0  0
    1.8697    2.6853    0.6465 H   0  0  0  0  0  0  0  0  0  0  0  0
    0.7461    0.7492    1.4130 H   0  0  0  0  0  0  0  0  0  0  0  0
    2.3161    0.8457    2.1982 H   0  0  0  0  0  0  0  0  0  0  0  0
    1.6386   -1.4559    1.6387 H   0  0  0  0  0  0  0  0  0  0  0  0
    3.1738   -1.0248    0.9072 H   0  0  0  0  0  0  0  0  0  0  0  0
    1.8821   -2.3791   -0.5773 H   0  0  0  0  0  0  0  0  0  0  0  0
    2.0683   -0.7922   -1.3741 H   0  0  0  0  0  0  0  0  0  0  0  0
   -0.4379   -1.7022    0.2069 H   0  0  0  0  0  0  0  0  0  0  0  0
   -0.2002   -1.9927   -1.5502 H   0  0  0  0  0  0  0  0  0  0  0  0
   -0.1302    0.3667   -2.0985 H   0  0  0  0  0  0  0  0  0  0  0  0
   -0.3258    0.8398   -0.3788 H   0  0  0  0  0  0  0  0  0  0  0  0
   -2.4411   -0.9209   -0.9547 H   0  0  0  0  0  0  0  0  0  0  0  0
   -4.6986    1.2011   -2.4868 H   0  0  0  0  0  0  0  0  0  0  0  0
   -4.5077   -0.1104    0.8611 H   0  0  0  0  0  0  0  0  0  0  0  0
   -5.1464   -1.9704    2.3761 H   0  0  0  0  0  0  0  0  0  0  0  0
   -3.6244   -2.0618    1.3844 H   0  0  0  0  0  0  0  0  0  0  0  0
   -5.7655   -4.0275    3.3514 H   0  0  0  0  0  0  0  0  0  0  0  0
   -5.7313   -6.4922    3.4017 H   0  0  0  0  0  0  0  0  0  0  0  0
   -4.6321   -7.7644    1.5803 H   0  0  0  0  0  0  0  0  0  0  0  0
   -3.5640   -6.5600   -0.3051 H   0  0  0  0  0  0  0  0  0  0  0  0
   -3.5961   -4.0887   -0.3800 H   0  0  0  0  0  0  0  0  0  0  0  0
   -6.9246    0.1705    1.2320 H   0  0  0  0  0  0  0  0  0  0  0  0
   -7.2258   -0.2980   -1.7613 H   0  0  0  0  0  0  0  0  0  0  0  0
   -9.2117   -1.2035   -2.4894 H   0  0  0  0  0  0  0  0  0  0  0  0
  -10.5886   -0.5685   -1.5175 H   0  0  0  0  0  0  0  0  0  0  0  0
   -9.9911   -2.2559   -1.2505 H   0  0  0  0  0  0  0  0  0  0  0  0
   -6.8619    2.0323   -1.0688 H   0  0  0  0  0  0  0  0  0  0  0  0
   -8.3861    3.0867   -0.0766 H   0  0  0  0  0  0  0  0  0  0  0  0
   -6.9538    5.0171    1.8636 H   0  0  0  0  0  0  0  0  0  0  0  0
   -8.3907    5.4074    0.8379 H   0  0  0  0  0  0  0  0  0  0  0  0
   -6.8123    5.0312    0.0656 H   0  0  0  0  0  0  0  0  0  0  0  0
  -10.2915    4.1542    1.4727 H   0  0  0  0  0  0  0  0  0  0  0  0
   -4.2418    1.9737    0.4602 H   0  0  0  0  0  0  0  0  0  0  0  0
   -4.6752    5.5863   -2.1774 H   0  0  0  0  0  0  0  0  0  0  0  0
   -3.0273    5.9655   -1.5390 H   0  0  0  0  0  0  0  0  0  0  0  0
   -4.5006    6.4539   -0.6032 H   0  0  0  0  0  0  0  0  0  0  0  0
  1  2  1  0  0  0  0
  1 50  1  0  0  0  0
  1 51  1  0  0  0  0
  1 52  1  0  0  0  0
  2  3  1  0  0  0  0
  2 53  1  0  0  0  0
  2 54  1  0  0  0  0
  3  4  1  0  0  0  0
  3 55  1  0  0  0  0
  3 56  1  0  0  0  0
  4  5  1  0  0  0  0
  4 57  1  0  0  0  0
  4 58  1  0  0  0  0
  5  6  1  0  0  0  0
  5 59  1  0  0  0  0
  5 60  1  0  0  0  0
  6  7  1  0  0  0  0
  6 61  1  0  0  0  0
  6 62  1  0  0  0  0
  7  8  1  0  0  0  0
  7 63  1  0  0  0  0
  7 64  1  0  0  0  0
  8  9  1  0  0  0  0
  8 65  1  0  0  0  0
  8 66  1  0  0  0  0
  9 10  1  0  0  0  0
  9 67  1  0  0  0  0
  9 68  1  0  0  0  0
 10 11  1  0  0  0  0
 10 69  1  0  0  0  0
 10 70  1  0  0  0  0
 11 12  1  0  0  0  0
 11 71  1  0  0  0  0
 11 72  1  0  0  0  0
 12 13  1  0  0  0  0
 12 73  1  0  0  0  0
 12 74  1  0  0  0  0
 13 14  1  0  0  0  0
 13 75  1  0  0  0  0
 13 76  1  0  0  0  0
 14 15  1  0  0  0  0
 14 77  1  0  0  0  0
 14 78  1  0  0  0  0
 15 16  1  0  0  0  0
 15 79  1  0  0  0  0
 15 80  1  0  0  0  0
 16 17  1  0  0  0  0
 16 81  1  0  0  0  0
 16 82  1  0  0  0  0
 17 18  1  0  0  0  0
 17 83  1  0  0  0  0
 17 84  1  0  0  0  0
 18 19  1  0  0  0  0
 18 85  1  0  0  0  0
 18 86  1  0  0  0  0
 19 20  1  0  0  0  0
 19 87  1  0  0  0  0
 20 21  2  0  0  0  0
 22 20  1  0  0  0  0
 22 23  1  0  0  0  0
 22 88  1  6  0  0  0
 23 24  1  0  0  0  0
 24 25  1  0  0  0  0
 24 33  1  0  0  0  0
 24 89  1  1  0  0  0
 25 26  1  0  0  0  0
 26 27  1  0  0  0  0
 26 90  1  0  0  0  0
 26 91  1  0  0  0  0
 27 28  2  0  0  0  0
 28 29  1  0  0  0  0
 28 92  1  0  0  0  0
 29 30  2  0  0  0  0
 29 93  1  0  0  0  0
 30 31  1  0  0  0  0
 30 94  1  0  0  0  0
 31 32  2  0  0  0  0
 31 95  1  0  0  0  0
 32 27  1  0  0  0  0
 32 96  1  0  0  0  0
 33 34  1  0  0  0  0
 33 38  1  0  0  0  0
 33 97  1  1  0  0  0
 34 35  1  0  0  0  0
 34 98  1  0  0  0  0
 35 36  1  0  0  0  0
 35 37  2  0  0  0  0
 36 99  1  0  0  0  0
 36100  1  0  0  0  0
 36101  1  0  0  0  0
 38 39  1  0  0  0  0
 38 45  1  0  0  0  0
 38102  1  6  0  0  0
 39 40  1  0  0  0  0
 40 41  1  0  0  0  0
 40 42  1  0  0  0  0
 40103  1  6  0  0  0
 41104  1  0  0  0  0
 41105  1  0  0  0  0
 41106  1  0  0  0  0
 42 43  2  0  0  0  0
 42 44  1  0  0  0  0
 44107  1  0  0  0  0
 45 46  1  0  0  0  0
 45 22  1  0  0  0  0
 45108  1  1  0  0  0
 46 47  1  0  0  0  0
 47 48  1  0  0  0  0
 47 49  2  0  0  0  0
 48109  1  0  0  0  0
 48110  1  0  0  0  0
 48111  1  0  0  0  0
M  END
>  <IDENTIFIER>
CNP0284774.1

>  <Energy>
670.058

$$$$
