
 OpenBabel09132504163D

 94 97  0  0  0  0  0  0  0  0999 V2000
    1.1942    0.1691   -1.1207 C   0  0  0  0  0  0  0  0  0  0  0  0
    0.6281   -0.5457   -0.1312 C   0  0  0  0  0  0  0  0  0  0  0  0
    1.4255   -1.7008    0.4609 C   0  0  1  0  0  0  0  0  0  0  0  0
    2.6413   -1.2615    0.9671 O   0  0  0  0  0  0  0  0  0  0  0  0
    3.8585   -1.6833    0.5235 C   0  0  0  0  0  0  0  0  0  0  0  0
    3.9452   -2.4792   -0.4021 O   0  0  0  0  0  0  0  0  0  0  0  0
    5.1201   -1.2498    1.2242 C   0  0  2  0  0  0  0  0  0  0  0  0
    4.8339   -0.4153    2.3214 O   0  0  0  0  0  0  0  0  0  0  0  0
    6.2059   -0.6869    0.2310 C   0  0  1  0  0  0  0  0  0  0  0  0
    5.8504    0.5410   -0.6189 C   0  0  0  0  0  0  0  0  0  0  0  0
    4.6401    1.2652   -0.5231 C   0  0  0  0  0  0  0  0  0  0  0  0
    4.4095    2.3796   -1.3382 C   0  0  0  0  0  0  0  0  0  0  0  0
    5.3722    2.7885   -2.2610 C   0  0  0  0  0  0  0  0  0  0  0  0
    6.5674    2.0804   -2.3780 C   0  0  0  0  0  0  0  0  0  0  0  0
    6.8037    0.9679   -1.5678 C   0  0  0  0  0  0  0  0  0  0  0  0
    7.5399   -0.4904    0.8667 N   0  0  0  0  0  0  0  0  0  0  0  0
    8.1262   -1.7261    1.4132 C   0  0  0  0  0  0  0  0  0  0  0  0
    7.6273    0.6105    1.8404 C   0  0  0  0  0  0  0  0  0  0  0  0
    0.7093   -2.5856    1.5321 C   0  0  0  0  0  0  0  0  0  0  0  0
   -0.8073   -2.3336    1.7964 C   0  0  2  0  0  0  0  0  0  0  0  0
   -1.4313   -3.4831    2.3250 O   0  0  0  0  0  0  0  0  0  0  0  0
   -1.5809   -1.6861    0.5766 C   0  0  2  0  0  0  0  0  0  0  0  0
   -1.4833   -2.7566   -0.5728 C   0  0  0  0  0  0  0  0  0  0  0  0
   -0.7722   -0.2662    0.3879 C   0  0  2  0  0  0  0  0  0  0  0  0
   -1.3884    1.1658    0.0345 C   0  0  0  0  0  0  0  0  0  0  0  0
   -2.0606    1.6583   -1.3030 C   0  0  2  0  0  0  0  0  0  0  0  0
   -2.8114    2.9960   -1.0595 C   0  0  0  0  0  0  0  0  0  0  0  0
   -4.0730    2.8379   -0.1481 C   0  0  2  0  0  0  0  0  0  0  0  0
   -3.7215    3.2953    1.1122 O   0  0  0  0  0  0  0  0  0  0  0  0
   -4.3096    4.3250    1.7797 C   0  0  0  0  0  0  0  0  0  0  0  0
   -3.9640    4.5625    3.2130 C   0  0  0  0  0  0  0  0  0  0  0  0
   -5.1439    5.0353    1.2389 O   0  0  0  0  0  0  0  0  0  0  0  0
   -4.5623    1.3841    0.0480 C   0  0  0  0  0  0  0  0  0  0  0  0
   -5.6116    1.2002    1.1333 C   0  0  0  0  0  0  0  0  0  0  0  0
   -4.0015    0.3155   -0.6273 C   0  0  0  0  0  0  0  0  0  0  0  0
   -4.2090   -1.1097   -0.0982 C   0  0  1  0  0  0  0  0  0  0  0  0
   -4.3656   -2.0277   -1.1232 O   0  0  0  0  0  0  0  0  0  0  0  0
   -5.4579   -2.8243   -1.3095 C   0  0  0  0  0  0  0  0  0  0  0  0
   -5.4538   -3.8563   -2.3887 C   0  0  0  0  0  0  0  0  0  0  0  0
   -6.4418   -2.7313   -0.5892 O   0  0  0  0  0  0  0  0  0  0  0  0
   -3.1215   -1.5725    0.9591 C   0  0  2  0  0  0  0  0  0  0  0  0
   -3.3044   -0.9213    2.1921 O   0  0  0  0  0  0  0  0  0  0  0  0
   -3.0966    0.6564   -1.8406 C   0  0  0  0  0  0  0  0  0  0  0  0
   -2.3070   -0.4326   -2.5935 C   0  0  0  0  0  0  0  0  0  0  0  0
   -4.0400    1.2129   -2.9608 C   0  0  0  0  0  0  0  0  0  0  0  0
    2.1920   -0.0724   -1.4736 H   0  0  0  0  0  0  0  0  0  0  0  0
    0.6984    0.9971   -1.6011 H   0  0  0  0  0  0  0  0  0  0  0  0
    1.5955   -2.3691   -0.4125 H   0  0  0  0  0  0  0  0  0  0  0  0
    5.5291   -2.1896    1.6452 H   0  0  0  0  0  0  0  0  0  0  0  0
    4.8141    0.5254    2.0230 H   0  0  0  0  0  0  0  0  0  0  0  0
    6.3407   -1.4919   -0.5274 H   0  0  0  0  0  0  0  0  0  0  0  0
    3.8583    0.9918    0.1643 H   0  0  0  0  0  0  0  0  0  0  0  0
    3.4803    2.9281   -1.2528 H   0  0  0  0  0  0  0  0  0  0  0  0
    5.1912    3.6517   -2.8884 H   0  0  0  0  0  0  0  0  0  0  0  0
    7.3136    2.3943   -3.0965 H   0  0  0  0  0  0  0  0  0  0  0  0
    7.7405    0.4351   -1.6777 H   0  0  0  0  0  0  0  0  0  0  0  0
    8.0470   -2.5561    0.6788 H   0  0  0  0  0  0  0  0  0  0  0  0
    7.6335   -2.0248    2.3628 H   0  0  0  0  0  0  0  0  0  0  0  0
    9.2062   -1.5700    1.6212 H   0  0  0  0  0  0  0  0  0  0  0  0
    7.2158    1.5501    1.4153 H   0  0  0  0  0  0  0  0  0  0  0  0
    8.6936    0.8059    2.0841 H   0  0  0  0  0  0  0  0  0  0  0  0
    7.1044    0.3648    2.7861 H   0  0  0  0  0  0  0  0  0  0  0  0
    1.2342   -2.5476    2.5129 H   0  0  0  0  0  0  0  0  0  0  0  0
    0.8616   -3.6320    1.1874 H   0  0  0  0  0  0  0  0  0  0  0  0
   -0.8469   -1.6022    2.6329 H   0  0  0  0  0  0  0  0  0  0  0  0
   -1.1729   -4.2713    1.7834 H   0  0  0  0  0  0  0  0  0  0  0  0
   -0.4579   -2.9245   -0.9376 H   0  0  0  0  0  0  0  0  0  0  0  0
   -2.1076   -2.6051   -1.4477 H   0  0  0  0  0  0  0  0  0  0  0  0
   -1.8607   -3.7386   -0.2253 H   0  0  0  0  0  0  0  0  0  0  0  0
   -0.5310    0.0381    1.4300 H   0  0  0  0  0  0  0  0  0  0  0  0
   -0.6033    1.9252    0.2568 H   0  0  0  0  0  0  0  0  0  0  0  0
   -2.1206    1.3523    0.8284 H   0  0  0  0  0  0  0  0  0  0  0  0
   -1.2876    1.8564   -2.0761 H   0  0  0  0  0  0  0  0  0  0  0  0
   -3.1353    3.3927   -2.0441 H   0  0  0  0  0  0  0  0  0  0  0  0
   -2.1366    3.7959   -0.6805 H   0  0  0  0  0  0  0  0  0  0  0  0
   -4.8989    3.4616   -0.5579 H   0  0  0  0  0  0  0  0  0  0  0  0
   -3.2074    3.8252    3.5542 H   0  0  0  0  0  0  0  0  0  0  0  0
   -4.8779    4.4481    3.8347 H   0  0  0  0  0  0  0  0  0  0  0  0
   -3.5599    5.5878    3.3404 H   0  0  0  0  0  0  0  0  0  0  0  0
   -5.9501    2.1677    1.5533 H   0  0  0  0  0  0  0  0  0  0  0  0
   -5.2309    0.5963    1.9795 H   0  0  0  0  0  0  0  0  0  0  0  0
   -6.5099    0.7128    0.6987 H   0  0  0  0  0  0  0  0  0  0  0  0
   -5.1366   -1.1326    0.5026 H   0  0  0  0  0  0  0  0  0  0  0  0
   -4.4985   -3.8257   -2.9515 H   0  0  0  0  0  0  0  0  0  0  0  0
   -6.2980   -3.6708   -3.0853 H   0  0  0  0  0  0  0  0  0  0  0  0
   -5.5737   -4.8628   -1.9336 H   0  0  0  0  0  0  0  0  0  0  0  0
   -3.4436   -2.6165    1.1731 H   0  0  0  0  0  0  0  0  0  0  0  0
   -2.8869   -0.0327    2.1546 H   0  0  0  0  0  0  0  0  0  0  0  0
   -2.9562   -1.2541   -2.9609 H   0  0  0  0  0  0  0  0  0  0  0  0
   -1.4281   -0.7661   -2.0403 H   0  0  0  0  0  0  0  0  0  0  0  0
   -1.8325    0.0002   -3.5028 H   0  0  0  0  0  0  0  0  0  0  0  0
   -4.7037    0.4035   -3.3379 H   0  0  0  0  0  0  0  0  0  0  0  0
   -3.4572    1.6143   -3.8189 H   0  0  0  0  0  0  0  0  0  0  0  0
   -4.7269    2.0125   -2.6209 H   0  0  0  0  0  0  0  0  0  0  0  0
  1  2  2  0  0  0  0
  1 46  1  0  0  0  0
  1 47  1  0  0  0  0
  2  3  1  0  0  0  0
  3  4  1  0  0  0  0
  3 19  1  0  0  0  0
  3 48  1  6  0  0  0
  4  5  1  0  0  0  0
  5  6  2  0  0  0  0
  5  7  1  0  0  0  0
  7  8  1  0  0  0  0
  7  9  1  0  0  0  0
  7 49  1  1  0  0  0
  8 50  1  0  0  0  0
  9 10  1  0  0  0  0
  9 16  1  0  0  0  0
  9 51  1  6  0  0  0
 10 11  2  0  0  0  0
 11 12  1  0  0  0  0
 11 52  1  0  0  0  0
 12 13  2  0  0  0  0
 12 53  1  0  0  0  0
 13 14  1  0  0  0  0
 13 54  1  0  0  0  0
 14 15  2  0  0  0  0
 14 55  1  0  0  0  0
 15 10  1  0  0  0  0
 15 56  1  0  0  0  0
 16 17  1  0  0  0  0
 16 18  1  0  0  0  0
 17 57  1  0  0  0  0
 17 58  1  0  0  0  0
 17 59  1  0  0  0  0
 18 60  1  0  0  0  0
 18 61  1  0  0  0  0
 18 62  1  0  0  0  0
 19 20  1  0  0  0  0
 19 63  1  0  0  0  0
 19 64  1  0  0  0  0
 20 21  1  0  0  0  0
 20 22  1  0  0  0  0
 20 65  1  1  0  0  0
 21 66  1  0  0  0  0
 22 23  1  6  0  0  0
 22 24  1  0  0  0  0
 23 67  1  0  0  0  0
 23 68  1  0  0  0  0
 23 69  1  0  0  0  0
 24 25  1  0  0  0  0
 24  2  1  0  0  0  0
 24 70  1  1  0  0  0
 25 71  1  0  0  0  0
 25 72  1  0  0  0  0
 26 25  1  0  0  0  0
 26 27  1  0  0  0  0
 26 73  1  6  0  0  0
 27 28  1  0  0  0  0
 27 74  1  0  0  0  0
 27 75  1  0  0  0  0
 28 29  1  0  0  0  0
 28 33  1  0  0  0  0
 28 76  1  6  0  0  0
 29 30  1  0  0  0  0
 30 31  1  0  0  0  0
 30 32  2  0  0  0  0
 31 77  1  0  0  0  0
 31 78  1  0  0  0  0
 31 79  1  0  0  0  0
 33 34  1  0  0  0  0
 33 35  2  0  0  0  0
 34 80  1  0  0  0  0
 34 81  1  0  0  0  0
 34 82  1  0  0  0  0
 35 36  1  0  0  0  0
 35 43  1  0  0  0  0
 36 37  1  0  0  0  0
 36 41  1  0  0  0  0
 36 83  1  1  0  0  0
 37 38  1  0  0  0  0
 38 39  1  0  0  0  0
 38 40  2  0  0  0  0
 39 84  1  0  0  0  0
 39 85  1  0  0  0  0
 39 86  1  0  0  0  0
 41 42  1  0  0  0  0
 41 22  1  0  0  0  0
 41 87  1  1  0  0  0
 42 88  1  0  0  0  0
 43 44  1  0  0  0  0
 43 45  1  0  0  0  0
 43 26  1  0  0  0  0
 44 89  1  0  0  0  0
 44 90  1  0  0  0  0
 44 91  1  0  0  0  0
 45 92  1  0  0  0  0
 45 93  1  0  0  0  0
 45 94  1  0  0  0  0
M  END
>  <IDENTIFIER>
CNP0388159.2

>  <Energy>
1279.65

$$$$
