
 OpenBabel09082511513D

 50 50  0  0  0  0  0  0  0  0999 V2000
   -2.3570   -1.5857   -1.5988 C   0  0  0  0  0  0  0  0  0  0  0  0
   -3.1431   -0.4872   -0.9086 C   0  0  0  0  0  0  0  0  0  0  0  0
   -2.6007    0.6465   -0.3265 C   0  0  0  0  0  0  0  0  0  0  0  0
   -1.1198    0.8860   -0.1341 C   0  0  0  0  0  0  0  0  0  0  0  0
   -0.1533   -0.0446    0.0316 C   0  0  0  0  0  0  0  0  0  0  0  0
    1.3020    0.2674    0.2458 C   0  0  0  0  0  0  0  0  0  0  0  0
    1.8094    1.6731    0.5259 C   0  0  0  0  0  0  0  0  0  0  0  0
    2.1830   -0.7628    0.1763 C   0  0  0  0  0  0  0  0  0  0  0  0
    3.6538   -0.6081    0.3501 C   0  0  0  0  0  0  0  0  0  0  0  0
    4.4863   -1.6502    0.1771 C   0  0  0  0  0  0  0  0  0  0  0  0
    5.9811   -1.5935    0.3091 C   0  0  0  0  0  0  0  0  0  0  0  0
    6.7232   -0.3469    0.7596 C   0  0  0  0  0  0  0  0  0  0  0  0
    6.6747   -2.7157    0.0045 C   0  0  0  0  0  0  0  0  0  0  0  0
    8.1496   -2.8285    0.0734 C   0  0  0  0  0  0  0  0  0  0  0  0
    8.6901   -3.8800   -0.2283 O   0  0  0  0  0  0  0  0  0  0  0  0
   -3.5810    1.7177    0.2618 C   0  0  0  0  0  0  0  0  0  0  0  0
   -2.8913    2.6931    1.2579 C   0  0  0  0  0  0  0  0  0  0  0  0
   -4.2209    2.6110   -0.8308 C   0  0  0  0  0  0  0  0  0  0  0  0
   -4.6332    0.9281    1.0793 C   0  0  0  0  0  0  0  0  0  0  0  0
   -5.4208   -0.1136    0.2617 C   0  0  0  0  0  0  0  0  0  0  0  0
   -4.6615   -0.6185   -0.9855 C   0  0  2  0  0  0  0  0  0  0  0  0
   -5.1100   -1.8901   -1.3807 O   0  0  0  0  0  0  0  0  0  0  0  0
   -1.3022   -1.3500   -1.8047 H   0  0  0  0  0  0  0  0  0  0  0  0
   -2.7779   -1.7280   -2.6165 H   0  0  0  0  0  0  0  0  0  0  0  0
   -2.4529   -2.5409   -1.0416 H   0  0  0  0  0  0  0  0  0  0  0  0
   -0.8319    1.9155   -0.0903 H   0  0  0  0  0  0  0  0  0  0  0  0
   -0.4167   -1.0922    0.0427 H   0  0  0  0  0  0  0  0  0  0  0  0
    1.0299    2.4468    0.6041 H   0  0  0  0  0  0  0  0  0  0  0  0
    2.5106    1.9868   -0.2759 H   0  0  0  0  0  0  0  0  0  0  0  0
    2.3385    1.6832    1.5025 H   0  0  0  0  0  0  0  0  0  0  0  0
    1.8084   -1.7616   -0.0376 H   0  0  0  0  0  0  0  0  0  0  0  0
    4.0425    0.3650    0.5976 H   0  0  0  0  0  0  0  0  0  0  0  0
    4.0444   -2.6062   -0.0958 H   0  0  0  0  0  0  0  0  0  0  0  0
    6.0769    0.5116    1.0027 H   0  0  0  0  0  0  0  0  0  0  0  0
    7.4201   -0.0163   -0.0392 H   0  0  0  0  0  0  0  0  0  0  0  0
    7.3029   -0.5738    1.6792 H   0  0  0  0  0  0  0  0  0  0  0  0
    6.1362   -3.6037   -0.3193 H   0  0  0  0  0  0  0  0  0  0  0  0
    8.7705   -1.9957    0.3833 H   0  0  0  0  0  0  0  0  0  0  0  0
   -2.1609    3.3613    0.7565 H   0  0  0  0  0  0  0  0  0  0  0  0
   -2.3764    2.1352    2.0700 H   0  0  0  0  0  0  0  0  0  0  0  0
   -3.6429    3.3620    1.7312 H   0  0  0  0  0  0  0  0  0  0  0  0
   -3.4251    3.1675   -1.3715 H   0  0  0  0  0  0  0  0  0  0  0  0
   -4.9071    3.3521   -0.3670 H   0  0  0  0  0  0  0  0  0  0  0  0
   -4.8107    2.0829   -1.5902 H   0  0  0  0  0  0  0  0  0  0  0  0
   -5.3424    1.5742    1.6423 H   0  0  0  0  0  0  0  0  0  0  0  0
   -4.0494    0.3596    1.8405 H   0  0  0  0  0  0  0  0  0  0  0  0
   -6.3835    0.3101   -0.1005 H   0  0  0  0  0  0  0  0  0  0  0  0
   -5.6749   -0.9399    0.9613 H   0  0  0  0  0  0  0  0  0  0  0  0
   -4.9298    0.0526   -1.8170 H   0  0  0  0  0  0  0  0  0  0  0  0
   -4.8898   -2.5160   -0.6423 H   0  0  0  0  0  0  0  0  0  0  0  0
  1  2  1  0  0  0  0
  1 23  1  0  0  0  0
  1 24  1  0  0  0  0
  1 25  1  0  0  0  0
  2  3  2  0  0  0  0
  3  4  1  0  0  0  0
  3 16  1  0  0  0  0
  4  5  2  0  0  0  0
  4 26  1  0  0  0  0
  5  6  1  0  0  0  0
  5 27  1  0  0  0  0
  6  7  1  0  0  0  0
  6  8  2  0  0  0  0
  7 28  1  0  0  0  0
  7 29  1  0  0  0  0
  7 30  1  0  0  0  0
  8  9  1  0  0  0  0
  8 31  1  0  0  0  0
  9 10  2  0  0  0  0
  9 32  1  0  0  0  0
 10 11  1  0  0  0  0
 10 33  1  0  0  0  0
 11 12  1  0  0  0  0
 11 13  2  0  0  0  0
 12 34  1  0  0  0  0
 12 35  1  0  0  0  0
 12 36  1  0  0  0  0
 13 14  1  0  0  0  0
 13 37  1  0  0  0  0
 14 15  2  0  0  0  0
 14 38  1  0  0  0  0
 16 17  1  0  0  0  0
 16 18  1  0  0  0  0
 16 19  1  0  0  0  0
 17 39  1  0  0  0  0
 17 40  1  0  0  0  0
 17 41  1  0  0  0  0
 18 42  1  0  0  0  0
 18 43  1  0  0  0  0
 18 44  1  0  0  0  0
 19 20  1  0  0  0  0
 19 45  1  0  0  0  0
 19 46  1  0  0  0  0
 20 21  1  0  0  0  0
 20 47  1  0  0  0  0
 20 48  1  0  0  0  0
 21 22  1  0  0  0  0
 21  2  1  0  0  0  0
 21 49  1  6  0  0  0
 22 50  1  0  0  0  0
M  END
>  <IDENTIFIER>
CNP0081715.1

>  <Energy>
464.723

$$$$
