
 OpenBabel09132508053D

 64 69  0  0  0  0  0  0  0  0999 V2000
    5.5728   -2.1171    0.3535 C   0  0  0  0  0  0  0  0  0  0  0  0
    5.6930   -0.6693    0.1884 N   0  0  0  0  0  0  0  0  0  0  0  0
    4.8706    0.3116    0.6496 C   0  0  0  0  0  0  0  0  0  0  0  0
    3.6293    0.0935    1.4643 C   0  0  0  0  0  0  0  0  0  0  0  0
    2.6083   -0.7190    0.7640 N   0  0  0  0  0  0  0  0  0  0  0  0
    2.1409   -0.1339   -0.5260 C   0  0  0  0  0  0  0  0  0  0  0  0
    1.0332    0.9008   -0.3066 C   0  0  0  0  0  0  0  0  0  0  0  0
   -0.2044    0.3022    0.4423 C   0  0  0  0  0  0  0  0  0  0  0  0
    0.1369   -1.0839    1.0570 C   0  0  0  0  0  0  0  0  0  0  0  0
    1.5127   -1.0495    1.7199 C   0  0  0  0  0  0  0  0  0  0  0  0
   -0.5103    1.2305    1.4327 O   0  0  0  0  0  0  0  0  0  0  0  0
   -1.6343    1.8913    1.1205 C   0  0  0  0  0  0  0  0  0  0  0  0
   -2.0864    2.8029    1.7976 O   0  0  0  0  0  0  0  0  0  0  0  0
   -2.2359    1.4124    0.0311 N   0  0  0  0  0  0  0  0  0  0  0  0
   -3.5275    1.8049   -0.4902 C   0  0  0  0  0  0  0  0  0  0  0  0
   -3.9975    0.7105   -1.4659 C   0  0  0  0  0  0  0  0  0  0  0  0
   -3.8619   -0.6423   -0.8498 N   0  0  0  0  0  0  0  0  0  0  0  0
   -4.8488   -0.8788    0.2375 C   0  0  0  0  0  0  0  0  0  0  0  0
   -6.2815   -0.7154   -0.1998 C   0  0  0  0  0  0  0  0  0  0  0  0
   -6.8265   -1.5569   -1.1814 C   0  0  0  0  0  0  0  0  0  0  0  0
   -8.1659   -1.4174   -1.5606 C   0  0  0  0  0  0  0  0  0  0  0  0
   -8.9653   -0.4358   -0.9667 C   0  0  0  0  0  0  0  0  0  0  0  0
   -8.4276    0.4089    0.0073 C   0  0  0  0  0  0  0  0  0  0  0  0
   -7.0918    0.2695    0.3928 C   0  0  0  0  0  0  0  0  0  0  0  0
   -2.4751   -0.9259   -0.3355 C   0  0  0  0  0  0  0  0  0  0  0  0
   -1.5058    0.2830   -0.4609 C   0  0  2  0  0  0  0  0  0  0  0  0
    5.3007    1.5553    0.3146 N   0  0  0  0  0  0  0  0  0  0  0  0
    6.4292    1.3291   -0.3782 C   0  0  0  0  0  0  0  0  0  0  0  0
    7.2789    2.2696   -0.9525 C   0  0  0  0  0  0  0  0  0  0  0  0
    8.4166    1.7933   -1.6294 C   0  0  0  0  0  0  0  0  0  0  0  0
    8.6705    0.4043   -1.7146 C   0  0  0  0  0  0  0  0  0  0  0  0
    7.7889   -0.5206   -1.1222 C   0  0  0  0  0  0  0  0  0  0  0  0
    6.6714   -0.0123   -0.4583 C   0  0  0  0  0  0  0  0  0  0  0  0
    4.6729   -2.3834    0.9434 H   0  0  0  0  0  0  0  0  0  0  0  0
    6.4669   -2.5063    0.8843 H   0  0  0  0  0  0  0  0  0  0  0  0
    5.5002   -2.6007   -0.6432 H   0  0  0  0  0  0  0  0  0  0  0  0
    3.2036    1.0805    1.7497 H   0  0  0  0  0  0  0  0  0  0  0  0
    3.9406   -0.4234    2.3992 H   0  0  0  0  0  0  0  0  0  0  0  0
    1.7488   -0.9450   -1.1762 H   0  0  0  0  0  0  0  0  0  0  0  0
    2.9808    0.3260   -1.0880 H   0  0  0  0  0  0  0  0  0  0  0  0
    0.7432    1.4025   -1.2543 H   0  0  0  0  0  0  0  0  0  0  0  0
    1.4977    1.6971    0.3156 H   0  0  0  0  0  0  0  0  0  0  0  0
    0.1690   -1.8583    0.2598 H   0  0  0  0  0  0  0  0  0  0  0  0
   -0.6254   -1.3874    1.8040 H   0  0  0  0  0  0  0  0  0  0  0  0
    1.7296   -2.0384    2.1775 H   0  0  0  0  0  0  0  0  0  0  0  0
    1.4479   -0.3058    2.5480 H   0  0  0  0  0  0  0  0  0  0  0  0
   -3.4781    2.8042   -0.9728 H   0  0  0  0  0  0  0  0  0  0  0  0
   -4.2544    1.8611    0.3457 H   0  0  0  0  0  0  0  0  0  0  0  0
   -3.3669    0.7423   -2.3810 H   0  0  0  0  0  0  0  0  0  0  0  0
   -5.0344    0.9103   -1.8094 H   0  0  0  0  0  0  0  0  0  0  0  0
   -4.6320   -0.2072    1.0973 H   0  0  0  0  0  0  0  0  0  0  0  0
   -4.7412   -1.9197    0.6157 H   0  0  0  0  0  0  0  0  0  0  0  0
   -6.2178   -2.3250   -1.6422 H   0  0  0  0  0  0  0  0  0  0  0  0
   -8.5863   -2.0735   -2.3115 H   0  0  0  0  0  0  0  0  0  0  0  0
  -10.0019   -0.3304   -1.2591 H   0  0  0  0  0  0  0  0  0  0  0  0
   -9.0458    1.1686    0.4679 H   0  0  0  0  0  0  0  0  0  0  0  0
   -6.6914    0.9288    1.1534 H   0  0  0  0  0  0  0  0  0  0  0  0
   -2.0494   -1.8069   -0.8603 H   0  0  0  0  0  0  0  0  0  0  0  0
   -2.5264   -1.1936    0.7411 H   0  0  0  0  0  0  0  0  0  0  0  0
   -1.2544    0.4191   -1.5357 H   0  0  0  0  0  0  0  0  0  0  0  0
    7.0738    3.3300   -0.8773 H   0  0  0  0  0  0  0  0  0  0  0  0
    9.1014    2.4954   -2.0867 H   0  0  0  0  0  0  0  0  0  0  0  0
    9.5493    0.0506   -2.2370 H   0  0  0  0  0  0  0  0  0  0  0  0
    7.9769   -1.5845   -1.1807 H   0  0  0  0  0  0  0  0  0  0  0  0
  1  2  1  0  0  0  0
  1 34  1  0  0  0  0
  1 35  1  0  0  0  0
  1 36  1  0  0  0  0
  2  3  1  0  0  0  0
  3  4  1  0  0  0  0
  3 27  2  0  0  0  0
  4  5  1  0  0  0  0
  4 37  1  0  0  0  0
  4 38  1  0  0  0  0
  5  6  1  0  0  0  0
  6  7  1  0  0  0  0
  6 39  1  0  0  0  0
  6 40  1  0  0  0  0
  7  8  1  0  0  0  0
  7 41  1  0  0  0  0
  7 42  1  0  0  0  0
  8  9  1  0  0  0  0
  8 11  1  0  0  0  0
  9 10  1  0  0  0  0
  9 43  1  0  0  0  0
  9 44  1  0  0  0  0
 10  5  1  0  0  0  0
 10 45  1  0  0  0  0
 10 46  1  0  0  0  0
 11 12  1  0  0  0  0
 12 13  2  0  0  0  0
 12 14  1  0  0  0  0
 14 15  1  0  0  0  0
 15 16  1  0  0  0  0
 15 47  1  0  0  0  0
 15 48  1  0  0  0  0
 16 17  1  0  0  0  0
 16 49  1  0  0  0  0
 16 50  1  0  0  0  0
 17 18  1  0  0  0  0
 17 25  1  0  0  0  0
 18 19  1  0  0  0  0
 18 51  1  0  0  0  0
 18 52  1  0  0  0  0
 19 20  2  0  0  0  0
 20 21  1  0  0  0  0
 20 53  1  0  0  0  0
 21 22  2  0  0  0  0
 21 54  1  0  0  0  0
 22 23  1  0  0  0  0
 22 55  1  0  0  0  0
 23 24  2  0  0  0  0
 23 56  1  0  0  0  0
 24 19  1  0  0  0  0
 24 57  1  0  0  0  0
 25 58  1  0  0  0  0
 25 59  1  0  0  0  0
 26 25  1  0  0  0  0
 26 14  1  0  0  0  0
 26  8  1  0  0  0  0
 26 60  1  6  0  0  0
 27 28  1  0  0  0  0
 28 29  2  0  0  0  0
 29 30  1  0  0  0  0
 29 61  1  0  0  0  0
 30 31  2  0  0  0  0
 30 62  1  0  0  0  0
 31 32  1  0  0  0  0
 31 63  1  0  0  0  0
 32 33  2  0  0  0  0
 32 64  1  0  0  0  0
 33  2  1  0  0  0  0
 33 28  1  0  0  0  0
M  END
>  <IDENTIFIER>
CNP0484429.0

>  <Energy>
850.95

$$$$
