
 OpenBabel09052520263D

 88 90  0  0  0  0  0  0  0  0999 V2000
   -7.0216    4.7217   -0.0151 C   0  0  0  0  0  0  0  0  0  0  0  0
   -5.6690    4.5546   -0.2271 O   0  0  0  0  0  0  0  0  0  0  0  0
   -4.9846    3.3788   -0.1816 C   0  0  0  0  0  0  0  0  0  0  0  0
   -5.6105    2.1553    0.0275 C   0  0  0  0  0  0  0  0  0  0  0  0
   -4.8943    0.9444    0.1256 C   0  0  0  0  0  0  0  0  0  0  0  0
   -3.4620    0.9348   -0.0014 C   0  0  0  0  0  0  0  0  0  0  0  0
   -2.5390   -0.3014    0.1885 C   0  0  0  0  0  0  0  0  0  0  0  0
   -1.3000    0.0312    0.7938 C   0  0  0  0  0  0  0  0  0  0  0  0
   -0.1584   -0.6768    1.1323 C   0  0  0  0  0  0  0  0  0  0  0  0
    0.1728   -2.0179    0.9691 C   0  0  0  0  0  0  0  0  0  0  0  0
    1.4450   -2.4970    1.4706 N   0  0  0  0  0  0  0  0  0  0  0  0
    2.4666   -1.6665    2.1075 C   0  0  1  0  0  0  0  0  0  0  0  0
    3.4815   -2.5193    2.9348 C   0  0  0  0  0  0  0  0  0  0  0  0
    4.5418   -3.4394    2.2536 C   0  0  0  0  0  0  0  0  0  0  0  0
    3.9515   -4.5451    1.3742 C   0  0  0  0  0  0  0  0  0  0  0  0
    5.6176   -2.6649    1.4805 C   0  0  0  0  0  0  0  0  0  0  0  0
    3.1505   -0.7500    1.1088 C   0  0  0  0  0  0  0  0  0  0  0  0
    2.9204   -0.8790   -0.0884 O   0  0  0  0  0  0  0  0  0  0  0  0
    4.0388    0.1894    1.5445 N   0  0  0  0  0  0  0  0  0  0  0  0
    4.8137    1.0452    0.6612 C   0  0  0  0  0  0  0  0  0  0  0  0
    3.9374    2.0131   -0.1469 C   0  0  0  0  0  0  0  0  0  0  0  0
    4.7452    3.0597   -0.9411 C   0  0  0  0  0  0  0  0  0  0  0  0
    5.6209    2.4398   -1.9679 N   0  0  0  0  0  0  0  0  0  0  0  0
    7.0169    2.3291   -1.4987 C   0  0  0  0  0  0  0  0  0  0  0  0
    5.6085    3.2301   -3.2114 C   0  0  0  0  0  0  0  0  0  0  0  0
   -0.6859   -2.9586    0.3885 C   0  0  0  0  0  0  0  0  0  0  0  0
   -0.2641   -4.1026    0.2903 O   0  0  0  0  0  0  0  0  0  0  0  0
   -1.9929   -2.7661   -0.0714 C   0  0  0  0  0  0  0  0  0  0  0  0
   -2.8837   -1.6520   -0.1590 C   0  0  0  0  0  0  0  0  0  0  0  0
   -4.3252   -1.9862   -0.6217 C   0  0  1  0  0  0  0  0  0  0  0  0
   -4.5520   -3.4204   -0.8307 N   0  0  0  0  0  0  0  0  0  0  0  0
   -4.9242   -3.9838   -2.0129 C   0  0  0  0  0  0  0  0  0  0  0  0
   -5.1448   -5.4688   -2.1010 C   0  0  0  0  0  0  0  0  0  0  0  0
   -5.0806   -3.2992   -3.0123 O   0  0  0  0  0  0  0  0  0  0  0  0
   -5.2735   -1.5984    0.5143 C   0  0  0  0  0  0  0  0  0  0  0  0
   -5.8241   -0.2105    0.3685 C   0  0  0  0  0  0  0  0  0  0  0  0
   -2.8573    2.2225   -0.3096 C   0  0  0  0  0  0  0  0  0  0  0  0
   -1.5461    2.3528   -0.6313 O   0  0  0  0  0  0  0  0  0  0  0  0
   -0.9943    1.8316   -1.7851 C   0  0  0  0  0  0  0  0  0  0  0  0
   -3.6125    3.4131   -0.3465 C   0  0  0  0  0  0  0  0  0  0  0  0
   -3.0422    4.6298   -0.5494 O   0  0  0  0  0  0  0  0  0  0  0  0
   -2.0023    5.1400    0.2053 C   0  0  0  0  0  0  0  0  0  0  0  0
   -7.2702    5.7994   -0.1022 H   0  0  0  0  0  0  0  0  0  0  0  0
   -7.2925    4.3798    1.0068 H   0  0  0  0  0  0  0  0  0  0  0  0
   -7.6041    4.1605   -0.7757 H   0  0  0  0  0  0  0  0  0  0  0  0
   -6.6885    2.1409    0.1401 H   0  0  0  0  0  0  0  0  0  0  0  0
   -1.1810    1.0492    1.1277 H   0  0  0  0  0  0  0  0  0  0  0  0
    0.5771   -0.0447    1.6036 H   0  0  0  0  0  0  0  0  0  0  0  0
    1.5881   -3.5118    1.5066 H   0  0  0  0  0  0  0  0  0  0  0  0
    1.9551   -1.0511    2.8781 H   0  0  0  0  0  0  0  0  0  0  0  0
    2.8778   -3.1513    3.6240 H   0  0  0  0  0  0  0  0  0  0  0  0
    4.0514   -1.8219    3.5866 H   0  0  0  0  0  0  0  0  0  0  0  0
    5.0697   -3.9441    3.0940 H   0  0  0  0  0  0  0  0  0  0  0  0
    3.4677   -4.1188    0.4709 H   0  0  0  0  0  0  0  0  0  0  0  0
    3.2204   -5.1485    1.9531 H   0  0  0  0  0  0  0  0  0  0  0  0
    4.7595   -5.2279    1.0341 H   0  0  0  0  0  0  0  0  0  0  0  0
    5.2095   -2.1910    0.5682 H   0  0  0  0  0  0  0  0  0  0  0  0
    6.4226   -3.3600    1.1597 H   0  0  0  0  0  0  0  0  0  0  0  0
    6.0758   -1.8898    2.1313 H   0  0  0  0  0  0  0  0  0  0  0  0
    4.2148    0.2727    2.5535 H   0  0  0  0  0  0  0  0  0  0  0  0
    5.4142    0.4080   -0.0206 H   0  0  0  0  0  0  0  0  0  0  0  0
    5.5035    1.6498    1.2897 H   0  0  0  0  0  0  0  0  0  0  0  0
    3.2833    2.5670    0.5640 H   0  0  0  0  0  0  0  0  0  0  0  0
    3.2867    1.4515   -0.8479 H   0  0  0  0  0  0  0  0  0  0  0  0
    5.3244    3.7143   -0.2503 H   0  0  0  0  0  0  0  0  0  0  0  0
    3.9799    3.7138   -1.4196 H   0  0  0  0  0  0  0  0  0  0  0  0
    7.0926    1.7470   -0.5628 H   0  0  0  0  0  0  0  0  0  0  0  0
    7.4606    3.3330   -1.3140 H   0  0  0  0  0  0  0  0  0  0  0  0
    7.6338    1.8001   -2.2573 H   0  0  0  0  0  0  0  0  0  0  0  0
    4.5807    3.2723   -3.6305 H   0  0  0  0  0  0  0  0  0  0  0  0
    6.2541    2.7531   -3.9810 H   0  0  0  0  0  0  0  0  0  0  0  0
    5.9694    4.2684   -3.0307 H   0  0  0  0  0  0  0  0  0  0  0  0
   -2.3647   -3.7108   -0.4266 H   0  0  0  0  0  0  0  0  0  0  0  0
   -4.5675   -1.4364   -1.5584 H   0  0  0  0  0  0  0  0  0  0  0  0
   -4.4475   -4.0429   -0.0112 H   0  0  0  0  0  0  0  0  0  0  0  0
   -4.9649   -5.9658   -1.1235 H   0  0  0  0  0  0  0  0  0  0  0  0
   -4.4493   -5.9080   -2.8464 H   0  0  0  0  0  0  0  0  0  0  0  0
   -6.1907   -5.6764   -2.4090 H   0  0  0  0  0  0  0  0  0  0  0  0
   -4.7961   -1.7699    1.5053 H   0  0  0  0  0  0  0  0  0  0  0  0
   -6.1847   -2.2419    0.4923 H   0  0  0  0  0  0  0  0  0  0  0  0
   -6.4415   -0.0090    1.2730 H   0  0  0  0  0  0  0  0  0  0  0  0
   -6.5114   -0.2352   -0.5100 H   0  0  0  0  0  0  0  0  0  0  0  0
    0.0892    2.0691   -1.8066 H   0  0  0  0  0  0  0  0  0  0  0  0
   -1.4758    2.2938   -2.6731 H   0  0  0  0  0  0  0  0  0  0  0  0
   -1.1183    0.7316   -1.8391 H   0  0  0  0  0  0  0  0  0  0  0  0
   -1.7548    6.1573   -0.1594 H   0  0  0  0  0  0  0  0  0  0  0  0
   -1.0874    4.5221    0.1459 H   0  0  0  0  0  0  0  0  0  0  0  0
   -2.3216    5.2200    1.2676 H   0  0  0  0  0  0  0  0  0  0  0  0
  1  2  1  0  0  0  0
  1 43  1  0  0  0  0
  1 44  1  0  0  0  0
  1 45  1  0  0  0  0
  2  3  1  0  0  0  0
  3  4  2  0  0  0  0
  4  5  1  0  0  0  0
  4 46  1  0  0  0  0
  5  6  2  0  0  0  0
  6  7  1  0  0  0  0
  6 37  1  0  0  0  0
  7  8  2  0  0  0  0
  8  9  1  0  0  0  0
  8 47  1  0  0  0  0
  9 10  2  0  0  0  0
  9 48  1  0  0  0  0
 10 11  1  0  0  0  0
 10 26  1  0  0  0  0
 11 12  1  0  0  0  0
 11 49  1  0  0  0  0
 12 13  1  0  0  0  0
 12 17  1  0  0  0  0
 12 50  1  1  0  0  0
 13 14  1  0  0  0  0
 13 51  1  0  0  0  0
 13 52  1  0  0  0  0
 14 15  1  0  0  0  0
 14 16  1  0  0  0  0
 14 53  1  0  0  0  0
 15 54  1  0  0  0  0
 15 55  1  0  0  0  0
 15 56  1  0  0  0  0
 16 57  1  0  0  0  0
 16 58  1  0  0  0  0
 16 59  1  0  0  0  0
 17 18  2  0  0  0  0
 17 19  1  0  0  0  0
 19 20  1  0  0  0  0
 19 60  1  0  0  0  0
 20 21  1  0  0  0  0
 20 61  1  0  0  0  0
 20 62  1  0  0  0  0
 21 22  1  0  0  0  0
 21 63  1  0  0  0  0
 21 64  1  0  0  0  0
 22 23  1  0  0  0  0
 22 65  1  0  0  0  0
 22 66  1  0  0  0  0
 23 24  1  0  0  0  0
 23 25  1  0  0  0  0
 24 67  1  0  0  0  0
 24 68  1  0  0  0  0
 24 69  1  0  0  0  0
 25 70  1  0  0  0  0
 25 71  1  0  0  0  0
 25 72  1  0  0  0  0
 26 27  2  0  0  0  0
 26 28  1  0  0  0  0
 28 29  2  0  0  0  0
 28 73  1  0  0  0  0
 29 30  1  0  0  0  0
 29  7  1  0  0  0  0
 30 31  1  0  0  0  0
 30 35  1  0  0  0  0
 30 74  1  6  0  0  0
 31 32  1  0  0  0  0
 31 75  1  0  0  0  0
 32 33  1  0  0  0  0
 32 34  2  0  0  0  0
 33 76  1  0  0  0  0
 33 77  1  0  0  0  0
 33 78  1  0  0  0  0
 35 36  1  0  0  0  0
 35 79  1  0  0  0  0
 35 80  1  0  0  0  0
 36  5  1  0  0  0  0
 36 81  1  0  0  0  0
 36 82  1  0  0  0  0
 37 38  1  0  0  0  0
 37 40  2  0  0  0  0
 38 39  1  0  0  0  0
 39 83  1  0  0  0  0
 39 84  1  0  0  0  0
 39 85  1  0  0  0  0
 40 41  1  0  0  0  0
 40  3  1  0  0  0  0
 41 42  1  0  0  0  0
 42 86  1  0  0  0  0
 42 87  1  0  0  0  0
 42 88  1  0  0  0  0
M  END
>  <IDENTIFIER>
CNP0399419.1

>  <Energy>
969.976

$$$$
