
 OpenBabel09092514453D

 50 53  0  0  0  0  0  0  0  0999 V2000
    2.2650    1.8562   -0.0963 O   0  0  0  0  0  0  0  0  0  0  0  0
    1.1821    1.8171    0.4601 C   0  0  0  0  0  0  0  0  0  0  0  0
    0.5614    0.5743    0.6784 C   0  0  0  0  0  0  0  0  0  0  0  0
    1.1648   -0.5600    0.2491 O   0  0  0  0  0  0  0  0  0  0  0  0
    1.1892   -0.9964   -1.0670 C   0  0  2  0  0  0  0  0  0  0  0  0
    0.4868   -2.2230   -1.1424 O   0  0  0  0  0  0  0  0  0  0  0  0
    0.3762   -2.7374   -2.4753 C   0  0  1  0  0  0  0  0  0  0  0  0
   -0.9277   -2.5865   -2.9687 O   0  0  0  0  0  0  0  0  0  0  0  0
    1.4429   -2.2272   -3.4935 C   0  0  1  0  0  0  0  0  0  0  0  0
    1.1129   -0.9554   -3.9938 O   0  0  0  0  0  0  0  0  0  0  0  0
    2.7841   -2.1523   -2.7505 C   0  0  2  0  0  0  0  0  0  0  0  0
    3.1668   -3.4471   -2.3349 O   0  0  0  0  0  0  0  0  0  0  0  0
    2.6661   -1.1705   -1.5400 C   0  0  1  0  0  0  0  0  0  0  0  0
    3.2258    0.0806   -1.8503 O   0  0  0  0  0  0  0  0  0  0  0  0
   -0.6936    0.5429    1.3460 C   0  0  0  0  0  0  0  0  0  0  0  0
   -1.4773   -0.7014    1.6606 C   0  0  0  0  0  0  0  0  0  0  0  0
   -0.9427   -2.0080    1.6135 C   0  0  0  0  0  0  0  0  0  0  0  0
   -1.7340   -3.1196    1.9117 C   0  0  0  0  0  0  0  0  0  0  0  0
   -3.0767   -2.9622    2.2696 C   0  0  0  0  0  0  0  0  0  0  0  0
   -3.8376   -4.0400    2.5530 O   0  0  0  0  0  0  0  0  0  0  0  0
   -3.6266   -1.6731    2.3365 C   0  0  0  0  0  0  0  0  0  0  0  0
   -4.9175   -1.4799    2.6816 O   0  0  0  0  0  0  0  0  0  0  0  0
   -2.8309   -0.5609    2.0395 C   0  0  0  0  0  0  0  0  0  0  0  0
   -1.2450    1.6975    1.7205 O   0  0  0  0  0  0  0  0  0  0  0  0
   -0.6896    2.8873    1.5360 C   0  0  0  0  0  0  0  0  0  0  0  0
   -1.3566    4.0264    1.9969 C   0  0  0  0  0  0  0  0  0  0  0  0
   -0.7908    5.2952    1.8274 C   0  0  0  0  0  0  0  0  0  0  0  0
   -1.4241    6.3984    2.2750 O   0  0  0  0  0  0  0  0  0  0  0  0
    0.4450    5.4230    1.1898 C   0  0  0  0  0  0  0  0  0  0  0  0
    1.1290    4.2906    0.7194 C   0  0  0  0  0  0  0  0  0  0  0  0
    2.3238    4.4428    0.1079 O   0  0  0  0  0  0  0  0  0  0  0  0
    0.5601    3.0037    0.8945 C   0  0  0  0  0  0  0  0  0  0  0  0
    0.6514   -0.2608   -1.7102 H   0  0  0  0  0  0  0  0  0  0  0  0
    0.5573   -3.8284   -2.3678 H   0  0  0  0  0  0  0  0  0  0  0  0
   -1.1935   -1.6462   -2.7971 H   0  0  0  0  0  0  0  0  0  0  0  0
    1.5241   -2.9356   -4.3515 H   0  0  0  0  0  0  0  0  0  0  0  0
    0.4173   -1.0903   -4.6891 H   0  0  0  0  0  0  0  0  0  0  0  0
    3.5970   -1.8004   -3.4225 H   0  0  0  0  0  0  0  0  0  0  0  0
    2.7139   -3.6667   -1.4796 H   0  0  0  0  0  0  0  0  0  0  0  0
    3.2857   -1.5967   -0.7204 H   0  0  0  0  0  0  0  0  0  0  0  0
    2.7346    0.4501   -2.6290 H   0  0  0  0  0  0  0  0  0  0  0  0
    0.0832   -2.2091    1.3712 H   0  0  0  0  0  0  0  0  0  0  0  0
   -1.2966   -4.1093    1.8669 H   0  0  0  0  0  0  0  0  0  0  0  0
   -3.4884   -4.9420    2.5149 H   0  0  0  0  0  0  0  0  0  0  0  0
   -5.5170   -2.2087    2.8949 H   0  0  0  0  0  0  0  0  0  0  0  0
   -3.2886    0.4192    2.0959 H   0  0  0  0  0  0  0  0  0  0  0  0
   -2.3146    3.9227    2.4922 H   0  0  0  0  0  0  0  0  0  0  0  0
   -2.2781    6.3534    2.7282 H   0  0  0  0  0  0  0  0  0  0  0  0
    0.8773    6.4081    1.0616 H   0  0  0  0  0  0  0  0  0  0  0  0
    2.7324    5.3106   -0.0222 H   0  0  0  0  0  0  0  0  0  0  0  0
  1  2  2  0  0  0  0
  2  3  1  0  0  0  0
  3  4  1  0  0  0  0
  3 15  2  0  0  0  0
  5  4  1  0  0  0  0
  5  6  1  0  0  0  0
  5 33  1  6  0  0  0
  6  7  1  0  0  0  0
  7  8  1  0  0  0  0
  7  9  1  0  0  0  0
  7 34  1  1  0  0  0
  8 35  1  0  0  0  0
  9 10  1  0  0  0  0
  9 11  1  0  0  0  0
  9 36  1  6  0  0  0
 10 37  1  0  0  0  0
 11 12  1  0  0  0  0
 11 13  1  0  0  0  0
 11 38  1  6  0  0  0
 12 39  1  0  0  0  0
 13 14  1  0  0  0  0
 13  5  1  0  0  0  0
 13 40  1  1  0  0  0
 14 41  1  0  0  0  0
 15 16  1  0  0  0  0
 15 24  1  0  0  0  0
 16 17  2  0  0  0  0
 17 18  1  0  0  0  0
 17 42  1  0  0  0  0
 18 19  2  0  0  0  0
 18 43  1  0  0  0  0
 19 20  1  0  0  0  0
 19 21  1  0  0  0  0
 20 44  1  0  0  0  0
 21 22  1  0  0  0  0
 21 23  2  0  0  0  0
 22 45  1  0  0  0  0
 23 16  1  0  0  0  0
 23 46  1  0  0  0  0
 24 25  1  0  0  0  0
 25 26  2  0  0  0  0
 26 27  1  0  0  0  0
 26 47  1  0  0  0  0
 27 28  1  0  0  0  0
 27 29  2  0  0  0  0
 28 48  1  0  0  0  0
 29 30  1  0  0  0  0
 29 49  1  0  0  0  0
 30 31  1  0  0  0  0
 30 32  2  0  0  0  0
 31 50  1  0  0  0  0
 32  2  1  0  0  0  0
 32 25  1  0  0  0  0
M  END
>  <IDENTIFIER>
CNP0079089.1

>  <Energy>
602.982

$$$$
