
 OpenBabel09072503583D

 87 90  0  0  0  0  0  0  0  0999 V2000
   -5.7266    4.5386   -1.5242 C   0  0  0  0  0  0  0  0  0  0  0  0
   -6.8392    4.0484   -0.6437 C   0  0  0  0  0  0  0  0  0  0  0  0
   -6.7354    2.9664    0.1458 C   0  0  0  0  0  0  0  0  0  0  0  0
   -5.5536    2.1676    0.1966 N   0  0  0  0  0  0  0  0  0  0  0  0
   -5.4104    1.1326    1.0680 C   0  0  0  0  0  0  0  0  0  0  0  0
   -6.2998    0.8661    1.8649 O   0  0  0  0  0  0  0  0  0  0  0  0
   -4.1450    0.3058    1.0222 C   0  0  1  0  0  0  0  0  0  0  0  0
   -2.9562    1.1538    1.1084 N   0  0  0  0  0  0  0  0  0  0  0  0
   -1.8347    0.8835    0.3692 C   0  0  0  0  0  0  0  0  0  0  0  0
   -1.8462   -0.0044   -0.4722 O   0  0  0  0  0  0  0  0  0  0  0  0
   -0.5277    1.5876    0.6671 C   0  0  2  0  0  0  0  0  0  0  0  0
   -0.5823    3.0921    0.3044 C   0  0  0  0  0  0  0  0  0  0  0  0
   -0.8725    3.4051   -1.1515 C   0  0  0  0  0  0  0  0  0  0  0  0
   -0.9604    4.6938   -1.5541 N   0  0  0  0  0  0  0  0  0  0  0  0
   -1.0406    2.5112   -1.9679 O   0  0  0  0  0  0  0  0  0  0  0  0
    0.5983    0.9067    0.0122 N   0  0  0  0  0  0  0  0  0  0  0  0
    1.5190    0.1689    0.7123 C   0  0  0  0  0  0  0  0  0  0  0  0
    1.4133    0.0471    1.9248 O   0  0  0  0  0  0  0  0  0  0  0  0
    2.7011   -0.5050    0.0284 C   0  0  1  0  0  0  0  0  0  0  0  0
    3.9288    0.0063    0.6314 N   0  0  0  0  0  0  0  0  0  0  0  0
    4.9389    0.5968   -0.0746 C   0  0  0  0  0  0  0  0  0  0  0  0
    4.8216    0.7822   -1.2769 O   0  0  0  0  0  0  0  0  0  0  0  0
    6.2030    0.9881    0.6143 C   0  0  0  0  0  0  0  0  0  0  0  0
    6.2670    0.8670    1.8293 O   0  0  0  0  0  0  0  0  0  0  0  0
    7.4059    1.5397   -0.1544 C   0  0  2  0  0  0  0  0  0  0  0  0
    7.8987    0.5475   -1.2250 C   0  0  0  0  0  0  0  0  0  0  0  0
    8.5825    1.9699    0.7690 C   0  0  0  0  0  0  0  0  0  0  0  0
    9.2906    0.8279    1.5153 C   0  0  0  0  0  0  0  0  0  0  0  0
    2.7194   -2.0501    0.2062 C   0  0  0  0  0  0  0  0  0  0  0  0
    1.7625   -2.8286   -0.6802 C   0  0  0  0  0  0  0  0  0  0  0  0
    0.3733   -2.7278   -0.5410 C   0  0  0  0  0  0  0  0  0  0  0  0
   -0.5009   -3.4334   -1.4035 C   0  0  0  0  0  0  0  0  0  0  0  0
    0.0461   -4.2678   -2.4082 C   0  0  0  0  0  0  0  0  0  0  0  0
   -0.7218   -4.9865   -3.2572 O   0  0  0  0  0  0  0  0  0  0  0  0
    1.4327   -4.3850   -2.5224 C   0  0  0  0  0  0  0  0  0  0  0  0
    2.2806   -3.6745   -1.6745 C   0  0  0  0  0  0  0  0  0  0  0  0
   -1.9494   -3.1438   -1.2812 C   0  0  0  0  0  0  0  0  0  0  0  0
   -2.5886   -3.0502   -0.0346 C   0  0  0  0  0  0  0  0  0  0  0  0
   -2.1075   -3.4684    1.2166 N   0  0  0  0  0  0  0  0  0  0  0  0
   -3.0597   -3.1945    2.1325 C   0  0  0  0  0  0  0  0  0  0  0  0
   -2.9417   -3.4797    3.3150 O   0  0  0  0  0  0  0  0  0  0  0  0
   -4.1985   -2.3700    1.5487 C   0  0  2  0  0  0  0  0  0  0  0  0
   -5.4654   -2.9136    1.8313 O   0  0  0  0  0  0  0  0  0  0  0  0
   -3.8515   -2.5317    0.0865 C   0  0  0  0  0  0  0  0  0  0  0  0
   -4.6078   -2.1956   -1.0421 C   0  0  0  0  0  0  0  0  0  0  0  0
   -4.0296   -2.3500   -2.3068 C   0  0  0  0  0  0  0  0  0  0  0  0
   -2.7029   -2.7966   -2.4265 C   0  0  0  0  0  0  0  0  0  0  0  0
   -4.0567   -0.8703    2.0876 C   0  0  1  0  0  0  0  0  0  0  0  0
   -2.8761   -0.7060    2.8525 O   0  0  0  0  0  0  0  0  0  0  0  0
   -6.0514    5.4524   -2.0633 H   0  0  0  0  0  0  0  0  0  0  0  0
   -5.4515    3.7631   -2.2695 H   0  0  0  0  0  0  0  0  0  0  0  0
   -4.8399    4.7905   -0.9035 H   0  0  0  0  0  0  0  0  0  0  0  0
   -7.7703    4.6071   -0.6361 H   0  0  0  0  0  0  0  0  0  0  0  0
   -7.5912    2.7041    0.7622 H   0  0  0  0  0  0  0  0  0  0  0  0
   -4.7740    2.3718   -0.4461 H   0  0  0  0  0  0  0  0  0  0  0  0
   -4.1635   -0.0873    0.0069 H   0  0  0  0  0  0  0  0  0  0  0  0
   -2.8923    1.8372    1.8789 H   0  0  0  0  0  0  0  0  0  0  0  0
   -0.4012    1.5223    1.7691 H   0  0  0  0  0  0  0  0  0  0  0  0
    0.3860    3.5597    0.5839 H   0  0  0  0  0  0  0  0  0  0  0  0
   -1.3797    3.5719    0.9125 H   0  0  0  0  0  0  0  0  0  0  0  0
   -0.8300    5.4648   -0.8829 H   0  0  0  0  0  0  0  0  0  0  0  0
   -1.1643    4.9221   -2.5384 H   0  0  0  0  0  0  0  0  0  0  0  0
    0.6850    0.9545   -1.0129 H   0  0  0  0  0  0  0  0  0  0  0  0
    2.6900   -0.2904   -1.0629 H   0  0  0  0  0  0  0  0  0  0  0  0
    4.0550   -0.1503    1.6436 H   0  0  0  0  0  0  0  0  0  0  0  0
    7.0616    2.4601   -0.6752 H   0  0  0  0  0  0  0  0  0  0  0  0
    8.2035   -0.4170   -0.7690 H   0  0  0  0  0  0  0  0  0  0  0  0
    8.7630    0.9780   -1.7745 H   0  0  0  0  0  0  0  0  0  0  0  0
    7.1119    0.3316   -1.9735 H   0  0  0  0  0  0  0  0  0  0  0  0
    8.2062    2.7066    1.5120 H   0  0  0  0  0  0  0  0  0  0  0  0
    9.3487    2.4858    0.1497 H   0  0  0  0  0  0  0  0  0  0  0  0
    8.6002    0.2727    2.1798 H   0  0  0  0  0  0  0  0  0  0  0  0
   10.1016    1.2513    2.1445 H   0  0  0  0  0  0  0  0  0  0  0  0
    9.7581    0.1153    0.8057 H   0  0  0  0  0  0  0  0  0  0  0  0
    2.5813   -2.3262    1.2738 H   0  0  0  0  0  0  0  0  0  0  0  0
    3.7478   -2.3738   -0.0703 H   0  0  0  0  0  0  0  0  0  0  0  0
   -0.0270   -2.0620    0.2122 H   0  0  0  0  0  0  0  0  0  0  0  0
   -1.6828   -5.0493   -3.1935 H   0  0  0  0  0  0  0  0  0  0  0  0
    1.8585   -5.0280   -3.2830 H   0  0  0  0  0  0  0  0  0  0  0  0
    3.3504   -3.7822   -1.8058 H   0  0  0  0  0  0  0  0  0  0  0  0
   -1.2246   -3.9649    1.4022 H   0  0  0  0  0  0  0  0  0  0  0  0
   -5.4610   -3.8680    1.5567 H   0  0  0  0  0  0  0  0  0  0  0  0
   -5.6110   -1.8018   -0.9401 H   0  0  0  0  0  0  0  0  0  0  0  0
   -4.5895   -2.0761   -3.1911 H   0  0  0  0  0  0  0  0  0  0  0  0
   -2.2574   -2.8255   -3.4122 H   0  0  0  0  0  0  0  0  0  0  0  0
   -4.8400   -0.7423    2.8623 H   0  0  0  0  0  0  0  0  0  0  0  0
   -2.0936   -0.8924    2.2691 H   0  0  0  0  0  0  0  0  0  0  0  0
  1  2  1  0  0  0  0
  1 50  1  0  0  0  0
  1 51  1  0  0  0  0
  1 52  1  0  0  0  0
  2  3  2  0  0  0  0
  2 53  1  0  0  0  0
  3  4  1  0  0  0  0
  3 54  1  0  0  0  0
  4  5  1  0  0  0  0
  4 55  1  0  0  0  0
  5  6  2  0  0  0  0
  7  5  1  0  0  0  0
  7  8  1  0  0  0  0
  7 56  1  6  0  0  0
  8  9  1  0  0  0  0
  8 57  1  0  0  0  0
  9 10  2  0  0  0  0
  9 11  1  0  0  0  0
 11 12  1  0  0  0  0
 11 16  1  0  0  0  0
 11 58  1  1  0  0  0
 12 13  1  0  0  0  0
 12 59  1  0  0  0  0
 12 60  1  0  0  0  0
 13 14  1  0  0  0  0
 13 15  2  0  0  0  0
 14 61  1  0  0  0  0
 14 62  1  0  0  0  0
 16 17  1  0  0  0  0
 16 63  1  0  0  0  0
 17 18  2  0  0  0  0
 17 19  1  0  0  0  0
 19 20  1  0  0  0  0
 19 29  1  0  0  0  0
 19 64  1  6  0  0  0
 20 21  1  0  0  0  0
 20 65  1  0  0  0  0
 21 22  2  0  0  0  0
 21 23  1  0  0  0  0
 23 24  2  0  0  0  0
 23 25  1  0  0  0  0
 25 26  1  0  0  0  0
 25 27  1  0  0  0  0
 25 66  1  6  0  0  0
 26 67  1  0  0  0  0
 26 68  1  0  0  0  0
 26 69  1  0  0  0  0
 27 28  1  0  0  0  0
 27 70  1  0  0  0  0
 27 71  1  0  0  0  0
 28 72  1  0  0  0  0
 28 73  1  0  0  0  0
 28 74  1  0  0  0  0
 29 30  1  0  0  0  0
 29 75  1  0  0  0  0
 29 76  1  0  0  0  0
 30 31  1  0  0  0  0
 31 32  2  0  0  0  0
 31 77  1  0  0  0  0
 32 33  1  0  0  0  0
 32 37  1  0  0  0  0
 33 34  1  0  0  0  0
 33 35  2  0  0  0  0
 34 78  1  0  0  0  0
 35 36  1  0  0  0  0
 35 79  1  0  0  0  0
 36 30  2  0  0  0  0
 36 80  1  0  0  0  0
 37 38  2  0  0  0  0
 38 39  1  0  0  0  0
 39 40  1  0  0  0  0
 39 81  1  0  0  0  0
 40 41  2  0  0  0  0
 40 42  1  0  0  0  0
 42 43  1  1  0  0  0
 42 44  1  0  0  0  0
 42 48  1  0  0  0  0
 43 82  1  0  0  0  0
 44 45  2  0  0  0  0
 44 38  1  0  0  0  0
 45 46  1  0  0  0  0
 45 83  1  0  0  0  0
 46 47  2  0  0  0  0
 46 84  1  0  0  0  0
 47 37  1  0  0  0  0
 47 85  1  0  0  0  0
 48 49  1  0  0  0  0
 48  7  1  0  0  0  0
 48 86  1  1  0  0  0
 49 87  1  0  0  0  0
M  END
>  <IDENTIFIER>
CNP0218100.1

>  <Energy>
914.751

$$$$
