
 OpenBabel09062513593D

 52 56  0  0  0  0  0  0  0  0999 V2000
   -4.6071    0.1094   -1.5774 C   0  0  0  0  0  0  0  0  0  0  0  0
   -3.5324   -0.1080   -0.4789 C   0  0  1  0  0  0  0  0  0  0  0  0
   -4.0033   -1.3629    0.2812 C   0  0  0  0  0  0  0  0  0  0  0  0
   -4.3173   -1.3151    1.4593 O   0  0  0  0  0  0  0  0  0  0  0  0
   -4.1163   -2.5533   -0.3533 O   0  0  0  0  0  0  0  0  0  0  0  0
   -2.0886   -0.3698   -1.0684 C   0  0  1  0  0  0  0  0  0  0  0  0
   -1.6790    0.7734   -2.0391 C   0  0  0  0  0  0  0  0  0  0  0  0
   -0.3404    0.4816   -2.6825 C   0  0  0  0  0  0  0  0  0  0  0  0
    0.7268    0.3321   -1.6495 C   0  0  0  0  0  0  0  0  0  0  0  0
    2.0504    0.6643   -2.0197 C   0  0  0  0  0  0  0  0  0  0  0  0
    3.0626    0.4903   -1.0892 C   0  0  0  0  0  0  0  0  0  0  0  0
    2.7999    0.0093    0.1687 C   0  0  0  0  0  0  0  0  0  0  0  0
    1.5155   -0.3297    0.5748 C   0  0  0  0  0  0  0  0  0  0  0  0
    0.4341   -0.1778   -0.3420 C   0  0  0  0  0  0  0  0  0  0  0  0
   -0.9957   -0.6095    0.0898 C   0  0  2  0  0  0  0  0  0  0  0  0
   -0.8885   -2.1299    0.3978 C   0  0  0  0  0  0  0  0  0  0  0  0
   -1.4191    0.1104    1.4305 C   0  0  0  0  0  0  0  0  0  0  0  0
   -2.1271    1.4291    1.1725 C   0  0  0  0  0  0  0  0  0  0  0  0
   -3.4762    1.2067    0.4076 C   0  0  2  0  0  0  0  0  0  0  0  0
   -4.6093    1.3091    1.2411 O   0  0  0  0  0  0  0  0  0  0  0  0
    4.0112   -0.0496    0.8206 C   0  0  0  0  0  0  0  0  0  0  0  0
    4.3565   -0.4606    2.1069 C   0  0  0  0  0  0  0  0  0  0  0  0
    5.7156   -0.4053    2.4669 C   0  0  0  0  0  0  0  0  0  0  0  0
    6.6848    0.0527    1.5452 C   0  0  0  0  0  0  0  0  0  0  0  0
    6.3065    0.4622    0.2529 C   0  0  0  0  0  0  0  0  0  0  0  0
    4.9543    0.3989   -0.0803 C   0  0  0  0  0  0  0  0  0  0  0  0
    4.3815    0.7357   -1.2557 N   0  0  0  0  0  0  0  0  0  0  0  0
   -4.6409   -0.7425   -2.2887 H   0  0  0  0  0  0  0  0  0  0  0  0
   -4.4350    1.0347   -2.1620 H   0  0  0  0  0  0  0  0  0  0  0  0
   -5.6128    0.2175   -1.1155 H   0  0  0  0  0  0  0  0  0  0  0  0
   -3.8880   -2.6771   -1.2839 H   0  0  0  0  0  0  0  0  0  0  0  0
   -2.1061   -1.2683   -1.7248 H   0  0  0  0  0  0  0  0  0  0  0  0
   -1.6211    1.7583   -1.5426 H   0  0  0  0  0  0  0  0  0  0  0  0
   -2.4024    0.8609   -2.8734 H   0  0  0  0  0  0  0  0  0  0  0  0
   -0.0978    1.3219   -3.3709 H   0  0  0  0  0  0  0  0  0  0  0  0
   -0.3896   -0.4511   -3.2852 H   0  0  0  0  0  0  0  0  0  0  0  0
    2.2826    1.0358   -3.0108 H   0  0  0  0  0  0  0  0  0  0  0  0
    1.3735   -0.7172    1.5736 H   0  0  0  0  0  0  0  0  0  0  0  0
   -0.1521   -2.3406    1.2001 H   0  0  0  0  0  0  0  0  0  0  0  0
   -0.5717   -2.6859   -0.5109 H   0  0  0  0  0  0  0  0  0  0  0  0
   -1.8367   -2.5676    0.7505 H   0  0  0  0  0  0  0  0  0  0  0  0
   -0.5557    0.2560    2.1089 H   0  0  0  0  0  0  0  0  0  0  0  0
   -2.1279   -0.5064    2.0138 H   0  0  0  0  0  0  0  0  0  0  0  0
   -1.4187    2.0411    0.5788 H   0  0  0  0  0  0  0  0  0  0  0  0
   -2.3064    2.0085    2.1041 H   0  0  0  0  0  0  0  0  0  0  0  0
   -3.5265    2.1042   -0.2472 H   0  0  0  0  0  0  0  0  0  0  0  0
   -4.3643    1.0150    2.1561 H   0  0  0  0  0  0  0  0  0  0  0  0
    3.6091   -0.8122    2.8061 H   0  0  0  0  0  0  0  0  0  0  0  0
    6.0212   -0.7175    3.4570 H   0  0  0  0  0  0  0  0  0  0  0  0
    7.7268    0.0872    1.8355 H   0  0  0  0  0  0  0  0  0  0  0  0
    7.0429    0.8119   -0.4590 H   0  0  0  0  0  0  0  0  0  0  0  0
    4.8561    1.1001   -2.1119 H   0  0  0  0  0  0  0  0  0  0  0  0
  1 28  1  0  0  0  0
  1 29  1  0  0  0  0
  1 30  1  0  0  0  0
  2  1  1  0  0  0  0
  2  3  1  1  0  0  0
  2  6  1  0  0  0  0
  3  4  2  0  0  0  0
  3  5  1  0  0  0  0
  5 31  1  0  0  0  0
  6  7  1  0  0  0  0
  6 32  1  6  0  0  0
  7  8  1  0  0  0  0
  7 33  1  0  0  0  0
  7 34  1  0  0  0  0
  8  9  1  0  0  0  0
  8 35  1  0  0  0  0
  8 36  1  0  0  0  0
  9 10  2  0  0  0  0
 10 11  1  0  0  0  0
 10 37  1  0  0  0  0
 11 12  2  0  0  0  0
 12 13  1  0  0  0  0
 12 21  1  0  0  0  0
 13 14  2  0  0  0  0
 13 38  1  0  0  0  0
 14 15  1  0  0  0  0
 14  9  1  0  0  0  0
 15 16  1  1  0  0  0
 15 17  1  0  0  0  0
 15  6  1  0  0  0  0
 16 39  1  0  0  0  0
 16 40  1  0  0  0  0
 16 41  1  0  0  0  0
 17 18  1  0  0  0  0
 17 42  1  0  0  0  0
 17 43  1  0  0  0  0
 18 19  1  0  0  0  0
 18 44  1  0  0  0  0
 18 45  1  0  0  0  0
 19 20  1  0  0  0  0
 19  2  1  0  0  0  0
 19 46  1  6  0  0  0
 20 47  1  0  0  0  0
 21 22  2  0  0  0  0
 22 23  1  0  0  0  0
 22 48  1  0  0  0  0
 23 24  2  0  0  0  0
 23 49  1  0  0  0  0
 24 25  1  0  0  0  0
 24 50  1  0  0  0  0
 25 26  2  0  0  0  0
 25 51  1  0  0  0  0
 26 27  1  0  0  0  0
 26 21  1  0  0  0  0
 27 11  1  0  0  0  0
 27 52  1  0  0  0  0
M  END
>  <IDENTIFIER>
CNP0134030.3

>  <Energy>
700.146

$$$$
