
 OpenBabel09122511272D

116115  0  0  0  0  0  0  0  0999 V2000
    9.0933    5.2500    0.0000 C   0  0  0  0  0  0  0  0  0  0  0  0
    7.7942    4.5000    0.0000 C   0  0  0  0  0  0  0  0  0  0  0  0
    6.4952    3.7500    0.0000 C   0  0  0  0  0  0  0  0  0  0  0  0
    5.1962    3.0000    0.0000 C   0  0  0  0  0  0  0  0  0  0  0  0
    3.5310    2.9753   -0.1793 C   0  0  0  0  0  0  0  0  0  0  0  0
    2.7036    1.5100   -0.0015 C   0  0  0  0  0  0  0  0  0  0  0  0
    1.0483    1.2647   -0.2082 C   0  0  0  0  0  0  0  0  0  0  0  0
    0.3282   -0.2040    0.0257 C   0  0  0  0  0  0  0  0  0  0  0  0
    1.0758   -1.0921    0.4028 O   0  0  0  0  0  0  0  0  0  0  0  0
   -1.0706   -0.5550   -0.1695 O   0  0  0  0  0  0  0  0  0  0  0  0
   -1.7071   -1.8529    0.1331 C   0  0  0  0  0  0  0  0  0  0  0  0
   -3.3033   -2.2805   -0.2351 C   0  0  1  0  0  0  0  0  0  0  0  0
   -3.6799   -3.8847    0.1475 C   0  0  0  0  0  0  0  0  0  0  0  0
   -4.9763   -4.5658   -0.0659 O   0  0  0  0  0  0  0  0  0  0  0  0
   -5.1962   -6.0000    0.0000 C   0  0  0  0  0  0  0  0  0  0  0  0
   -4.1717   -6.6839    0.0043 O   0  0  0  0  0  0  0  0  0  0  0  0
   -6.4952   -6.7500    0.0000 C   0  0  0  0  0  0  0  0  0  0  0  0
   -7.7942   -7.5000    0.0000 C   0  0  0  0  0  0  0  0  0  0  0  0
   -9.0933   -8.2500    0.0000 C   0  0  0  0  0  0  0  0  0  0  0  0
  -10.3923   -9.0000    0.0000 C   0  0  0  0  0  0  0  0  0  0  0  0
  -11.6913   -9.7500    0.0000 C   0  0  0  0  0  0  0  0  0  0  0  0
  -13.3328  -10.0811    0.1429 C   0  0  0  0  0  0  0  0  0  0  0  0
  -13.9926  -11.5794   -0.3280 C   0  0  0  0  0  0  0  0  0  0  0  0
  -15.5885  -12.0000    0.0000 C   0  0  0  0  0  0  0  0  0  0  0  0
  -16.8875  -12.7500    0.0000 C   0  0  0  0  0  0  0  0  0  0  0  0
  -18.1865  -13.5000    0.0000 C   0  0  0  0  0  0  0  0  0  0  0  0
  -16.1375  -14.0490    0.0000 C   0  0  0  0  0  0  0  0  0  0  0  0
   -4.2136   -1.3896    0.3757 O   0  0  0  0  0  0  0  0  0  0  0  0
   -5.0538   -0.4825   -0.2544 C   0  0  0  0  0  0  0  0  0  0  0  0
   -5.0461   -0.3785   -1.4726 O   0  0  0  0  0  0  0  0  0  0  0  0
   -5.9663    0.4442    0.5736 C   0  0  0  0  0  0  0  0  0  0  0  0
   -6.7853    1.5719   -0.1875 C   0  0  0  0  0  0  0  0  0  0  0  0
   -7.5151    2.5319    0.8233 C   0  0  0  0  0  0  0  0  0  0  0  0
   -7.9327    3.9949    0.3896 C   0  0  0  0  0  0  0  0  0  0  0  0
   -9.4031    4.5075    0.0048 C   0  0  0  0  0  0  0  0  0  0  0  0
   -9.3481    6.0933    0.0000 C   0  0  0  0  0  0  0  0  0  0  0  0
  -10.0981    7.3923    0.0000 C   0  0  0  0  0  0  0  0  0  0  0  0
  -10.8481    8.6913    0.0000 C   0  0  0  0  0  0  0  0  0  0  0  0
  -10.6628   10.2399   -0.6097 C   0  0  0  0  0  0  0  0  0  0  0  0
  -11.8688   11.4531   -0.5367 C   0  0  0  0  0  0  0  0  0  0  0  0
  -13.0981   12.5885    0.0000 C   0  0  3  0  0  0  0  0  0  0  0  0
  -13.8481   13.8875    0.0000 C   0  0  0  0  0  0  0  0  0  0  0  0
  -14.3971   11.8385    0.0000 C   0  0  0  0  0  0  0  0  0  0  0  0
  -15.6962   11.0885    0.0000 C   0  0  0  0  0  0  0  0  0  0  0  0
    9.7653    4.3599    0.0833 H   0  0  0  0  0  0  0  0  0  0  0  0
    9.0969    5.5023   -1.0908 H   0  0  0  0  0  0  0  0  0  0  0  0
   10.0200    5.7850    0.0000 H   0  0  0  0  0  0  0  0  0  0  0  0
    7.3317    5.5367   -0.0486 H   0  0  0  0  0  0  0  0  0  0  0  0
    7.9782    4.1815    1.0619 H   0  0  0  0  0  0  0  0  0  0  0  0
    5.9670    4.4111    0.7565 H   0  0  0  0  0  0  0  0  0  0  0  0
    6.2919    4.0773   -1.0533 H   0  0  0  0  0  0  0  0  0  0  0  0
    5.2654    2.4665    0.9808 H   0  0  0  0  0  0  0  0  0  0  0  0
    5.4382    2.1914   -0.7319 H   0  0  0  0  0  0  0  0  0  0  0  0
    3.3058    3.3620   -1.1948 H   0  0  0  0  0  0  0  0  0  0  0  0
    3.1018    3.6888    0.5553 H   0  0  0  0  0  0  0  0  0  0  0  0
    3.1929    0.8023   -0.7029 H   0  0  0  0  0  0  0  0  0  0  0  0
    2.9364    1.1597    1.0258 H   0  0  0  0  0  0  0  0  0  0  0  0
    0.8193    1.5687   -1.2506 H   0  0  0  0  0  0  0  0  0  0  0  0
    0.5327    1.9769    0.4688 H   0  0  0  0  0  0  0  0  0  0  0  0
   -1.5888   -2.0218    1.2241 H   0  0  0  0  0  0  0  0  0  0  0  0
   -1.0898   -2.6259   -0.3712 H   0  0  0  0  0  0  0  0  0  0  0  0
   -3.3968   -2.1985   -1.3391 H   0  0  0  0  0  0  0  0  0  0  0  0
   -2.9172   -4.4708   -0.4075 H   0  0  0  0  0  0  0  0  0  0  0  0
   -3.4358   -4.0094    1.2233 H   0  0  0  0  0  0  0  0  0  0  0  0
   -6.2181   -7.1984   -0.9891 H   0  0  0  0  0  0  0  0  0  0  0  0
   -6.0814   -7.2318    0.9466 H   0  0  0  0  0  0  0  0  0  0  0  0
   -8.0201   -7.1048    1.0452 H   0  0  0  0  0  0  0  0  0  0  0  0
   -7.3030   -8.5225    0.1175 H   0  0  0  0  0  0  0  0  0  0  0  0
   -9.5826   -7.2170   -0.0748 H   0  0  0  0  0  0  0  0  0  0  0  0
   -8.9141   -8.6023   -1.0575 H   0  0  0  0  0  0  0  0  0  0  0  0
  -10.9405   -8.3501   -0.7600 H   0  0  0  0  0  0  0  0  0  0  0  0
  -10.5934   -8.6585    1.0488 H   0  0  0  0  0  0  0  0  0  0  0  0
  -11.5961  -10.2353   -1.0081 H   0  0  0  0  0  0  0  0  0  0  0  0
  -11.3736  -10.5728    0.6859 H   0  0  0  0  0  0  0  0  0  0  0  0
  -13.5888   -9.9225    1.2119 H   0  0  0  0  0  0  0  0  0  0  0  0
  -13.8792   -9.3107   -0.4403 H   0  0  0  0  0  0  0  0  0  0  0  0
  -13.3667  -12.3755    0.1276 H   0  0  0  0  0  0  0  0  0  0  0  0
  -13.8516  -11.6444   -1.4272 H   0  0  0  0  0  0  0  0  0  0  0  0
  -15.9928  -10.9913   -0.2677 H   0  0  0  0  0  0  0  0  0  0  0  0
  -15.4878  -11.8970    1.1084 H   0  0  0  0  0  0  0  0  0  0  0  0
  -17.0487  -12.5185   -1.0909 H   0  0  0  0  0  0  0  0  0  0  0  0
  -18.8544  -12.6123   -0.1325 H   0  0  0  0  0  0  0  0  0  0  0  0
  -18.2277  -13.7032    1.1013 H   0  0  0  0  0  0  0  0  0  0  0  0
  -19.1131  -14.0350    0.0000 H   0  0  0  0  0  0  0  0  0  0  0  0
  -15.7585  -14.1045    1.0574 H   0  0  0  0  0  0  0  0  0  0  0  0
  -15.5279  -14.0598   -0.9536 H   0  0  0  0  0  0  0  0  0  0  0  0
  -15.6025  -14.9756    0.0000 H   0  0  0  0  0  0  0  0  0  0  0  0
   -6.6692   -0.1823    1.1617 H   0  0  0  0  0  0  0  0  0  0  0  0
   -5.2864    0.9584    1.2874 H   0  0  0  0  0  0  0  0  0  0  0  0
   -6.0432    2.1746   -0.7545 H   0  0  0  0  0  0  0  0  0  0  0  0
   -7.5127    1.1400   -0.9065 H   0  0  0  0  0  0  0  0  0  0  0  0
   -8.3134    2.0297    1.4085 H   0  0  0  0  0  0  0  0  0  0  0  0
   -6.6967    2.7285    1.5547 H   0  0  0  0  0  0  0  0  0  0  0  0
   -7.1824    4.3754   -0.3371 H   0  0  0  0  0  0  0  0  0  0  0  0
   -7.7338    4.5474    1.3348 H   0  0  0  0  0  0  0  0  0  0  0  0
  -10.1076    4.1798    0.7985 H   0  0  0  0  0  0  0  0  0  0  0  0
   -9.7371    4.1043   -0.9737 H   0  0  0  0  0  0  0  0  0  0  0  0
   -8.5421    6.2849   -0.7512 H   0  0  0  0  0  0  0  0  0  0  0  0
   -8.8515    6.2815    0.9801 H   0  0  0  0  0  0  0  0  0  0  0  0
  -10.3746    7.2317   -1.0717 H   0  0  0  0  0  0  0  0  0  0  0  0
  -10.8547    6.9024    0.6699 H   0  0  0  0  0  0  0  0  0  0  0  0
  -11.8971    8.4547   -0.3224 H   0  0  0  0  0  0  0  0  0  0  0  0
  -10.9335    8.9414    1.0856 H   0  0  0  0  0  0  0  0  0  0  0  0
   -9.7689   10.6428   -0.0842 H   0  0  0  0  0  0  0  0  0  0  0  0
  -10.3654   10.1495   -1.6772 H   0  0  0  0  0  0  0  0  0  0  0  0
  -12.0247   10.8946    0.4023 H   0  0  0  0  0  0  0  0  0  0  0  0
  -12.3779   11.0910   -1.4526 H   0  0  0  0  0  0  0  0  0  0  0  0
  -12.7624   12.7039    1.0671 H   0  0  0  0  0  0  0  0  0  0  0  0
  -12.9620   14.5490    0.1560 H   0  0  0  0  0  0  0  0  0  0  0  0
  -14.0503   13.9394   -1.1006 H   0  0  0  0  0  0  0  0  0  0  0  0
  -14.3831   14.8141    0.0000 H   0  0  0  0  0  0  0  0  0  0  0  0
  -14.3408   11.6862   -1.1098 H   0  0  0  0  0  0  0  0  0  0  0  0
  -14.0068   10.9543    0.5462 H   0  0  0  0  0  0  0  0  0  0  0  0
  -16.2916   11.8214   -0.6025 H   0  0  0  0  0  0  0  0  0  0  0  0
  -15.9655   11.3000    1.0657 H   0  0  0  0  0  0  0  0  0  0  0  0
  -16.6229   10.5535    0.0000 H   0  0  0  0  0  0  0  0  0  0  0  0
  1  2  1  0  0  0  0
  1 45  1  0  0  0  0
  1 46  1  0  0  0  0
  1 47  1  0  0  0  0
  2  3  1  0  0  0  0
  2 48  1  0  0  0  0
  2 49  1  0  0  0  0
  3  4  1  0  0  0  0
  3 50  1  0  0  0  0
  3 51  1  0  0  0  0
  4  5  1  0  0  0  0
  4 52  1  0  0  0  0
  4 53  1  0  0  0  0
  5  6  1  0  0  0  0
  5 54  1  0  0  0  0
  5 55  1  0  0  0  0
  6  7  1  0  0  0  0
  6 56  1  0  0  0  0
  6 57  1  0  0  0  0
  7  8  1  0  0  0  0
  7 58  1  0  0  0  0
  7 59  1  0  0  0  0
  8  9  2  0  0  0  0
  8 10  1  0  0  0  0
 10 11  1  0  0  0  0
 11 60  1  0  0  0  0
 11 61  1  0  0  0  0
 12 11  1  0  0  0  0
 12 13  1  0  0  0  0
 12 28  1  0  0  0  0
 12 62  1  6  0  0  0
 13 14  1  0  0  0  0
 13 63  1  0  0  0  0
 13 64  1  0  0  0  0
 14 15  1  0  0  0  0
 15 16  2  0  0  0  0
 15 17  1  0  0  0  0
 17 18  1  0  0  0  0
 17 65  1  0  0  0  0
 17 66  1  0  0  0  0
 18 19  1  0  0  0  0
 18 67  1  0  0  0  0
 18 68  1  0  0  0  0
 19 20  1  0  0  0  0
 19 69  1  0  0  0  0
 19 70  1  0  0  0  0
 20 21  1  0  0  0  0
 20 71  1  0  0  0  0
 20 72  1  0  0  0  0
 21 22  1  0  0  0  0
 21 73  1  0  0  0  0
 21 74  1  0  0  0  0
 22 23  1  0  0  0  0
 22 75  1  0  0  0  0
 22 76  1  0  0  0  0
 23 24  1  0  0  0  0
 23 77  1  0  0  0  0
 23 78  1  0  0  0  0
 24 25  1  0  0  0  0
 24 79  1  0  0  0  0
 24 80  1  0  0  0  0
 25 26  1  0  0  0  0
 25 27  1  0  0  0  0
 25 81  1  0  0  0  0
 26 82  1  0  0  0  0
 26 83  1  0  0  0  0
 26 84  1  0  0  0  0
 27 85  1  0  0  0  0
 27 86  1  0  0  0  0
 27 87  1  0  0  0  0
 28 29  1  0  0  0  0
 29 30  2  0  0  0  0
 29 31  1  0  0  0  0
 31 32  1  0  0  0  0
 31 88  1  0  0  0  0
 31 89  1  0  0  0  0
 32 33  1  0  0  0  0
 32 90  1  0  0  0  0
 32 91  1  0  0  0  0
 33 34  1  0  0  0  0
 33 92  1  0  0  0  0
 33 93  1  0  0  0  0
 34 35  1  0  0  0  0
 34 94  1  0  0  0  0
 34 95  1  0  0  0  0
 35 36  1  0  0  0  0
 35 96  1  0  0  0  0
 35 97  1  0  0  0  0
 36 37  1  0  0  0  0
 36 98  1  0  0  0  0
 36 99  1  0  0  0  0
 37 38  1  0  0  0  0
 37100  1  0  0  0  0
 37101  1  0  0  0  0
 38 39  1  0  0  0  0
 38102  1  0  0  0  0
 38103  1  0  0  0  0
 39 40  1  0  0  0  0
 39104  1  0  0  0  0
 39105  1  0  0  0  0
 40 41  1  0  0  0  0
 40106  1  0  0  0  0
 40107  1  0  0  0  0
 41 42  1  0  0  0  0
 41 43  1  0  0  0  0
 41108  1  0  0  0  0
 42109  1  0  0  0  0
 42110  1  0  0  0  0
 42111  1  0  0  0  0
 43 44  1  0  0  0  0
 43112  1  0  0  0  0
 43113  1  0  0  0  0
 44114  1  0  0  0  0
 44115  1  0  0  0  0
 44116  1  0  0  0  0
M  END
>  <IDENTIFIER>
CNP0545794.1

>  <Energy>
8244.6

$$$$
