
 OpenBabel09132508423D

 48 51  0  0  0  0  0  0  0  0999 V2000
   -6.2328    2.5426    1.7970 C   0  0  0  0  0  0  0  0  0  0  0  0
   -6.5964    1.5781    0.8803 O   0  0  0  0  0  0  0  0  0  0  0  0
   -5.7407    0.7511    0.2265 C   0  0  0  0  0  0  0  0  0  0  0  0
   -6.2823   -0.1703   -0.7047 C   0  0  0  0  0  0  0  0  0  0  0  0
   -5.4497   -1.0474   -1.4208 C   0  0  0  0  0  0  0  0  0  0  0  0
   -4.0808   -0.9817   -1.1876 C   0  0  0  0  0  0  0  0  0  0  0  0
   -3.1144   -1.7193   -1.7703 N   0  0  0  0  0  0  0  0  0  0  0  0
   -1.9562   -1.2871   -1.2294 C   0  0  0  0  0  0  0  0  0  0  0  0
   -2.1806   -0.2842   -0.3036 C   0  0  0  0  0  0  0  0  0  0  0  0
   -1.0887    0.3936    0.4787 C   0  0  0  0  0  0  0  0  0  0  0  0
    0.2358   -0.0990    0.0637 N   0  0  0  0  0  0  0  0  0  0  0  0
    1.3022   -0.0141    0.9318 C   0  0  0  0  0  0  0  0  0  0  0  0
    1.1460    0.4452    2.0550 O   0  0  0  0  0  0  0  0  0  0  0  0
    2.6789   -0.4855    0.5201 C   0  0  0  0  0  0  0  0  0  0  0  0
    3.7831   -0.3700    1.5863 C   0  0  0  0  0  0  0  0  0  0  0  0
    5.0989   -0.9214    1.0096 C   0  0  0  0  0  0  0  0  0  0  0  0
    5.5285   -0.1197   -0.1376 N   0  0  0  0  0  0  0  0  0  0  0  0
    6.0727    1.1116   -0.0895 C   0  0  0  0  0  0  0  0  0  0  0  0
    6.3197    1.5561   -1.3727 C   0  0  0  0  0  0  0  0  0  0  0  0
    5.8977    0.5565   -2.2277 C   0  0  0  0  0  0  0  0  0  0  0  0
    5.4239   -0.4686   -1.4355 C   0  0  0  0  0  0  0  0  0  0  0  0
    0.3846   -0.6231   -1.3070 C   0  0  0  0  0  0  0  0  0  0  0  0
   -0.5894   -1.7789   -1.5493 C   0  0  0  0  0  0  0  0  0  0  0  0
   -3.5445   -0.0941   -0.2846 C   0  0  0  0  0  0  0  0  0  0  0  0
   -4.3399    0.7872    0.4445 C   0  0  0  0  0  0  0  0  0  0  0  0
   -7.1435    3.0634    2.1561 H   0  0  0  0  0  0  0  0  0  0  0  0
   -5.5618    3.2894    1.3207 H   0  0  0  0  0  0  0  0  0  0  0  0
   -5.7245    2.0733    2.6660 H   0  0  0  0  0  0  0  0  0  0  0  0
   -7.3506   -0.1992   -0.8721 H   0  0  0  0  0  0  0  0  0  0  0  0
   -5.8629   -1.7498   -2.1357 H   0  0  0  0  0  0  0  0  0  0  0  0
   -3.2338   -2.4654   -2.4919 H   0  0  0  0  0  0  0  0  0  0  0  0
   -1.2799    0.1540    1.5476 H   0  0  0  0  0  0  0  0  0  0  0  0
   -1.1288    1.4935    0.3373 H   0  0  0  0  0  0  0  0  0  0  0  0
    2.9759    0.1180   -0.3628 H   0  0  0  0  0  0  0  0  0  0  0  0
    2.5999   -1.5584    0.2377 H   0  0  0  0  0  0  0  0  0  0  0  0
    3.4982   -0.9765    2.4734 H   0  0  0  0  0  0  0  0  0  0  0  0
    3.9158    0.6873    1.9026 H   0  0  0  0  0  0  0  0  0  0  0  0
    4.9168   -1.9719    0.6903 H   0  0  0  0  0  0  0  0  0  0  0  0
    5.9059   -0.9411    1.7731 H   0  0  0  0  0  0  0  0  0  0  0  0
    6.2843    1.6549    0.8225 H   0  0  0  0  0  0  0  0  0  0  0  0
    6.7528    2.5061   -1.6549 H   0  0  0  0  0  0  0  0  0  0  0  0
    5.9267    0.5758   -3.3088 H   0  0  0  0  0  0  0  0  0  0  0  0
    5.0021   -1.4007   -1.7899 H   0  0  0  0  0  0  0  0  0  0  0  0
    1.4023   -0.9737   -1.5574 H   0  0  0  0  0  0  0  0  0  0  0  0
    0.1498    0.1970   -2.0224 H   0  0  0  0  0  0  0  0  0  0  0  0
   -0.3414   -2.6330   -0.8824 H   0  0  0  0  0  0  0  0  0  0  0  0
   -0.5310   -2.1069   -2.6092 H   0  0  0  0  0  0  0  0  0  0  0  0
   -3.8805    1.4742    1.1422 H   0  0  0  0  0  0  0  0  0  0  0  0
  1  2  1  0  0  0  0
  1 26  1  0  0  0  0
  1 27  1  0  0  0  0
  1 28  1  0  0  0  0
  2  3  1  0  0  0  0
  3  4  2  0  0  0  0
  4  5  1  0  0  0  0
  4 29  1  0  0  0  0
  5  6  2  0  0  0  0
  5 30  1  0  0  0  0
  6  7  1  0  0  0  0
  7  8  1  0  0  0  0
  7 31  1  0  0  0  0
  8  9  2  0  0  0  0
  9 10  1  0  0  0  0
  9 24  1  0  0  0  0
 10 11  1  0  0  0  0
 10 32  1  0  0  0  0
 10 33  1  0  0  0  0
 11 12  1  0  0  0  0
 11 22  1  0  0  0  0
 12 13  2  0  0  0  0
 12 14  1  0  0  0  0
 14 15  1  0  0  0  0
 14 34  1  0  0  0  0
 14 35  1  0  0  0  0
 15 16  1  0  0  0  0
 15 36  1  0  0  0  0
 15 37  1  0  0  0  0
 16 17  1  0  0  0  0
 16 38  1  0  0  0  0
 16 39  1  0  0  0  0
 17 18  1  0  0  0  0
 18 19  2  0  0  0  0
 18 40  1  0  0  0  0
 19 20  1  0  0  0  0
 19 41  1  0  0  0  0
 20 21  2  0  0  0  0
 20 42  1  0  0  0  0
 21 17  1  0  0  0  0
 21 43  1  0  0  0  0
 22 23  1  0  0  0  0
 22 44  1  0  0  0  0
 22 45  1  0  0  0  0
 23  8  1  0  0  0  0
 23 46  1  0  0  0  0
 23 47  1  0  0  0  0
 24 25  2  0  0  0  0
 24  6  1  0  0  0  0
 25  3  1  0  0  0  0
 25 48  1  0  0  0  0
M  END
>  <IDENTIFIER>
CNP0413521.0

>  <Energy>
531.915

$$$$
