
 OpenBabel09102513193D

 54 57  0  0  0  0  0  0  0  0999 V2000
    7.1645    0.6182    2.9248 O   0  0  0  0  0  0  0  0  0  0  0  0
    6.1308    0.5241    2.0641 C   0  0  0  0  0  0  0  0  0  0  0  0
    5.2036    1.5670    1.9409 C   0  0  0  0  0  0  0  0  0  0  0  0
    4.1343    1.4621    1.0397 C   0  0  0  0  0  0  0  0  0  0  0  0
    3.2438    2.4704    0.9225 O   0  0  0  0  0  0  0  0  0  0  0  0
    3.9911    0.3026    0.2543 C   0  0  0  0  0  0  0  0  0  0  0  0
    2.8687    0.2051   -0.7048 C   0  0  0  0  0  0  0  0  0  0  0  0
    3.0187    0.6699   -2.0294 C   0  0  0  0  0  0  0  0  0  0  0  0
    4.1755    1.2139   -2.4682 O   0  0  0  0  0  0  0  0  0  0  0  0
    1.9508    0.5711   -2.9232 C   0  0  0  0  0  0  0  0  0  0  0  0
    0.7308    0.0160   -2.5219 C   0  0  0  0  0  0  0  0  0  0  0  0
   -0.2947   -0.0716   -3.3962 O   0  0  0  0  0  0  0  0  0  0  0  0
    0.5724   -0.4498   -1.2054 C   0  0  0  0  0  0  0  0  0  0  0  0
   -0.7266   -1.0272   -0.7960 C   0  0  0  0  0  0  0  0  0  0  0  0
   -0.9807   -2.4078   -0.9376 C   0  0  0  0  0  0  0  0  0  0  0  0
   -0.0481   -3.2457   -1.4457 O   0  0  0  0  0  0  0  0  0  0  0  0
   -2.2217   -2.9331   -0.5474 C   0  0  0  0  0  0  0  0  0  0  0  0
   -2.5129   -4.6623   -0.7373 Cl  0  0  0  0  0  0  0  0  0  0  0  0
   -3.2146   -2.0868   -0.0140 C   0  0  0  0  0  0  0  0  0  0  0  0
   -4.4185   -2.5715    0.3675 O   0  0  0  0  0  0  0  0  0  0  0  0
   -2.9586   -0.7114    0.1272 C   0  0  0  0  0  0  0  0  0  0  0  0
   -4.0034    0.1730    0.6889 C   0  0  0  0  0  0  0  0  0  0  0  0
   -4.0848    0.4017    2.0813 C   0  0  0  0  0  0  0  0  0  0  0  0
   -3.2276   -0.1781    2.9503 O   0  0  0  0  0  0  0  0  0  0  0  0
   -5.0731    1.2536    2.5862 C   0  0  0  0  0  0  0  0  0  0  0  0
   -5.9811    1.8815    1.7234 C   0  0  0  0  0  0  0  0  0  0  0  0
   -6.9330    2.7059    2.2055 O   0  0  0  0  0  0  0  0  0  0  0  0
   -5.9010    1.6546    0.3472 C   0  0  0  0  0  0  0  0  0  0  0  0
   -4.9166    0.8043   -0.1766 C   0  0  0  0  0  0  0  0  0  0  0  0
   -4.8412    0.5919   -1.5080 O   0  0  0  0  0  0  0  0  0  0  0  0
   -1.7124   -0.1792   -0.2646 C   0  0  0  0  0  0  0  0  0  0  0  0
   -1.4407    1.1411   -0.1392 O   0  0  0  0  0  0  0  0  0  0  0  0
    1.6453   -0.3549   -0.2904 C   0  0  0  0  0  0  0  0  0  0  0  0
    1.5220   -0.7927    0.9845 O   0  0  0  0  0  0  0  0  0  0  0  0
    4.9257   -0.7500    0.3826 C   0  0  0  0  0  0  0  0  0  0  0  0
    4.8291   -1.8821   -0.3491 O   0  0  0  0  0  0  0  0  0  0  0  0
    5.9865   -0.6280    1.2866 C   0  0  0  0  0  0  0  0  0  0  0  0
    7.3038    1.4002    3.4778 H   0  0  0  0  0  0  0  0  0  0  0  0
    5.3149    2.4599    2.5439 H   0  0  0  0  0  0  0  0  0  0  0  0
    3.3096    3.2807    1.4476 H   0  0  0  0  0  0  0  0  0  0  0  0
    4.9602    1.3174   -1.9128 H   0  0  0  0  0  0  0  0  0  0  0  0
    2.0714    0.9297   -3.9383 H   0  0  0  0  0  0  0  0  0  0  0  0
   -0.2228    0.2396   -4.3095 H   0  0  0  0  0  0  0  0  0  0  0  0
    0.8293   -2.9586   -1.7335 H   0  0  0  0  0  0  0  0  0  0  0  0
   -4.6680   -3.5025    0.2985 H   0  0  0  0  0  0  0  0  0  0  0  0
   -2.5171   -0.7751    2.6784 H   0  0  0  0  0  0  0  0  0  0  0  0
   -5.1326    1.4293    3.6534 H   0  0  0  0  0  0  0  0  0  0  0  0
   -7.0203    2.8931    3.1511 H   0  0  0  0  0  0  0  0  0  0  0  0
   -6.6042    2.1425   -0.3168 H   0  0  0  0  0  0  0  0  0  0  0  0
   -5.4511    1.0096   -2.1327 H   0  0  0  0  0  0  0  0  0  0  0  0
   -2.0651    1.7867    0.2190 H   0  0  0  0  0  0  0  0  0  0  0  0
    0.7132   -1.1866    1.3389 H   0  0  0  0  0  0  0  0  0  0  0  0
    4.1242   -2.0415   -0.9918 H   0  0  0  0  0  0  0  0  0  0  0  0
    6.7044   -1.4334    1.3836 H   0  0  0  0  0  0  0  0  0  0  0  0
  1  2  1  0  0  0  0
  1 38  1  0  0  0  0
  2  3  2  0  0  0  0
  3  4  1  0  0  0  0
  3 39  1  0  0  0  0
  4  5  1  0  0  0  0
  4  6  2  0  0  0  0
  5 40  1  0  0  0  0
  6  7  1  0  0  0  0
  6 35  1  0  0  0  0
  7  8  2  0  0  0  0
  8  9  1  0  0  0  0
  8 10  1  0  0  0  0
  9 41  1  0  0  0  0
 10 11  2  0  0  0  0
 10 42  1  0  0  0  0
 11 12  1  0  0  0  0
 11 13  1  0  0  0  0
 12 43  1  0  0  0  0
 13 14  1  0  0  0  0
 13 33  2  0  0  0  0
 14 15  2  0  0  0  0
 15 16  1  0  0  0  0
 15 17  1  0  0  0  0
 16 44  1  0  0  0  0
 17 18  1  0  0  0  0
 17 19  2  0  0  0  0
 19 20  1  0  0  0  0
 19 21  1  0  0  0  0
 20 45  1  0  0  0  0
 21 22  1  0  0  0  0
 21 31  2  0  0  0  0
 22 23  2  0  0  0  0
 23 24  1  0  0  0  0
 23 25  1  0  0  0  0
 24 46  1  0  0  0  0
 25 26  2  0  0  0  0
 25 47  1  0  0  0  0
 26 27  1  0  0  0  0
 26 28  1  0  0  0  0
 27 48  1  0  0  0  0
 28 29  2  0  0  0  0
 28 49  1  0  0  0  0
 29 30  1  0  0  0  0
 29 22  1  0  0  0  0
 30 50  1  0  0  0  0
 31 32  1  0  0  0  0
 31 14  1  0  0  0  0
 32 51  1  0  0  0  0
 33 34  1  0  0  0  0
 33  7  1  0  0  0  0
 34 52  1  0  0  0  0
 35 36  1  0  0  0  0
 35 37  2  0  0  0  0
 36 53  1  0  0  0  0
 37  2  1  0  0  0  0
 37 54  1  0  0  0  0
M  END
>  <IDENTIFIER>
CNP0271703.0

>  <Energy>
768.025

$$$$
