
 OpenBabel09072516323D

 61 65  0  0  0  0  0  0  0  0999 V2000
   -3.5096   -0.7080    3.1422 C   0  0  0  0  0  0  0  0  0  0  0  0
   -2.8085   -0.2017    2.0289 O   0  0  0  0  0  0  0  0  0  0  0  0
   -3.6955    0.1192    0.9639 C   0  0  2  0  0  0  0  0  0  0  0  0
   -3.2672   -0.6617   -0.3316 C   0  0  2  0  0  0  0  0  0  0  0  0
   -1.8856   -0.8034   -0.3424 O   0  0  0  0  0  0  0  0  0  0  0  0
   -1.1231   -1.9383   -0.3865 C   0  0  0  0  0  0  0  0  0  0  0  0
   -1.6897   -3.2300   -0.4944 C   0  0  0  0  0  0  0  0  0  0  0  0
   -0.8839   -4.3619   -0.5454 C   0  0  0  0  0  0  0  0  0  0  0  0
    0.4979   -4.2406   -0.4944 C   0  0  0  0  0  0  0  0  0  0  0  0
    1.0993   -2.9777   -0.3910 C   0  0  0  0  0  0  0  0  0  0  0  0
    0.2962   -1.8153   -0.3345 C   0  0  0  0  0  0  0  0  0  0  0  0
    0.9645   -0.4814   -0.2235 C   0  0  0  0  0  0  0  0  0  0  0  0
    0.2815    0.5301   -0.1714 O   0  0  0  0  0  0  0  0  0  0  0  0
    2.4591   -0.3675   -0.1778 C   0  0  0  0  0  0  0  0  0  0  0  0
    3.2337   -1.5442   -0.2394 C   0  0  0  0  0  0  0  0  0  0  0  0
    4.6315   -1.4648   -0.2023 C   0  0  0  0  0  0  0  0  0  0  0  0
    5.2809   -0.2333   -0.1029 C   0  0  0  0  0  0  0  0  0  0  0  0
    6.6850   -0.1939   -0.0697 C   0  0  0  0  0  0  0  0  0  0  0  0
    7.3601    1.0281    0.0291 C   0  0  0  0  0  0  0  0  0  0  0  0
    8.8594    1.0793    0.0646 C   0  0  0  0  0  0  0  0  0  0  0  0
    6.6247    2.2144    0.0956 C   0  0  0  0  0  0  0  0  0  0  0  0
    5.2287    2.1888    0.0633 C   0  0  0  0  0  0  0  0  0  0  0  0
    4.5275    0.9647   -0.0374 C   0  0  0  0  0  0  0  0  0  0  0  0
    3.1060    0.8946   -0.0752 C   0  0  0  0  0  0  0  0  0  0  0  0
    2.3383    2.0093   -0.0159 O   0  0  0  0  0  0  0  0  0  0  0  0
    2.5769   -2.8698   -0.3439 C   0  0  0  0  0  0  0  0  0  0  0  0
    3.2603   -3.8844   -0.3955 O   0  0  0  0  0  0  0  0  0  0  0  0
   -3.6234    0.0014   -1.5499 O   0  0  0  0  0  0  0  0  0  0  0  0
   -4.8598    0.6665   -1.4328 C   0  0  2  0  0  0  0  0  0  0  0  0
   -5.3595    1.0878   -2.8136 C   0  0  0  0  0  0  0  0  0  0  0  0
   -4.7285    1.8947   -0.4836 C   0  0  1  0  0  0  0  0  0  0  0  0
   -6.0062    2.2248    0.0133 O   0  0  0  0  0  0  0  0  0  0  0  0
   -3.6747    1.6328    0.6558 C   0  0  1  0  0  0  0  0  0  0  0  0
   -3.9679    2.4844    1.9119 C   0  0  0  0  0  0  0  0  0  0  0  0
   -2.3798    1.9478    0.1908 O   0  0  0  0  0  0  0  0  0  0  0  0
   -2.7861   -0.8637    3.9686 H   0  0  0  0  0  0  0  0  0  0  0  0
   -3.9693   -1.6918    2.9048 H   0  0  0  0  0  0  0  0  0  0  0  0
   -4.2667    0.0191    3.5103 H   0  0  0  0  0  0  0  0  0  0  0  0
   -4.7605   -0.1386    1.1901 H   0  0  0  0  0  0  0  0  0  0  0  0
   -3.7685   -1.6419   -0.2896 H   0  0  0  0  0  0  0  0  0  0  0  0
   -2.7512   -3.4047   -0.5466 H   0  0  0  0  0  0  0  0  0  0  0  0
   -1.3349   -5.3425   -0.6282 H   0  0  0  0  0  0  0  0  0  0  0  0
    1.0972   -5.1419   -0.5391 H   0  0  0  0  0  0  0  0  0  0  0  0
    5.2238   -2.3722   -0.2513 H   0  0  0  0  0  0  0  0  0  0  0  0
    7.2544   -1.1153   -0.1217 H   0  0  0  0  0  0  0  0  0  0  0  0
    9.3049    0.0636    0.0033 H   0  0  0  0  0  0  0  0  0  0  0  0
    9.1940    1.5526    1.0117 H   0  0  0  0  0  0  0  0  0  0  0  0
    9.2325    1.6783   -0.7927 H   0  0  0  0  0  0  0  0  0  0  0  0
    7.1360    3.1665    0.1729 H   0  0  0  0  0  0  0  0  0  0  0  0
    4.7297    3.1424    0.1184 H   0  0  0  0  0  0  0  0  0  0  0  0
    2.6565    2.9159    0.0547 H   0  0  0  0  0  0  0  0  0  0  0  0
   -5.6036   -0.0628   -1.0309 H   0  0  0  0  0  0  0  0  0  0  0  0
   -4.6455    1.8016   -3.2786 H   0  0  0  0  0  0  0  0  0  0  0  0
   -6.3553    1.5727   -2.7332 H   0  0  0  0  0  0  0  0  0  0  0  0
   -5.4468    0.1977   -3.4719 H   0  0  0  0  0  0  0  0  0  0  0  0
   -4.3672    2.7874   -1.0383 H   0  0  0  0  0  0  0  0  0  0  0  0
   -6.3359    1.4562    0.5486 H   0  0  0  0  0  0  0  0  0  0  0  0
   -3.9705    3.5646    1.6535 H   0  0  0  0  0  0  0  0  0  0  0  0
   -3.1882    2.3158    2.6845 H   0  0  0  0  0  0  0  0  0  0  0  0
   -4.9527    2.2249    2.3540 H   0  0  0  0  0  0  0  0  0  0  0  0
   -2.3519    2.9181   -0.0197 H   0  0  0  0  0  0  0  0  0  0  0  0
  1  2  1  0  0  0  0
  1 36  1  0  0  0  0
  1 37  1  0  0  0  0
  1 38  1  0  0  0  0
  3  2  1  0  0  0  0
  3  4  1  0  0  0  0
  3 39  1  1  0  0  0
  4  5  1  0  0  0  0
  4 28  1  0  0  0  0
  4 40  1  1  0  0  0
  5  6  1  0  0  0  0
  6  7  2  0  0  0  0
  7  8  1  0  0  0  0
  7 41  1  0  0  0  0
  8  9  2  0  0  0  0
  8 42  1  0  0  0  0
  9 10  1  0  0  0  0
  9 43  1  0  0  0  0
 10 11  2  0  0  0  0
 11 12  1  0  0  0  0
 11  6  1  0  0  0  0
 12 13  2  0  0  0  0
 12 14  1  0  0  0  0
 14 15  2  0  0  0  0
 15 16  1  0  0  0  0
 15 26  1  0  0  0  0
 16 17  2  0  0  0  0
 16 44  1  0  0  0  0
 17 18  1  0  0  0  0
 18 19  2  0  0  0  0
 18 45  1  0  0  0  0
 19 20  1  0  0  0  0
 19 21  1  0  0  0  0
 20 46  1  0  0  0  0
 20 47  1  0  0  0  0
 20 48  1  0  0  0  0
 21 22  2  0  0  0  0
 21 49  1  0  0  0  0
 22 23  1  0  0  0  0
 22 50  1  0  0  0  0
 23 24  2  0  0  0  0
 23 17  1  0  0  0  0
 24 25  1  0  0  0  0
 24 14  1  0  0  0  0
 25 51  1  0  0  0  0
 26 27  2  0  0  0  0
 26 10  1  0  0  0  0
 28 29  1  0  0  0  0
 29 30  1  0  0  0  0
 29 31  1  0  0  0  0
 29 52  1  1  0  0  0
 30 53  1  0  0  0  0
 30 54  1  0  0  0  0
 30 55  1  0  0  0  0
 31 32  1  0  0  0  0
 31 33  1  0  0  0  0
 31 56  1  6  0  0  0
 32 57  1  0  0  0  0
 33 34  1  0  0  0  0
 33 35  1  6  0  0  0
 33  3  1  0  0  0  0
 34 58  1  0  0  0  0
 34 59  1  0  0  0  0
 34 60  1  0  0  0  0
 35 61  1  0  0  0  0
M  END
>  <IDENTIFIER>
CNP0542013.1

>  <Energy>
588.074

$$$$
