
 OpenBabel09092500073D

 80 83  0  0  0  0  0  0  0  0999 V2000
    0.6852    5.2396   -0.6667 C   0  0  0  0  0  0  0  0  0  0  0  0
    0.4595    4.1838   -1.7011 C   0  0  0  0  0  0  0  0  0  0  0  0
    0.4879    4.4803   -2.8872 O   0  0  0  0  0  0  0  0  0  0  0  0
    0.2013    2.9103   -1.2972 O   0  0  0  0  0  0  0  0  0  0  0  0
   -0.1373    1.8455   -2.1187 C   0  0  2  0  0  0  0  0  0  0  0  0
   -1.6313    1.4817   -1.8842 C   0  0  2  0  0  0  0  0  0  0  0  0
   -2.5313    2.5839   -2.4688 C   0  0  0  0  0  0  0  0  0  0  0  0
   -1.9885    1.3508   -0.4164 C   0  0  0  0  0  0  0  0  0  0  0  0
   -1.7304    2.2642    0.3561 O   0  0  0  0  0  0  0  0  0  0  0  0
   -2.8145    0.2150    0.0973 C   0  0  1  0  0  0  0  0  0  0  0  0
   -4.2144    0.5092    0.6233 C   0  0  0  0  0  0  0  0  0  0  0  0
   -4.9486   -0.7748    0.2488 C   0  0  1  0  0  0  0  0  0  0  0  0
   -5.2891   -0.7796   -1.2588 C   0  0  0  0  0  0  0  0  0  0  0  0
   -3.9293   -1.8696    0.5930 C   0  0  2  0  0  0  0  0  0  0  0  0
   -3.9669   -2.0944    1.9619 O   0  0  0  0  0  0  0  0  0  0  0  0
   -4.2944   -3.2754    2.5529 C   0  0  0  0  0  0  0  0  0  0  0  0
   -4.4190   -3.3459    4.0390 C   0  0  0  0  0  0  0  0  0  0  0  0
   -4.5151   -4.2776    1.8877 O   0  0  0  0  0  0  0  0  0  0  0  0
   -2.5633   -1.2662    0.1994 C   0  0  1  0  0  0  0  0  0  0  0  0
   -1.8110   -1.7991   -0.9856 C   0  0  0  0  0  0  0  0  0  0  0  0
   -0.5294   -2.2236   -0.9948 C   0  0  0  0  0  0  0  0  0  0  0  0
   -0.0254   -2.9359   -2.2338 C   0  0  0  0  0  0  0  0  0  0  0  0
    0.4509   -2.0528    0.1630 C   0  0  2  0  0  0  0  0  0  0  0  0
   -0.1289   -2.4889    1.3717 O   0  0  0  0  0  0  0  0  0  0  0  0
    1.0913   -0.6165    0.2276 C   0  0  1  0  0  0  0  0  0  0  0  0
    2.1526   -0.6775    1.1146 O   0  0  0  0  0  0  0  0  0  0  0  0
    2.3578    0.0814    2.2208 C   0  0  0  0  0  0  0  0  0  0  0  0
    1.4868    0.8371    2.6277 O   0  0  0  0  0  0  0  0  0  0  0  0
    3.6734    0.0070    2.9588 C   0  0  0  0  0  0  0  0  0  0  0  0
    4.7116   -0.9770    2.3552 C   0  0  0  0  0  0  0  0  0  0  0  0
    5.1948   -0.5524    0.9551 C   0  0  0  0  0  0  0  0  0  0  0  0
    5.9293   -1.0750    3.2852 C   0  0  0  0  0  0  0  0  0  0  0  0
    1.7027   -0.2875   -1.1494 C   0  0  1  0  0  0  0  0  0  0  0  0
    0.8519    0.6313   -2.0797 C   0  0  2  0  0  0  0  0  0  0  0  0
    2.2795    1.0304   -1.6296 C   0  0  0  0  0  0  0  0  0  0  0  0
    2.6295    1.9952   -0.4846 C   0  0  0  0  0  0  0  0  0  0  0  0
    3.3030    0.9759   -2.7710 C   0  0  0  0  0  0  0  0  0  0  0  0
   -2.0152   -0.3655    1.1070 O   0  0  0  0  0  0  0  0  0  0  0  0
    0.8675    6.2263   -1.1432 H   0  0  0  0  0  0  0  0  0  0  0  0
    1.5616    4.9735   -0.0413 H   0  0  0  0  0  0  0  0  0  0  0  0
   -0.2130    5.3148   -0.0183 H   0  0  0  0  0  0  0  0  0  0  0  0
   -0.0610    2.1595   -3.1845 H   0  0  0  0  0  0  0  0  0  0  0  0
   -1.8882    0.5566   -2.4439 H   0  0  0  0  0  0  0  0  0  0  0  0
   -2.3529    3.5613   -1.9716 H   0  0  0  0  0  0  0  0  0  0  0  0
   -3.6009    2.3107   -2.3355 H   0  0  0  0  0  0  0  0  0  0  0  0
   -2.3444    2.6987   -3.5578 H   0  0  0  0  0  0  0  0  0  0  0  0
   -4.6980    1.3962    0.1586 H   0  0  0  0  0  0  0  0  0  0  0  0
   -4.1740    0.6549    1.7264 H   0  0  0  0  0  0  0  0  0  0  0  0
   -5.9150   -0.8973    0.7860 H   0  0  0  0  0  0  0  0  0  0  0  0
   -4.3931   -0.6466   -1.8991 H   0  0  0  0  0  0  0  0  0  0  0  0
   -5.9966    0.0460   -1.4865 H   0  0  0  0  0  0  0  0  0  0  0  0
   -5.7784   -1.7379   -1.5333 H   0  0  0  0  0  0  0  0  0  0  0  0
   -4.1574   -2.8049    0.0340 H   0  0  0  0  0  0  0  0  0  0  0  0
   -4.2008   -2.3573    4.4926 H   0  0  0  0  0  0  0  0  0  0  0  0
   -3.7067   -4.0974    4.4407 H   0  0  0  0  0  0  0  0  0  0  0  0
   -5.4551   -3.6439    4.3099 H   0  0  0  0  0  0  0  0  0  0  0  0
   -2.4094   -1.9307   -1.8820 H   0  0  0  0  0  0  0  0  0  0  0  0
   -0.8048   -3.0310   -3.0197 H   0  0  0  0  0  0  0  0  0  0  0  0
    0.3016   -3.9597   -1.9565 H   0  0  0  0  0  0  0  0  0  0  0  0
    0.8337   -2.4030   -2.6805 H   0  0  0  0  0  0  0  0  0  0  0  0
    1.3107   -2.7299   -0.0435 H   0  0  0  0  0  0  0  0  0  0  0  0
    0.0613   -1.8278    2.0851 H   0  0  0  0  0  0  0  0  0  0  0  0
    0.3536    0.1574    0.5182 H   0  0  0  0  0  0  0  0  0  0  0  0
    3.4417   -0.3141    3.9979 H   0  0  0  0  0  0  0  0  0  0  0  0
    4.1207    1.0250    3.0014 H   0  0  0  0  0  0  0  0  0  0  0  0
    4.2535   -1.9882    2.2884 H   0  0  0  0  0  0  0  0  0  0  0  0
    5.6641    0.4538    0.9906 H   0  0  0  0  0  0  0  0  0  0  0  0
    4.3718   -0.5336    0.2184 H   0  0  0  0  0  0  0  0  0  0  0  0
    5.9446   -1.2790    0.5753 H   0  0  0  0  0  0  0  0  0  0  0  0
    6.4310   -0.0876    3.3820 H   0  0  0  0  0  0  0  0  0  0  0  0
    6.6624   -1.8076    2.8828 H   0  0  0  0  0  0  0  0  0  0  0  0
    5.6191   -1.4197    4.2937 H   0  0  0  0  0  0  0  0  0  0  0  0
    2.3402   -1.0893   -1.5830 H   0  0  0  0  0  0  0  0  0  0  0  0
    0.7106   -0.0098   -2.9766 H   0  0  0  0  0  0  0  0  0  0  0  0
    2.7866    3.0130   -0.8933 H   0  0  0  0  0  0  0  0  0  0  0  0
    3.5828    1.6889   -0.0114 H   0  0  0  0  0  0  0  0  0  0  0  0
    1.8462    2.0400    0.2966 H   0  0  0  0  0  0  0  0  0  0  0  0
    3.3673    1.9717   -3.2571 H   0  0  0  0  0  0  0  0  0  0  0  0
    3.0324    0.2239   -3.5433 H   0  0  0  0  0  0  0  0  0  0  0  0
    4.3009    0.7102   -2.3622 H   0  0  0  0  0  0  0  0  0  0  0  0
  1  2  1  0  0  0  0
  1 39  1  0  0  0  0
  1 40  1  0  0  0  0
  1 41  1  0  0  0  0
  2  3  2  0  0  0  0
  2  4  1  0  0  0  0
  5  4  1  0  0  0  0
  5  6  1  0  0  0  0
  5 42  1  6  0  0  0
  6  7  1  0  0  0  0
  6  8  1  0  0  0  0
  6 43  1  6  0  0  0
  7 44  1  0  0  0  0
  7 45  1  0  0  0  0
  7 46  1  0  0  0  0
  8  9  2  0  0  0  0
 10  8  1  6  0  0  0
 10 11  1  0  0  0  0
 11 12  1  0  0  0  0
 11 47  1  0  0  0  0
 11 48  1  0  0  0  0
 12 13  1  0  0  0  0
 12 14  1  0  0  0  0
 12 49  1  1  0  0  0
 13 50  1  0  0  0  0
 13 51  1  0  0  0  0
 13 52  1  0  0  0  0
 14 15  1  0  0  0  0
 14 19  1  0  0  0  0
 14 53  1  6  0  0  0
 15 16  1  0  0  0  0
 16 17  1  0  0  0  0
 16 18  2  0  0  0  0
 17 54  1  0  0  0  0
 17 55  1  0  0  0  0
 17 56  1  0  0  0  0
 19 20  1  6  0  0  0
 19 38  1  0  0  0  0
 19 10  1  0  0  0  0
 20 21  2  0  0  0  0
 20 57  1  0  0  0  0
 21 22  1  0  0  0  0
 21 23  1  0  0  0  0
 22 58  1  0  0  0  0
 22 59  1  0  0  0  0
 22 60  1  0  0  0  0
 23 24  1  0  0  0  0
 23 25  1  0  0  0  0
 23 61  1  6  0  0  0
 24 62  1  0  0  0  0
 25 26  1  0  0  0  0
 25 33  1  0  0  0  0
 25 63  1  1  0  0  0
 26 27  1  0  0  0  0
 27 28  2  0  0  0  0
 27 29  1  0  0  0  0
 29 30  1  0  0  0  0
 29 64  1  0  0  0  0
 29 65  1  0  0  0  0
 30 31  1  0  0  0  0
 30 32  1  0  0  0  0
 30 66  1  0  0  0  0
 31 67  1  0  0  0  0
 31 68  1  0  0  0  0
 31 69  1  0  0  0  0
 32 70  1  0  0  0  0
 32 71  1  0  0  0  0
 32 72  1  0  0  0  0
 33 34  1  0  0  0  0
 33 35  1  0  0  0  0
 33 73  1  6  0  0  0
 34 35  1  0  0  0  0
 34  5  1  0  0  0  0
 34 74  1  6  0  0  0
 35 36  1  0  0  0  0
 35 37  1  0  0  0  0
 36 75  1  0  0  0  0
 36 76  1  0  0  0  0
 36 77  1  0  0  0  0
 37 78  1  0  0  0  0
 37 79  1  0  0  0  0
 37 80  1  0  0  0  0
 38 10  1  0  0  0  0
M  END
>  <IDENTIFIER>
CNP0126801.0

>  <Energy>
3493.81

$$$$
