
 OpenBabel09072523133D

 83 87  0  0  0  0  0  0  0  0999 V2000
   -5.3738    2.6636   -1.7873 C   0  0  0  0  0  0  0  0  0  0  0  0
   -5.0553    1.2679   -1.2026 C   0  0  0  0  0  0  0  0  0  0  0  0
   -5.7314    0.2265   -2.1280 C   0  0  0  0  0  0  0  0  0  0  0  0
   -5.6017    1.1790    0.2690 C   0  0  0  0  0  0  0  0  0  0  0  0
   -4.5397    0.7674    1.3257 C   0  0  0  0  0  0  0  0  0  0  0  0
   -3.7326   -0.5075    0.9179 C   0  0  2  0  0  0  0  0  0  0  0  0
   -4.7367   -1.7097    0.8596 C   0  0  0  0  0  0  0  0  0  0  0  0
   -4.0897   -2.9106    0.5184 O   0  0  0  0  0  0  0  0  0  0  0  0
   -2.6476   -0.8994    1.9899 C   0  0  2  0  0  0  0  0  0  0  0  0
   -3.2273   -1.1081    3.2579 O   0  0  0  0  0  0  0  0  0  0  0  0
   -1.5044    0.1268    2.0749 C   0  0  0  0  0  0  0  0  0  0  0  0
   -0.6836    0.2753    0.7387 C   0  0  2  0  0  0  0  0  0  0  0  0
   -0.5210    1.8249    0.5419 C   0  0  0  0  0  0  0  0  0  0  0  0
   -1.5123   -0.2339   -0.4731 C   0  0  0  0  0  0  0  0  0  0  0  0
   -0.9057   -0.7695   -1.5619 C   0  0  0  0  0  0  0  0  0  0  0  0
    0.5750   -0.9538   -1.7417 C   0  0  0  0  0  0  0  0  0  0  0  0
    1.4385   -0.3139   -0.6293 C   0  0  2  0  0  0  0  0  0  0  0  0
    3.0026   -0.6213   -0.7470 C   0  0  1  0  0  0  0  0  0  0  0  0
    3.2783   -2.1664   -0.7411 C   0  0  0  0  0  0  0  0  0  0  0  0
    3.5869   -0.0836   -2.0759 C   0  0  0  0  0  0  0  0  0  0  0  0
    5.1358   -0.2620   -2.1898 C   0  0  0  0  0  0  0  0  0  0  0  0
    5.9339   -0.2261   -0.8439 C   0  0  2  0  0  0  0  0  0  0  0  0
    6.2192   -1.5324   -0.3873 O   0  0  0  0  0  0  0  0  0  0  0  0
    5.2345    0.6583    0.2287 C   0  0  0  0  0  0  0  0  0  0  0  0
    6.0284    0.6371    1.5644 C   0  0  0  0  0  0  0  0  0  0  0  0
    5.3430    2.1400   -0.2666 C   0  0  0  0  0  0  0  0  0  0  0  0
    3.6902    0.2384    0.4053 C   0  0  2  0  0  0  0  0  0  0  0  0
    3.1870   -0.2588    1.7860 C   0  0  0  0  0  0  0  0  0  0  0  0
    1.6821    0.0779    1.9161 C   0  0  0  0  0  0  0  0  0  0  0  0
    0.7481   -0.5053    0.7913 C   0  0  1  0  0  0  0  0  0  0  0  0
    0.5026   -2.0057    1.1398 C   0  0  0  0  0  0  0  0  0  0  0  0
   -3.0507   -0.2288   -0.4898 C   0  0  2  0  0  0  0  0  0  0  0  0
   -3.5241    1.0695   -1.2121 C   0  0  0  0  0  0  0  0  0  0  0  0
   -6.4705    2.8423   -1.8052 H   0  0  0  0  0  0  0  0  0  0  0  0
   -4.9867    2.7554   -2.8259 H   0  0  0  0  0  0  0  0  0  0  0  0
   -4.9024    3.4631   -1.1752 H   0  0  0  0  0  0  0  0  0  0  0  0
   -6.8324    0.3772   -2.1408 H   0  0  0  0  0  0  0  0  0  0  0  0
   -5.5337   -0.8154   -1.8288 H   0  0  0  0  0  0  0  0  0  0  0  0
   -5.3581    0.3349   -3.1695 H   0  0  0  0  0  0  0  0  0  0  0  0
   -6.4772    0.4979    0.3054 H   0  0  0  0  0  0  0  0  0  0  0  0
   -6.0032    2.1609    0.6050 H   0  0  0  0  0  0  0  0  0  0  0  0
   -5.0487    0.6380    2.3042 H   0  0  0  0  0  0  0  0  0  0  0  0
   -3.8466    1.6250    1.4345 H   0  0  0  0  0  0  0  0  0  0  0  0
   -5.5897   -1.5354    0.1793 H   0  0  0  0  0  0  0  0  0  0  0  0
   -5.2148   -1.8533    1.8524 H   0  0  0  0  0  0  0  0  0  0  0  0
   -4.2815   -3.0915   -0.4384 H   0  0  0  0  0  0  0  0  0  0  0  0
   -2.1865   -1.8619    1.6941 H   0  0  0  0  0  0  0  0  0  0  0  0
   -3.4121   -0.2248    3.6702 H   0  0  0  0  0  0  0  0  0  0  0  0
   -0.8399   -0.0959    2.9293 H   0  0  0  0  0  0  0  0  0  0  0  0
   -1.9794    1.0818    2.3751 H   0  0  0  0  0  0  0  0  0  0  0  0
   -1.4967    2.3364    0.5762 H   0  0  0  0  0  0  0  0  0  0  0  0
   -0.0859    2.1211   -0.4295 H   0  0  0  0  0  0  0  0  0  0  0  0
    0.0358    2.3164    1.3584 H   0  0  0  0  0  0  0  0  0  0  0  0
   -1.5146   -1.1526   -2.3772 H   0  0  0  0  0  0  0  0  0  0  0  0
    0.8706   -0.5327   -2.7239 H   0  0  0  0  0  0  0  0  0  0  0  0
    0.7019   -2.0503   -1.7806 H   0  0  0  0  0  0  0  0  0  0  0  0
    1.4027    0.7669   -0.8260 H   0  0  0  0  0  0  0  0  0  0  0  0
    2.6820   -2.6889   -1.5084 H   0  0  0  0  0  0  0  0  0  0  0  0
    3.1319   -2.6606    0.2207 H   0  0  0  0  0  0  0  0  0  0  0  0
    4.2827   -2.4621   -1.0455 H   0  0  0  0  0  0  0  0  0  0  0  0
    3.3504    0.9997   -2.1088 H   0  0  0  0  0  0  0  0  0  0  0  0
    3.1153   -0.5181   -2.9819 H   0  0  0  0  0  0  0  0  0  0  0  0
    5.4826    0.5488   -2.8674 H   0  0  0  0  0  0  0  0  0  0  0  0
    5.3953   -1.2122   -2.7047 H   0  0  0  0  0  0  0  0  0  0  0  0
    6.9409    0.1897   -1.0646 H   0  0  0  0  0  0  0  0  0  0  0  0
    5.6935   -1.7443    0.4240 H   0  0  0  0  0  0  0  0  0  0  0  0
    7.0902    0.9171    1.3920 H   0  0  0  0  0  0  0  0  0  0  0  0
    6.0184   -0.3573    2.0526 H   0  0  0  0  0  0  0  0  0  0  0  0
    5.6092    1.3699    2.2868 H   0  0  0  0  0  0  0  0  0  0  0  0
    6.4051    2.4421   -0.3950 H   0  0  0  0  0  0  0  0  0  0  0  0
    4.8879    2.8345    0.4734 H   0  0  0  0  0  0  0  0  0  0  0  0
    4.8377    2.3172   -1.2329 H   0  0  0  0  0  0  0  0  0  0  0  0
    3.2249    1.2466    0.3479 H   0  0  0  0  0  0  0  0  0  0  0  0
    3.6709    0.3025    2.6095 H   0  0  0  0  0  0  0  0  0  0  0  0
    3.4130   -1.3298    1.9507 H   0  0  0  0  0  0  0  0  0  0  0  0
    1.6651    1.1780    1.8905 H   0  0  0  0  0  0  0  0  0  0  0  0
    1.3324   -0.2076    2.9294 H   0  0  0  0  0  0  0  0  0  0  0  0
    0.0097   -2.1029    2.1264 H   0  0  0  0  0  0  0  0  0  0  0  0
    1.4144   -2.5915    1.2683 H   0  0  0  0  0  0  0  0  0  0  0  0
   -0.1391   -2.5165    0.3950 H   0  0  0  0  0  0  0  0  0  0  0  0
   -3.3673   -1.0634   -1.1497 H   0  0  0  0  0  0  0  0  0  0  0  0
   -3.1269    1.0962   -2.2520 H   0  0  0  0  0  0  0  0  0  0  0  0
   -3.0978    1.9441   -0.6981 H   0  0  0  0  0  0  0  0  0  0  0  0
  1  2  1  0  0  0  0
  1 34  1  0  0  0  0
  1 35  1  0  0  0  0
  1 36  1  0  0  0  0
  2  3  1  0  0  0  0
  2  4  1  0  0  0  0
  3 37  1  0  0  0  0
  3 38  1  0  0  0  0
  3 39  1  0  0  0  0
  4  5  1  0  0  0  0
  4 40  1  0  0  0  0
  4 41  1  0  0  0  0
  5  6  1  0  0  0  0
  5 42  1  0  0  0  0
  5 43  1  0  0  0  0
  6  7  1  6  0  0  0
  6  9  1  0  0  0  0
  7  8  1  0  0  0  0
  7 44  1  0  0  0  0
  7 45  1  0  0  0  0
  8 46  1  0  0  0  0
  9 10  1  0  0  0  0
  9 11  1  0  0  0  0
  9 47  1  6  0  0  0
 10 48  1  0  0  0  0
 11 12  1  0  0  0  0
 11 49  1  0  0  0  0
 11 50  1  0  0  0  0
 12 13  1  6  0  0  0
 12 14  1  0  0  0  0
 13 51  1  0  0  0  0
 13 52  1  0  0  0  0
 13 53  1  0  0  0  0
 14 15  2  0  0  0  0
 14 32  1  0  0  0  0
 15 16  1  0  0  0  0
 15 54  1  0  0  0  0
 16 55  1  0  0  0  0
 16 56  1  0  0  0  0
 17 16  1  0  0  0  0
 17 18  1  0  0  0  0
 17 57  1  6  0  0  0
 18 19  1  1  0  0  0
 18 20  1  0  0  0  0
 19 58  1  0  0  0  0
 19 59  1  0  0  0  0
 19 60  1  0  0  0  0
 20 21  1  0  0  0  0
 20 61  1  0  0  0  0
 20 62  1  0  0  0  0
 21 22  1  0  0  0  0
 21 63  1  0  0  0  0
 21 64  1  0  0  0  0
 22 23  1  0  0  0  0
 22 24  1  0  0  0  0
 22 65  1  6  0  0  0
 23 66  1  0  0  0  0
 24 25  1  0  0  0  0
 24 26  1  0  0  0  0
 24 27  1  0  0  0  0
 25 67  1  0  0  0  0
 25 68  1  0  0  0  0
 25 69  1  0  0  0  0
 26 70  1  0  0  0  0
 26 71  1  0  0  0  0
 26 72  1  0  0  0  0
 27 28  1  0  0  0  0
 27 18  1  0  0  0  0
 27 73  1  6  0  0  0
 28 29  1  0  0  0  0
 28 74  1  0  0  0  0
 28 75  1  0  0  0  0
 29 30  1  0  0  0  0
 29 76  1  0  0  0  0
 29 77  1  0  0  0  0
 30 31  1  1  0  0  0
 30 12  1  0  0  0  0
 30 17  1  0  0  0  0
 31 78  1  0  0  0  0
 31 79  1  0  0  0  0
 31 80  1  0  0  0  0
 32 33  1  0  0  0  0
 32  6  1  0  0  0  0
 32 81  1  6  0  0  0
 33  2  1  0  0  0  0
 33 82  1  0  0  0  0
 33 83  1  0  0  0  0
M  END
>  <IDENTIFIER>
CNP0218101.2

>  <Energy>
1236.88

$$$$
