
 OpenBabel09062510293D

 93 98  0  0  0  0  0  0  0  0999 V2000
    1.9039   -5.4449   -0.1842 O   0  0  0  0  0  0  0  0  0  0  0  0
    2.4878   -4.4037    0.0672 C   0  0  0  0  0  0  0  0  0  0  0  0
    3.7777   -4.4744    0.5877 C   0  0  0  0  0  0  0  0  0  0  0  0
    4.4707   -3.2899    0.8875 C   0  0  0  0  0  0  0  0  0  0  0  0
    5.8561   -3.2885    1.4551 C   0  0  0  0  0  0  0  0  0  0  0  0
    6.5435   -4.4768    1.7964 C   0  0  0  0  0  0  0  0  0  0  0  0
    7.8354   -4.4289    2.3274 C   0  0  0  0  0  0  0  0  0  0  0  0
    8.4720   -3.1995    2.5281 C   0  0  0  0  0  0  0  0  0  0  0  0
    9.7189   -3.1430    3.0388 O   0  0  0  0  0  0  0  0  0  0  0  0
    7.8067   -2.0174    2.1963 C   0  0  0  0  0  0  0  0  0  0  0  0
    6.5126   -2.0590    1.6674 C   0  0  0  0  0  0  0  0  0  0  0  0
    3.8681   -2.1218    0.6626 O   0  0  0  0  0  0  0  0  0  0  0  0
    2.6334   -2.0057    0.1733 C   0  0  0  0  0  0  0  0  0  0  0  0
    2.0923   -0.7380   -0.0004 C   0  0  0  0  0  0  0  0  0  0  0  0
    0.7802   -0.5416   -0.4957 C   0  0  0  0  0  0  0  0  0  0  0  0
    0.2658    0.7164   -0.6490 O   0  0  0  0  0  0  0  0  0  0  0  0
    0.8632    1.9644   -0.4584 C   0  0  2  0  0  0  0  0  0  0  0  0
    0.2129    2.6303    0.6047 O   0  0  0  0  0  0  0  0  0  0  0  0
    0.8899    3.8354    0.9966 C   0  0  1  0  0  0  0  0  0  0  0  0
    1.8098    3.5663    2.1997 C   0  0  0  0  0  0  0  0  0  0  0  0
    2.3523    4.7615    2.6964 O   0  0  0  0  0  0  0  0  0  0  0  0
    1.6542    4.5496   -0.1729 C   0  0  2  0  0  0  0  0  0  0  0  0
    1.8755    5.9113    0.0991 O   0  0  0  0  0  0  0  0  0  0  0  0
    0.8680    4.3391   -1.4751 C   0  0  2  0  0  0  0  0  0  0  0  0
   -0.4222    4.9058   -1.3602 O   0  0  0  0  0  0  0  0  0  0  0  0
    0.8053    2.8068   -1.7730 C   0  0  1  0  0  0  0  0  0  0  0  0
    1.8424    2.3961   -2.6308 O   0  0  0  0  0  0  0  0  0  0  0  0
   -0.0091   -1.6945   -0.8337 C   0  0  0  0  0  0  0  0  0  0  0  0
   -1.4755   -1.6761   -1.3405 C   0  0  2  0  0  0  0  0  0  0  0  0
   -1.5540   -2.2915   -2.6184 O   0  0  0  0  0  0  0  0  0  0  0  0
   -1.2280   -1.4514   -3.7318 C   0  0  1  0  0  0  0  0  0  0  0  0
   -2.2358   -1.7927   -4.8485 C   0  0  0  0  0  0  0  0  0  0  0  0
   -2.2020   -3.1666   -5.1314 O   0  0  0  0  0  0  0  0  0  0  0  0
   -1.1897    0.0826   -3.4158 C   0  0  1  0  0  0  0  0  0  0  0  0
   -1.1053    0.8616   -4.5860 O   0  0  0  0  0  0  0  0  0  0  0  0
   -2.3891    0.4569   -2.5303 C   0  0  2  0  0  0  0  0  0  0  0  0
   -2.4940    1.8339   -2.2620 O   0  0  0  0  0  0  0  0  0  0  0  0
   -2.4329   -0.4530   -1.2662 C   0  0  2  0  0  0  0  0  0  0  0  0
   -2.2404    0.2313   -0.0310 O   0  0  0  0  0  0  0  0  0  0  0  0
   -3.3920    0.2446    0.8018 C   0  0  2  0  0  0  0  0  0  0  0  0
   -3.9576    1.5426    0.7873 O   0  0  0  0  0  0  0  0  0  0  0  0
   -5.1899    1.6352    1.5143 C   0  0  1  0  0  0  0  0  0  0  0  0
   -6.3424    1.7916    0.5129 C   0  0  0  0  0  0  0  0  0  0  0  0
   -7.5562    2.0410    1.1705 O   0  0  0  0  0  0  0  0  0  0  0  0
   -5.4373    0.4596    2.5256 C   0  0  2  0  0  0  0  0  0  0  0  0
   -6.4904    0.7285    3.4173 O   0  0  0  0  0  0  0  0  0  0  0  0
   -4.1236    0.1315    3.2688 C   0  0  2  0  0  0  0  0  0  0  0  0
   -3.7721    1.1669    4.1577 O   0  0  0  0  0  0  0  0  0  0  0  0
   -2.9756   -0.1417    2.2433 C   0  0  1  0  0  0  0  0  0  0  0  0
   -2.5564   -1.4832    2.2862 O   0  0  0  0  0  0  0  0  0  0  0  0
    0.5720   -2.9951   -0.6567 C   0  0  0  0  0  0  0  0  0  0  0  0
   -0.1169   -4.1304   -0.9428 O   0  0  0  0  0  0  0  0  0  0  0  0
    1.8831   -3.1435   -0.1502 C   0  0  0  0  0  0  0  0  0  0  0  0
    4.2075   -5.4510    0.7447 H   0  0  0  0  0  0  0  0  0  0  0  0
    6.1060   -5.4531    1.6688 H   0  0  0  0  0  0  0  0  0  0  0  0
    8.3406   -5.3523    2.5834 H   0  0  0  0  0  0  0  0  0  0  0  0
   10.2114   -3.9405    3.2814 H   0  0  0  0  0  0  0  0  0  0  0  0
    8.2936   -1.0624    2.3488 H   0  0  0  0  0  0  0  0  0  0  0  0
    6.0280   -1.1224    1.4220 H   0  0  0  0  0  0  0  0  0  0  0  0
    2.7367    0.0758    0.2811 H   0  0  0  0  0  0  0  0  0  0  0  0
    1.9251    1.8727   -0.1779 H   0  0  0  0  0  0  0  0  0  0  0  0
    0.0784    4.5208    1.3246 H   0  0  0  0  0  0  0  0  0  0  0  0
    2.6186    2.8504    1.9224 H   0  0  0  0  0  0  0  0  0  0  0  0
    1.2263    3.0856    3.0118 H   0  0  0  0  0  0  0  0  0  0  0  0
    3.2248    4.8951    2.2413 H   0  0  0  0  0  0  0  0  0  0  0  0
    2.6472    4.0736   -0.3221 H   0  0  0  0  0  0  0  0  0  0  0  0
    0.9918    6.3490    0.2062 H   0  0  0  0  0  0  0  0  0  0  0  0
    1.3528    4.8461   -2.3376 H   0  0  0  0  0  0  0  0  0  0  0  0
   -1.0125    4.2822   -0.8652 H   0  0  0  0  0  0  0  0  0  0  0  0
   -0.1261    2.6606   -2.3429 H   0  0  0  0  0  0  0  0  0  0  0  0
    2.6992    2.7309   -2.2592 H   0  0  0  0  0  0  0  0  0  0  0  0
   -1.9750   -2.3448   -0.6040 H   0  0  0  0  0  0  0  0  0  0  0  0
   -0.2223   -1.7327   -4.1145 H   0  0  0  0  0  0  0  0  0  0  0  0
   -2.0243   -1.2205   -5.7789 H   0  0  0  0  0  0  0  0  0  0  0  0
   -3.2676   -1.5387   -4.5333 H   0  0  0  0  0  0  0  0  0  0  0  0
   -1.3784   -3.3286   -5.6617 H   0  0  0  0  0  0  0  0  0  0  0  0
   -0.2716    0.2826   -2.8511 H   0  0  0  0  0  0  0  0  0  0  0  0
   -2.0198    0.9726   -4.9554 H   0  0  0  0  0  0  0  0  0  0  0  0
   -3.2881    0.2149   -3.1388 H   0  0  0  0  0  0  0  0  0  0  0  0
   -1.9847    2.0458   -1.4433 H   0  0  0  0  0  0  0  0  0  0  0  0
   -3.4491   -0.9061   -1.3580 H   0  0  0  0  0  0  0  0  0  0  0  0
   -4.1644   -0.4870    0.4767 H   0  0  0  0  0  0  0  0  0  0  0  0
   -5.1196    2.5728    2.1070 H   0  0  0  0  0  0  0  0  0  0  0  0
   -6.4107    0.8883   -0.1380 H   0  0  0  0  0  0  0  0  0  0  0  0
   -6.1305    2.6513   -0.1585 H   0  0  0  0  0  0  0  0  0  0  0  0
   -8.0608    1.1862    1.1840 H   0  0  0  0  0  0  0  0  0  0  0  0
   -5.7246   -0.4510    1.9564 H   0  0  0  0  0  0  0  0  0  0  0  0
   -6.2742    1.5703    3.8950 H   0  0  0  0  0  0  0  0  0  0  0  0
   -4.2837   -0.7738    3.8951 H   0  0  0  0  0  0  0  0  0  0  0  0
   -3.5001    1.9592    3.6273 H   0  0  0  0  0  0  0  0  0  0  0  0
   -2.0994    0.4796    2.5335 H   0  0  0  0  0  0  0  0  0  0  0  0
   -3.3328   -2.0476    2.0321 H   0  0  0  0  0  0  0  0  0  0  0  0
   -1.0203   -4.1966   -1.2721 H   0  0  0  0  0  0  0  0  0  0  0  0
  1  2  2  0  0  0  0
  2  3  1  0  0  0  0
  3  4  2  0  0  0  0
  3 54  1  0  0  0  0
  4  5  1  0  0  0  0
  4 12  1  0  0  0  0
  5  6  2  0  0  0  0
  6  7  1  0  0  0  0
  6 55  1  0  0  0  0
  7  8  2  0  0  0  0
  7 56  1  0  0  0  0
  8  9  1  0  0  0  0
  8 10  1  0  0  0  0
  9 57  1  0  0  0  0
 10 11  2  0  0  0  0
 10 58  1  0  0  0  0
 11  5  1  0  0  0  0
 11 59  1  0  0  0  0
 12 13  1  0  0  0  0
 13 14  2  0  0  0  0
 14 15  1  0  0  0  0
 14 60  1  0  0  0  0
 15 16  1  0  0  0  0
 15 28  2  0  0  0  0
 17 16  1  0  0  0  0
 17 18  1  0  0  0  0
 17 61  1  1  0  0  0
 18 19  1  0  0  0  0
 19 20  1  0  0  0  0
 19 22  1  0  0  0  0
 19 62  1  1  0  0  0
 20 21  1  0  0  0  0
 20 63  1  0  0  0  0
 20 64  1  0  0  0  0
 21 65  1  0  0  0  0
 22 23  1  0  0  0  0
 22 24  1  0  0  0  0
 22 66  1  6  0  0  0
 23 67  1  0  0  0  0
 24 25  1  0  0  0  0
 24 26  1  0  0  0  0
 24 68  1  6  0  0  0
 25 69  1  0  0  0  0
 26 27  1  0  0  0  0
 26 17  1  0  0  0  0
 26 70  1  6  0  0  0
 27 71  1  0  0  0  0
 28 51  1  0  0  0  0
 29 28  1  0  0  0  0
 29 30  1  0  0  0  0
 29 72  1  1  0  0  0
 30 31  1  0  0  0  0
 31 32  1  0  0  0  0
 31 34  1  0  0  0  0
 31 73  1  6  0  0  0
 32 33  1  0  0  0  0
 32 74  1  0  0  0  0
 32 75  1  0  0  0  0
 33 76  1  0  0  0  0
 34 35  1  0  0  0  0
 34 36  1  0  0  0  0
 34 77  1  1  0  0  0
 35 78  1  0  0  0  0
 36 37  1  0  0  0  0
 36 38  1  0  0  0  0
 36 79  1  6  0  0  0
 37 80  1  0  0  0  0
 38 39  1  0  0  0  0
 38 29  1  0  0  0  0
 38 81  1  1  0  0  0
 40 39  1  0  0  0  0
 40 41  1  0  0  0  0
 40 82  1  6  0  0  0
 41 42  1  0  0  0  0
 42 43  1  0  0  0  0
 42 45  1  0  0  0  0
 42 83  1  1  0  0  0
 43 44  1  0  0  0  0
 43 84  1  0  0  0  0
 43 85  1  0  0  0  0
 44 86  1  0  0  0  0
 45 46  1  0  0  0  0
 45 47  1  0  0  0  0
 45 87  1  6  0  0  0
 46 88  1  0  0  0  0
 47 48  1  0  0  0  0
 47 49  1  0  0  0  0
 47 89  1  1  0  0  0
 48 90  1  0  0  0  0
 49 50  1  0  0  0  0
 49 40  1  0  0  0  0
 49 91  1  1  0  0  0
 50 92  1  0  0  0  0
 51 52  1  0  0  0  0
 51 53  2  0  0  0  0
 52 93  1  0  0  0  0
 53  2  1  0  0  0  0
 53 13  1  0  0  0  0
M  END
>  <IDENTIFIER>
CNP0137226.6

>  <Energy>
1298.75

$$$$
