
 OpenBabel09052506213D

 46 49  0  0  0  0  0  0  0  0999 V2000
    2.5057    2.8425    2.0820 C   0  0  0  0  0  0  0  0  0  0  0  0
    2.4763    1.5076    2.0336 C   0  0  0  0  0  0  0  0  0  0  0  0
    3.0574    0.7403    0.8713 C   0  0  0  0  0  0  0  0  0  0  0  0
    2.0327   -0.1552    0.1107 C   0  0  2  0  0  0  0  0  0  0  0  0
    2.8173   -0.9173   -1.0213 C   0  0  0  0  0  0  0  0  0  0  0  0
    2.1484   -2.1661   -1.5677 C   0  0  0  0  0  0  0  0  0  0  0  0
    2.7239   -2.8101   -2.4315 O   0  0  0  0  0  0  0  0  0  0  0  0
    0.8625   -2.7098   -0.9887 C   0  0  1  0  0  0  0  0  0  0  0  0
    1.1443   -3.9233   -0.3401 O   0  0  0  0  0  0  0  0  0  0  0  0
    0.2211   -1.6962   -0.0064 C   0  0  2  0  0  0  0  0  0  0  0  0
   -0.1974   -0.4319   -0.8268 C   0  0  1  0  0  0  0  0  0  0  0  0
   -1.6554   -0.0392   -0.6853 C   0  0  0  0  0  0  0  0  0  0  0  0
   -2.4792    0.0116   -1.8432 C   0  0  0  0  0  0  0  0  0  0  0  0
   -3.8376    0.3590   -1.7456 C   0  0  0  0  0  0  0  0  0  0  0  0
   -4.3402    0.6446   -0.4826 C   0  0  0  0  0  0  0  0  0  0  0  0
   -5.5855    0.9892   -0.1437 O   0  0  0  0  0  0  0  0  0  0  0  0
   -5.6094    1.1681    1.2357 C   0  0  0  0  0  0  0  0  0  0  0  0
   -4.3153    0.9145    1.6881 O   0  0  0  0  0  0  0  0  0  0  0  0
   -3.5718    0.5994    0.6246 C   0  0  0  0  0  0  0  0  0  0  0  0
   -2.2189    0.2634    0.5779 C   0  0  0  0  0  0  0  0  0  0  0  0
    0.8040    0.6528   -0.4041 C   0  0  2  0  0  0  0  0  0  0  0  0
    1.0529    1.7224   -1.4757 C   0  0  0  0  0  0  0  0  0  0  0  0
    1.2790   -1.1726    0.9972 C   0  0  1  0  0  0  0  0  0  0  0  0
    2.0909   -2.1881    1.5279 O   0  0  0  0  0  0  0  0  0  0  0  0
    2.0860    3.3628    2.9366 H   0  0  0  0  0  0  0  0  0  0  0  0
    2.9456    3.4259    1.2789 H   0  0  0  0  0  0  0  0  0  0  0  0
    2.0326    0.9643    2.8614 H   0  0  0  0  0  0  0  0  0  0  0  0
    3.8737    0.1051    1.2769 H   0  0  0  0  0  0  0  0  0  0  0  0
    3.5217    1.4420    0.1437 H   0  0  0  0  0  0  0  0  0  0  0  0
    3.7736   -1.2950   -0.5974 H   0  0  0  0  0  0  0  0  0  0  0  0
    3.0827   -0.2171   -1.8394 H   0  0  0  0  0  0  0  0  0  0  0  0
    0.1485   -2.9064   -1.8236 H   0  0  0  0  0  0  0  0  0  0  0  0
    0.2757   -4.3850   -0.2043 H   0  0  0  0  0  0  0  0  0  0  0  0
   -0.6394   -2.1979    0.4899 H   0  0  0  0  0  0  0  0  0  0  0  0
   -0.0082   -0.6333   -1.9070 H   0  0  0  0  0  0  0  0  0  0  0  0
   -2.0716   -0.2175   -2.8201 H   0  0  0  0  0  0  0  0  0  0  0  0
   -4.4697    0.3992   -2.6216 H   0  0  0  0  0  0  0  0  0  0  0  0
   -6.3227    0.4544    1.6991 H   0  0  0  0  0  0  0  0  0  0  0  0
   -5.9016    2.2112    1.4785 H   0  0  0  0  0  0  0  0  0  0  0  0
   -1.6319    0.2311    1.4860 H   0  0  0  0  0  0  0  0  0  0  0  0
    0.3792    1.1802    0.4809 H   0  0  0  0  0  0  0  0  0  0  0  0
    1.4546    1.2762   -2.4076 H   0  0  0  0  0  0  0  0  0  0  0  0
    1.7648    2.4860   -1.1005 H   0  0  0  0  0  0  0  0  0  0  0  0
    0.0966    2.2323   -1.7190 H   0  0  0  0  0  0  0  0  0  0  0  0
    0.7329   -0.6586    1.8232 H   0  0  0  0  0  0  0  0  0  0  0  0
    2.6235   -1.7727    2.2540 H   0  0  0  0  0  0  0  0  0  0  0  0
  1  2  2  0  0  0  0
  1 25  1  0  0  0  0
  1 26  1  0  0  0  0
  2  3  1  0  0  0  0
  2 27  1  0  0  0  0
  3 28  1  0  0  0  0
  3 29  1  0  0  0  0
  4  3  1  1  0  0  0
  4  5  1  0  0  0  0
  5  6  1  0  0  0  0
  5 30  1  0  0  0  0
  5 31  1  0  0  0  0
  6  7  2  0  0  0  0
  6  8  1  0  0  0  0
  8  9  1  0  0  0  0
  8 32  1  6  0  0  0
  9 33  1  0  0  0  0
 10  8  1  0  0  0  0
 10 11  1  0  0  0  0
 10 23  1  0  0  0  0
 10 34  1  1  0  0  0
 11 12  1  0  0  0  0
 11 21  1  0  0  0  0
 11 35  1  6  0  0  0
 12 13  2  0  0  0  0
 13 14  1  0  0  0  0
 13 36  1  0  0  0  0
 14 15  2  0  0  0  0
 14 37  1  0  0  0  0
 15 16  1  0  0  0  0
 16 17  1  0  0  0  0
 17 18  1  0  0  0  0
 17 38  1  0  0  0  0
 17 39  1  0  0  0  0
 18 19  1  0  0  0  0
 19 20  2  0  0  0  0
 19 15  1  0  0  0  0
 20 12  1  0  0  0  0
 20 40  1  0  0  0  0
 21 22  1  0  0  0  0
 21  4  1  0  0  0  0
 21 41  1  1  0  0  0
 22 42  1  0  0  0  0
 22 43  1  0  0  0  0
 22 44  1  0  0  0  0
 23 24  1  0  0  0  0
 23  4  1  0  0  0  0
 23 45  1  1  0  0  0
 24 46  1  0  0  0  0
M  END
>  <IDENTIFIER>
CNP0221368.3

>  <Energy>
553.082

$$$$
