
 OpenBabel09112509533D

 58 61  0  0  0  0  0  0  0  0999 V2000
   -7.1042   -0.7613   -2.7967 C   0  0  0  0  0  0  0  0  0  0  0  0
   -5.7849   -0.1513   -2.4219 C   0  0  0  0  0  0  0  0  0  0  0  0
   -5.0444    0.1143   -3.3582 O   0  0  0  0  0  0  0  0  0  0  0  0
   -5.2865    0.0774   -1.0065 C   0  0  0  0  0  0  0  0  0  0  0  0
   -6.0368   -0.0933    0.2136 C   0  0  0  0  0  0  0  0  0  0  0  0
   -7.3430   -0.4400    0.2428 O   0  0  0  0  0  0  0  0  0  0  0  0
   -5.4109    0.1093    1.4832 C   0  0  0  0  0  0  0  0  0  0  0  0
   -6.1988   -0.0591    2.7647 C   0  0  0  0  0  0  0  0  0  0  0  0
   -4.0428    0.4596    1.5591 C   0  0  0  0  0  0  0  0  0  0  0  0
   -3.4036    0.6467    2.7369 O   0  0  0  0  0  0  0  0  0  0  0  0
   -3.3341    0.6093    0.3756 C   0  0  0  0  0  0  0  0  0  0  0  0
   -3.9323    0.4512   -0.8577 C   0  0  0  0  0  0  0  0  0  0  0  0
   -3.0561    0.6620   -1.8616 O   0  0  0  0  0  0  0  0  0  0  0  0
   -1.8429    0.8443   -1.3112 C   0  0  0  0  0  0  0  0  0  0  0  0
   -0.6984    0.8570   -1.9937 C   0  0  0  0  0  0  0  0  0  0  0  0
    0.5831    0.7143   -1.2479 C   0  0  0  0  0  0  0  0  0  0  0  0
    1.6119    0.8785   -1.8783 O   0  0  0  0  0  0  0  0  0  0  0  0
    0.5522    0.1097    0.1654 C   0  0  0  0  0  0  0  0  0  0  0  0
    1.6626   -0.4263    0.8067 C   0  0  0  0  0  0  0  0  0  0  0  0
    1.5881   -1.0538    2.1958 C   0  0  0  0  0  0  0  0  0  0  0  0
    2.9718   -0.4340    0.2015 N   0  0  0  0  0  0  0  0  0  0  0  0
    3.9791   -1.4131    0.5749 C   0  0  0  0  0  0  0  0  0  0  0  0
    5.2726   -1.2490   -0.2338 C   0  0  0  0  0  0  0  0  0  0  0  0
    6.0555   -0.0034    0.1947 C   0  0  0  0  0  0  0  0  0  0  0  0
    7.3071    0.1284   -0.6161 C   0  0  0  0  0  0  0  0  0  0  0  0
    8.5979    0.0502   -0.1337 C   0  0  0  0  0  0  0  0  0  0  0  0
    9.4147    0.2291   -1.2268 C   0  0  0  0  0  0  0  0  0  0  0  0
    8.5758    0.4082   -2.3079 C   0  0  0  0  0  0  0  0  0  0  0  0
    7.3242    0.3391   -1.9126 O   0  0  0  0  0  0  0  0  0  0  0  0
   -0.8556    0.0105    0.7296 C   0  0  0  0  0  0  0  0  0  0  0  0
   -1.1947   -0.8530    1.5220 O   0  0  0  0  0  0  0  0  0  0  0  0
   -1.8893    0.9534    0.1708 C   0  0  2  0  0  0  0  0  0  0  0  0
   -1.5931    2.3903    0.6389 C   0  0  0  0  0  0  0  0  0  0  0  0
   -7.1625   -0.9094   -3.8971 H   0  0  0  0  0  0  0  0  0  0  0  0
   -7.9449   -0.0923   -2.5299 H   0  0  0  0  0  0  0  0  0  0  0  0
   -7.1979   -1.7631   -2.3247 H   0  0  0  0  0  0  0  0  0  0  0  0
   -7.9306   -0.5870   -0.4951 H   0  0  0  0  0  0  0  0  0  0  0  0
   -7.2596   -0.3344    2.5992 H   0  0  0  0  0  0  0  0  0  0  0  0
   -6.1904    0.8939    3.3346 H   0  0  0  0  0  0  0  0  0  0  0  0
   -5.7415   -0.8605    3.3825 H   0  0  0  0  0  0  0  0  0  0  0  0
   -3.8244    0.5599    3.6013 H   0  0  0  0  0  0  0  0  0  0  0  0
   -0.6981    0.8285   -3.0796 H   0  0  0  0  0  0  0  0  0  0  0  0
    0.6439   -0.9578    2.7458 H   0  0  0  0  0  0  0  0  0  0  0  0
    2.3251   -0.5383    2.8457 H   0  0  0  0  0  0  0  0  0  0  0  0
    1.8479   -2.1313    2.1431 H   0  0  0  0  0  0  0  0  0  0  0  0
    3.2163    0.2142   -0.5507 H   0  0  0  0  0  0  0  0  0  0  0  0
    3.5632   -2.4203    0.3516 H   0  0  0  0  0  0  0  0  0  0  0  0
    4.2185   -1.3619    1.6588 H   0  0  0  0  0  0  0  0  0  0  0  0
    5.0311   -1.2206   -1.3197 H   0  0  0  0  0  0  0  0  0  0  0  0
    5.9175   -2.1359   -0.0461 H   0  0  0  0  0  0  0  0  0  0  0  0
    6.3185   -0.1045    1.2709 H   0  0  0  0  0  0  0  0  0  0  0  0
    5.4489    0.9173    0.0650 H   0  0  0  0  0  0  0  0  0  0  0  0
    8.9076   -0.1212    0.8889 H   0  0  0  0  0  0  0  0  0  0  0  0
   10.4964    0.2293   -1.2366 H   0  0  0  0  0  0  0  0  0  0  0  0
    8.8848    0.5799   -3.3301 H   0  0  0  0  0  0  0  0  0  0  0  0
   -0.5665    2.7094    0.3603 H   0  0  0  0  0  0  0  0  0  0  0  0
   -1.6861    2.4634    1.7450 H   0  0  0  0  0  0  0  0  0  0  0  0
   -2.3097    3.1078    0.1825 H   0  0  0  0  0  0  0  0  0  0  0  0
  1  2  1  0  0  0  0
  1 34  1  0  0  0  0
  1 35  1  0  0  0  0
  1 36  1  0  0  0  0
  2  3  2  0  0  0  0
  2  4  1  0  0  0  0
  4  5  2  0  0  0  0
  5  6  1  0  0  0  0
  5  7  1  0  0  0  0
  6 37  1  0  0  0  0
  7  8  1  0  0  0  0
  7  9  2  0  0  0  0
  8 38  1  0  0  0  0
  8 39  1  0  0  0  0
  8 40  1  0  0  0  0
  9 10  1  0  0  0  0
  9 11  1  0  0  0  0
 10 41  1  0  0  0  0
 11 12  2  0  0  0  0
 12 13  1  0  0  0  0
 12  4  1  0  0  0  0
 13 14  1  0  0  0  0
 14 15  2  0  0  0  0
 15 16  1  0  0  0  0
 15 42  1  0  0  0  0
 16 17  2  0  0  0  0
 16 18  1  0  0  0  0
 18 19  2  0  0  0  0
 18 30  1  0  0  0  0
 19 20  1  0  0  0  0
 19 21  1  0  0  0  0
 20 43  1  0  0  0  0
 20 44  1  0  0  0  0
 20 45  1  0  0  0  0
 21 22  1  0  0  0  0
 21 46  1  0  0  0  0
 22 23  1  0  0  0  0
 22 47  1  0  0  0  0
 22 48  1  0  0  0  0
 23 24  1  0  0  0  0
 23 49  1  0  0  0  0
 23 50  1  0  0  0  0
 24 25  1  0  0  0  0
 24 51  1  0  0  0  0
 24 52  1  0  0  0  0
 25 26  2  0  0  0  0
 26 27  1  0  0  0  0
 26 53  1  0  0  0  0
 27 28  2  0  0  0  0
 27 54  1  0  0  0  0
 28 29  1  0  0  0  0
 28 55  1  0  0  0  0
 29 25  1  0  0  0  0
 30 31  2  0  0  0  0
 30 32  1  0  0  0  0
 32 33  1  1  0  0  0
 32 14  1  0  0  0  0
 32 11  1  0  0  0  0
 33 56  1  0  0  0  0
 33 57  1  0  0  0  0
 33 58  1  0  0  0  0
M  END
>  <IDENTIFIER>
CNP0253222.1

>  <Energy>
696.126

$$$$
