
 OpenBabel09062513243D

 88 94  0  0  0  0  0  0  0  0999 V2000
   -6.4931    1.8839   -0.0923 C   0  0  0  0  0  0  0  0  0  0  0  0
   -5.9105    0.5901    0.5178 C   0  0  0  0  0  0  0  0  0  0  0  0
   -7.0790   -0.4160    0.6128 C   0  0  0  0  0  0  0  0  0  0  0  0
   -5.4591    0.8924    1.8234 O   0  0  0  0  0  0  0  0  0  0  0  0
   -4.1241    0.4461    1.9986 C   0  0  1  0  0  0  0  0  0  0  0  0
   -4.0473   -0.2610    3.3647 C   0  0  0  0  0  0  0  0  0  0  0  0
   -4.9840   -1.4304    3.2732 C   0  0  0  0  0  0  0  0  0  0  0  0
   -5.8734   -1.5925    4.0928 O   0  0  0  0  0  0  0  0  0  0  0  0
   -4.9299   -2.2031    2.1631 O   0  0  0  0  0  0  0  0  0  0  0  0
   -3.9200   -2.0240    1.2391 C   0  0  0  0  0  0  0  0  0  0  0  0
   -3.7269   -0.5079    0.8067 C   0  0  1  0  0  0  0  0  0  0  0  0
   -4.7208   -0.0188   -0.2873 C   0  0  2  0  0  0  0  0  0  0  0  0
   -4.0653    0.9532   -1.3413 C   0  0  0  0  0  0  0  0  0  0  0  0
   -2.8115    0.3682   -1.9985 C   0  0  0  0  0  0  0  0  0  0  0  0
   -2.3419    0.9373   -2.9724 O   0  0  0  0  0  0  0  0  0  0  0  0
   -1.9494   -0.6093   -1.2044 C   0  0  2  0  0  0  0  0  0  0  0  0
   -2.4694   -2.0189   -1.6112 C   0  0  0  0  0  0  0  0  0  0  0  0
   -2.2426   -0.2449    0.3169 C   0  0  2  0  0  0  0  0  0  0  0  0
   -1.0654   -0.6395    1.2099 C   0  0  0  0  0  0  0  0  0  0  0  0
    0.1731    0.2651    0.8970 C   0  0  0  0  0  0  0  0  0  0  0  0
    0.4175    0.6413   -0.6156 C   0  0  1  0  0  0  0  0  0  0  0  0
   -0.2634    2.0113   -0.9928 C   0  0  0  0  0  0  0  0  0  0  0  0
    1.9764    0.9971   -0.7761 C   0  0  1  0  0  0  0  0  0  0  0  0
    2.8553   -0.0187   -0.2987 O   0  0  0  0  0  0  0  0  0  0  0  0
    3.7191    0.4261    0.7483 C   0  0  2  0  0  0  0  0  0  0  0  0
    4.9248    0.9181    0.1447 O   0  0  0  0  0  0  0  0  0  0  0  0
    6.0446    0.7768    0.9965 C   0  0  2  0  0  0  0  0  0  0  0  0
    7.2341    1.5766    0.4519 C   0  0  0  0  0  0  0  0  0  0  0  0
    7.6108    1.1131   -0.8189 O   0  0  0  0  0  0  0  0  0  0  0  0
    6.4017   -0.7286    1.1991 C   0  0  1  0  0  0  0  0  0  0  0  0
    7.2162   -0.8745    2.3376 O   0  0  0  0  0  0  0  0  0  0  0  0
    5.1150   -1.6094    1.2871 C   0  0  2  0  0  0  0  0  0  0  0  0
    4.8049   -2.1991    0.0431 O   0  0  0  0  0  0  0  0  0  0  0  0
    3.9319   -0.7554    1.7618 C   0  0  1  0  0  0  0  0  0  0  0  0
    4.2157   -0.2644    3.0494 O   0  0  0  0  0  0  0  0  0  0  0  0
    2.4452    1.4918   -2.1370 C   0  0  0  0  0  0  0  0  0  0  0  0
    2.6038    0.8038   -3.3254 C   0  0  0  0  0  0  0  0  0  0  0  0
    3.0433    1.6212   -4.2556 O   0  0  0  0  0  0  0  0  0  0  0  0
    3.1879    2.8185   -3.7387 C   0  0  0  0  0  0  0  0  0  0  0  0
    2.8313    2.7914   -2.4096 C   0  0  0  0  0  0  0  0  0  0  0  0
   -0.3392   -0.4893   -1.4443 C   0  0  2  0  0  0  0  0  0  0  0  0
    0.1623   -0.6397   -2.7433 O   0  0  0  0  0  0  0  0  0  0  0  0
    0.2856   -1.7938   -1.9209 C   0  0  1  0  0  0  0  0  0  0  0  0
    1.6766   -2.1738   -1.5409 C   0  0  0  0  0  0  0  0  0  0  0  0
    1.9289   -2.3768   -0.3651 O   0  0  0  0  0  0  0  0  0  0  0  0
    2.5967   -2.4852   -2.4774 O   0  0  0  0  0  0  0  0  0  0  0  0
   -7.3322    2.2582    0.5334 H   0  0  0  0  0  0  0  0  0  0  0  0
   -6.8784    1.7061   -1.1188 H   0  0  0  0  0  0  0  0  0  0  0  0
   -5.7368    2.6947   -0.1167 H   0  0  0  0  0  0  0  0  0  0  0  0
   -7.8979    0.0004    1.2384 H   0  0  0  0  0  0  0  0  0  0  0  0
   -6.7887   -1.3808    1.0510 H   0  0  0  0  0  0  0  0  0  0  0  0
   -7.4867   -0.6271   -0.3995 H   0  0  0  0  0  0  0  0  0  0  0  0
   -3.4985    1.3638    2.0130 H   0  0  0  0  0  0  0  0  0  0  0  0
   -4.3347    0.4157    4.1981 H   0  0  0  0  0  0  0  0  0  0  0  0
   -3.0224   -0.6271    3.5572 H   0  0  0  0  0  0  0  0  0  0  0  0
   -4.0608   -2.7290    0.4053 H   0  0  0  0  0  0  0  0  0  0  0  0
   -2.9970   -2.3561    1.7582 H   0  0  0  0  0  0  0  0  0  0  0  0
   -5.0839   -0.8525   -0.9197 H   0  0  0  0  0  0  0  0  0  0  0  0
   -3.7738    1.9170   -0.8738 H   0  0  0  0  0  0  0  0  0  0  0  0
   -4.8089    1.1699   -2.1375 H   0  0  0  0  0  0  0  0  0  0  0  0
   -3.5560   -2.1376   -1.5483 H   0  0  0  0  0  0  0  0  0  0  0  0
   -1.9967   -2.8166   -0.9996 H   0  0  0  0  0  0  0  0  0  0  0  0
   -2.2860   -2.1981   -2.6917 H   0  0  0  0  0  0  0  0  0  0  0  0
   -2.1913    0.8439    0.4148 H   0  0  0  0  0  0  0  0  0  0  0  0
   -0.8385   -1.7103    1.0129 H   0  0  0  0  0  0  0  0  0  0  0  0
   -1.2695   -0.5268    2.2892 H   0  0  0  0  0  0  0  0  0  0  0  0
    1.0199   -0.3079    1.3179 H   0  0  0  0  0  0  0  0  0  0  0  0
    0.1242    1.2128    1.4771 H   0  0  0  0  0  0  0  0  0  0  0  0
    0.1374    2.8485   -0.3819 H   0  0  0  0  0  0  0  0  0  0  0  0
   -1.3427    2.1120   -0.8813 H   0  0  0  0  0  0  0  0  0  0  0  0
   -0.0727    2.2489   -2.0606 H   0  0  0  0  0  0  0  0  0  0  0  0
    2.0796    1.9098   -0.1459 H   0  0  0  0  0  0  0  0  0  0  0  0
    3.2431    1.2259    1.3619 H   0  0  0  0  0  0  0  0  0  0  0  0
    5.7914    1.2488    1.9737 H   0  0  0  0  0  0  0  0  0  0  0  0
    8.0892    1.5306    1.1670 H   0  0  0  0  0  0  0  0  0  0  0  0
    6.9523    2.6472    0.3626 H   0  0  0  0  0  0  0  0  0  0  0  0
    8.3975    0.5201   -0.6924 H   0  0  0  0  0  0  0  0  0  0  0  0
    6.9866   -1.1299    0.3441 H   0  0  0  0  0  0  0  0  0  0  0  0
    6.6820   -0.6210    3.1342 H   0  0  0  0  0  0  0  0  0  0  0  0
    5.3058   -2.4544    1.9829 H   0  0  0  0  0  0  0  0  0  0  0  0
    4.9480   -1.5350   -0.6788 H   0  0  0  0  0  0  0  0  0  0  0  0
    3.0159   -1.3833    1.8389 H   0  0  0  0  0  0  0  0  0  0  0  0
    3.3631    0.0849    3.4201 H   0  0  0  0  0  0  0  0  0  0  0  0
    2.4201   -0.2339   -3.5058 H   0  0  0  0  0  0  0  0  0  0  0  0
    3.5380    3.6829   -4.2866 H   0  0  0  0  0  0  0  0  0  0  0  0
    2.8485    3.6263   -1.7217 H   0  0  0  0  0  0  0  0  0  0  0  0
   -0.2022   -2.5912   -2.5101 H   0  0  0  0  0  0  0  0  0  0  0  0
    2.3870   -2.4664   -3.4217 H   0  0  0  0  0  0  0  0  0  0  0  0
  1  2  1  0  0  0  0
  1 47  1  0  0  0  0
  1 48  1  0  0  0  0
  1 49  1  0  0  0  0
  2  3  1  0  0  0  0
  2  4  1  0  0  0  0
  3 50  1  0  0  0  0
  3 51  1  0  0  0  0
  3 52  1  0  0  0  0
  4  5  1  0  0  0  0
  5  6  1  0  0  0  0
  5 53  1  1  0  0  0
  6  7  1  0  0  0  0
  6 54  1  0  0  0  0
  6 55  1  0  0  0  0
  7  8  2  0  0  0  0
  7  9  1  0  0  0  0
  9 10  1  0  0  0  0
 10 56  1  0  0  0  0
 10 57  1  0  0  0  0
 11 10  1  1  0  0  0
 11 12  1  0  0  0  0
 11  5  1  0  0  0  0
 12 13  1  0  0  0  0
 12  2  1  0  0  0  0
 12 58  1  6  0  0  0
 13 14  1  0  0  0  0
 13 59  1  0  0  0  0
 13 60  1  0  0  0  0
 14 15  2  0  0  0  0
 14 16  1  0  0  0  0
 16 17  1  6  0  0  0
 16 18  1  0  0  0  0
 17 61  1  0  0  0  0
 17 62  1  0  0  0  0
 17 63  1  0  0  0  0
 18 19  1  0  0  0  0
 18 11  1  0  0  0  0
 18 64  1  6  0  0  0
 19 20  1  0  0  0  0
 19 65  1  0  0  0  0
 19 66  1  0  0  0  0
 20 21  1  0  0  0  0
 20 67  1  0  0  0  0
 20 68  1  0  0  0  0
 21 22  1  6  0  0  0
 21 23  1  0  0  0  0
 21 41  1  0  0  0  0
 22 69  1  0  0  0  0
 22 70  1  0  0  0  0
 22 71  1  0  0  0  0
 23 24  1  0  0  0  0
 23 36  1  0  0  0  0
 23 72  1  1  0  0  0
 25 24  1  0  0  0  0
 25 26  1  0  0  0  0
 25 73  1  1  0  0  0
 26 27  1  0  0  0  0
 27 28  1  0  0  0  0
 27 30  1  0  0  0  0
 27 74  1  1  0  0  0
 28 29  1  0  0  0  0
 28 75  1  0  0  0  0
 28 76  1  0  0  0  0
 29 77  1  0  0  0  0
 30 31  1  0  0  0  0
 30 32  1  0  0  0  0
 30 78  1  6  0  0  0
 31 79  1  0  0  0  0
 32 33  1  0  0  0  0
 32 34  1  0  0  0  0
 32 80  1  1  0  0  0
 33 81  1  0  0  0  0
 34 35  1  0  0  0  0
 34 25  1  0  0  0  0
 34 82  1  1  0  0  0
 35 83  1  0  0  0  0
 36 37  2  0  0  0  0
 37 38  1  0  0  0  0
 37 84  1  0  0  0  0
 38 39  1  0  0  0  0
 39 40  2  0  0  0  0
 39 85  1  0  0  0  0
 40 36  1  0  0  0  0
 40 86  1  0  0  0  0
 41 42  1  6  0  0  0
 41 16  1  0  0  0  0
 42 43  1  0  0  0  0
 43 44  1  0  0  0  0
 43 41  1  0  0  0  0
 43 87  1  6  0  0  0
 44 45  2  0  0  0  0
 44 46  1  0  0  0  0
 46 88  1  0  0  0  0
M  END
>  <IDENTIFIER>
CNP0138676.4

>  <Energy>
3028.89

$$$$
