
 OpenBabel09092518232D

150150  0  0  0  0  0  0  0  0999 V2000
   26.2348  -25.9774    0.0000 C   0  0  0  0  0  0  0  0  0  0  0  0
   25.2706  -24.8283    0.0000 C   0  0  0  0  0  0  0  0  0  0  0  0
   24.3064  -23.6792    0.0000 C   0  0  0  0  0  0  0  0  0  0  0  0
   23.0155  -22.9780   -0.7462 C   0  0  0  0  0  0  0  0  0  0  0  0
   22.7048  -21.4735   -0.1424 C   0  0  0  0  0  0  0  0  0  0  0  0
   21.7302  -20.1703   -0.2145 C   0  0  0  0  0  0  0  0  0  0  0  0
   20.5037  -19.6969   -0.7260 C   0  0  0  0  0  0  0  0  0  0  0  0
   20.0332  -18.1687   -0.4504 C   0  0  0  0  0  0  0  0  0  0  0  0
   18.6179  -17.5045   -0.8284 C   0  0  0  0  0  0  0  0  0  0  0  0
   18.2966  -16.1359   -0.6298 C   0  0  0  0  0  0  0  0  0  0  0  0
   16.9152  -15.3544   -0.9266 C   0  0  0  0  0  0  0  0  0  0  0  0
   16.9260  -13.7298   -0.7705 C   0  0  0  0  0  0  0  0  0  0  0  0
   15.7153  -12.6554   -1.1264 C   0  0  0  0  0  0  0  0  0  0  0  0
   14.6646  -12.1886    0.0000 C   0  0  0  0  0  0  0  0  0  0  0  0
   13.7004  -11.0395    0.0000 C   0  0  0  0  0  0  0  0  0  0  0  0
   12.7362   -9.8904    0.0000 C   0  0  0  0  0  0  0  0  0  0  0  0
   11.7721   -8.7414    0.0000 C   0  0  0  0  0  0  0  0  0  0  0  0
   10.8079   -7.5923    0.0000 C   0  0  0  0  0  0  0  0  0  0  0  0
    9.8437   -6.4432    0.0000 C   0  0  0  0  0  0  0  0  0  0  0  0
    8.5286   -5.9557   -0.7440 C   0  0  0  0  0  0  0  0  0  0  0  0
    8.5772   -5.7185   -1.9402 O   0  0  0  0  0  0  0  0  0  0  0  0
    7.4023   -5.5547    0.0000 O   0  0  0  0  0  0  0  0  0  0  0  0
    6.4381   -4.4056    0.0000 C   0  0  0  0  0  0  0  0  0  0  0  0
    5.4739   -3.2565    0.0000 C   0  0  2  0  0  0  0  0  0  0  0  0
    5.5226   -2.1157   -1.0564 C   0  0  0  0  0  0  0  0  0  0  0  0
    4.1962   -1.6787   -1.3544 O   0  0  0  0  0  0  0  0  0  0  0  0
    3.7494   -0.1611   -0.5815 P   0  0  3  0  0  0  0  0  0  0  0  0
    4.6214    0.9235   -1.2684 O   0  0  0  0  0  0  0  0  0  0  0  0
    4.1754   -0.0917    1.1026 O   0  0  0  0  0  0  0  0  0  0  0  0
    2.0650    0.3310   -0.9042 O   0  0  0  0  0  0  0  0  0  0  0  0
    1.1548   -0.2806    0.0072 C   0  0  1  0  0  0  0  0  0  0  0  0
    0.4888   -1.5149   -0.6316 C   0  0  3  0  0  0  0  0  0  0  0  0
    1.4758   -2.3832   -1.1259 O   0  0  0  0  0  0  0  0  0  0  0  0
   -0.4833   -1.1026   -1.7607 C   0  0  3  0  0  0  0  0  0  0  0  0
   -1.0469   -2.2618   -2.3174 O   0  0  0  0  0  0  0  0  0  0  0  0
   -1.6090   -0.1958   -1.2003 C   0  0  3  0  0  0  0  0  0  0  0  0
   -2.2969   -0.8999   -0.1766 O   0  0  0  0  0  0  0  0  0  0  0  0
   -3.9579   -1.2114   -0.6288 P   0  0  0  0  0  0  0  0  0  0  0  0
   -4.6545   -1.7680    0.6422 O   0  0  0  0  0  0  0  0  0  0  0  0
   -4.8286    0.2272   -1.0671 O   0  0  0  0  0  0  0  0  0  0  0  0
   -4.1053   -2.4595   -1.8248 O   0  0  0  0  0  0  0  0  0  0  0  0
   -1.0367    1.1127   -0.6021 C   0  0  1  0  0  0  0  0  0  0  0  0
   -2.1595    1.8121    0.0000 O   0  0  0  0  0  0  0  0  0  0  0  0
   -2.4200    3.2893    0.0000 P   0  0  0  0  0  0  0  0  0  0  0  0
   -2.6805    4.7665    0.0000 O   0  0  0  0  0  0  0  0  0  0  0  0
   -0.9428    3.5498    0.0000 O   0  0  0  0  0  0  0  0  0  0  0  0
   -3.8972    3.0288    0.0000 O   0  0  0  0  0  0  0  0  0  0  0  0
    0.0430    0.7190    0.4898 C   0  0  3  0  0  0  0  0  0  0  0  0
    0.6369    1.8399    1.0902 O   0  0  0  0  0  0  0  0  0  0  0  0
    4.2605   -4.0602   -0.2794 O   0  0  0  0  0  0  0  0  0  0  0  0
    3.6141   -5.1045    0.4654 C   0  0  0  0  0  0  0  0  0  0  0  0
    3.3137   -4.8574    1.6223 O   0  0  0  0  0  0  0  0  0  0  0  0
    3.4363   -6.6621    0.0000 C   0  0  0  0  0  0  0  0  0  0  0  0
    2.2872   -7.6263    0.0000 C   0  0  0  0  0  0  0  0  0  0  0  0
    1.1381   -8.5905    0.0000 C   0  0  0  0  0  0  0  0  0  0  0  0
   -0.0109   -9.5546    0.0000 C   0  0  0  0  0  0  0  0  0  0  0  0
   -1.1600  -10.5188    0.0000 C   0  0  0  0  0  2  0  0  0  0  0  0
   -2.3091  -11.4830    0.0000 C   0  0  0  0  0  0  0  0  0  0  0  0
   -3.9950  -11.7294   -0.1119 C   0  0  0  0  0  0  0  0  0  0  0  0
   -4.7150  -13.2864   -0.0132 C   0  0  0  0  0  0  0  0  0  0  0  0
   -6.3767  -13.7191   -0.0901 C   0  0  0  0  0  0  0  0  0  0  0  0
   -6.9053  -15.3397    0.0000 C   0  0  0  0  0  0  0  0  0  0  0  0
   -8.0544  -16.3039    0.0000 C   0  0  0  0  0  0  0  0  0  0  0  0
   -9.2035  -17.2681    0.0000 C   0  0  0  0  0  0  0  0  0  0  0  0
  -10.1064  -18.4587    0.7235 C   0  0  0  0  0  0  0  0  0  0  0  0
  -11.5016  -19.1965    0.0000 C   0  0  0  0  0  0  0  0  0  0  0  0
  -12.6507  -20.1606    0.0000 C   0  0  0  0  0  0  0  0  0  0  0  0
   25.7705  -26.5381   -0.8480 H   0  0  0  0  0  0  0  0  0  0  0  0
   25.8615  -26.4584    0.9379 H   0  0  0  0  0  0  0  0  0  0  0  0
   26.9226  -26.7971    0.0000 H   0  0  0  0  0  0  0  0  0  0  0  0
   25.8716  -24.3967    0.8494 H   0  0  0  0  0  0  0  0  0  0  0  0
   25.6803  -24.4814   -0.9839 H   0  0  0  0  0  0  0  0  0  0  0  0
   24.9819  -22.7798   -0.0069 H   0  0  0  0  0  0  0  0  0  0  0  0
   23.8870  -23.7417    1.0329 H   0  0  0  0  0  0  0  0  0  0  0  0
   23.2331  -22.8705   -1.8298 H   0  0  0  0  0  0  0  0  0  0  0  0
   22.1278  -23.6344   -0.6279 H   0  0  0  0  0  0  0  0  0  0  0  0
   23.6750  -20.9810   -0.3679 H   0  0  0  0  0  0  0  0  0  0  0  0
   22.6965  -21.6651    0.9517 H   0  0  0  0  0  0  0  0  0  0  0  0
   22.2090  -19.3850    0.3663 H   0  0  0  0  0  0  0  0  0  0  0  0
   19.8678  -20.3613   -1.3003 H   0  0  0  0  0  0  0  0  0  0  0  0
   20.1233  -18.0163    0.6459 H   0  0  0  0  0  0  0  0  0  0  0  0
   20.8073  -17.5370   -0.9352 H   0  0  0  0  0  0  0  0  0  0  0  0
   17.8596  -18.1511   -1.2569 H   0  0  0  0  0  0  0  0  0  0  0  0
   19.0911  -15.5174   -0.2247 H   0  0  0  0  0  0  0  0  0  0  0  0
   16.6368  -15.5658   -1.9805 H   0  0  0  0  0  0  0  0  0  0  0  0
   16.1254  -15.7782   -0.2723 H   0  0  0  0  0  0  0  0  0  0  0  0
   17.7305  -13.4516   -1.4856 H   0  0  0  0  0  0  0  0  0  0  0  0
   17.3132  -13.4702    0.2371 H   0  0  0  0  0  0  0  0  0  0  0  0
   16.2516  -11.7072   -1.3496 H   0  0  0  0  0  0  0  0  0  0  0  0
   15.2030  -12.9532   -2.0650 H   0  0  0  0  0  0  0  0  0  0  0  0
   14.1257  -13.1452    0.2404 H   0  0  0  0  0  0  0  0  0  0  0  0
   15.3682  -11.9976    0.8535 H   0  0  0  0  0  0  0  0  0  0  0  0
   13.4669  -11.3731    1.0686 H   0  0  0  0  0  0  0  0  0  0  0  0
   13.1149  -11.5481   -0.8064 H   0  0  0  0  0  0  0  0  0  0  0  0
   11.8854  -10.4832    0.4864 H   0  0  0  0  0  0  0  0  0  0  0  0
   13.3381   -9.3927    0.8212 H   0  0  0  0  0  0  0  0  0  0  0  0
   11.1531   -9.2382   -0.8127 H   0  0  0  0  0  0  0  0  0  0  0  0
   12.5993   -8.1607   -0.5330 H   0  0  0  0  0  0  0  0  0  0  0  0
   11.4609   -7.0852    0.7648 H   0  0  0  0  0  0  0  0  0  0  0  0
   10.9499   -7.2816   -1.0852 H   0  0  0  0  0  0  0  0  0  0  0  0
   10.4602   -5.5051   -0.0935 H   0  0  0  0  0  0  0  0  0  0  0  0
    9.4815   -6.4380    1.0560 H   0  0  0  0  0  0  0  0  0  0  0  0
    7.2450   -3.6654    0.1979 H   0  0  0  0  0  0  0  0  0  0  0  0
    6.2863   -4.5327   -1.0977 H   0  0  0  0  0  0  0  0  0  0  0  0
    5.3423   -2.8181    1.0140 H   0  0  0  0  0  0  0  0  0  0  0  0
    5.9095   -2.5247   -2.0130 H   0  0  0  0  0  0  0  0  0  0  0  0
    6.2257   -1.3048   -0.7655 H   0  0  0  0  0  0  0  0  0  0  0  0
    3.9119   -0.9713    1.4713 H   0  0  0  0  0  0  0  0  0  0  0  0
    1.6842   -0.6098    0.9274 H   0  0  0  0  0  0  0  0  0  0  0  0
   -0.0894   -2.0322    0.1726 H   0  0  0  0  0  0  0  0  0  0  0  0
    1.1255   -3.3082   -1.0393 H   0  0  0  0  0  0  0  0  0  0  0  0
    0.0961   -0.5585   -2.5438 H   0  0  0  0  0  0  0  0  0  0  0  0
   -1.3976   -2.0095   -3.2110 H   0  0  0  0  0  0  0  0  0  0  0  0
   -2.2729    0.0995   -2.0466 H   0  0  0  0  0  0  0  0  0  0  0  0
   -5.2161    0.5642   -0.2201 H   0  0  0  0  0  0  0  0  0  0  0  0
   -3.9433   -1.9989   -2.6867 H   0  0  0  0  0  0  0  0  0  0  0  0
   -0.5646    1.6687   -1.4425 H   0  0  0  0  0  0  0  0  0  0  0  0
   -0.7005    3.8145   -0.9277 H   0  0  0  0  0  0  0  0  0  0  0  0
   -4.1633    2.9892   -0.9562 H   0  0  0  0  0  0  0  0  0  0  0  0
   -0.5144    0.1884    1.2934 H   0  0  0  0  0  0  0  0  0  0  0  0
    1.1993    2.2808    0.4014 H   0  0  0  0  0  0  0  0  0  0  0  0
    4.1606   -7.1700    0.6775 H   0  0  0  0  0  0  0  0  0  0  0  0
    3.9136   -6.7350   -1.0041 H   0  0  0  0  0  0  0  0  0  0  0  0
    1.7690   -6.9899   -0.7628 H   0  0  0  0  0  0  0  0  0  0  0  0
    1.9824   -7.2212    1.0010 H   0  0  0  0  0  0  0  0  0  0  0  0
    1.6335   -9.2045    0.8047 H   0  0  0  0  0  0  0  0  0  0  0  0
    1.5293   -9.0431   -0.9531 H   0  0  0  0  0  0  0  0  0  0  0  0
   -0.5210   -9.0176   -0.8375 H   0  0  0  0  0  0  0  0  0  0  0  0
   -0.4255   -9.1241    0.9445 H   0  0  0  0  0  0  0  0  0  0  0  0
   -1.9576  -12.1850   -0.7842 H   0  0  0  0  0  0  0  0  0  0  0  0
   -2.1036  -12.0058    0.9570 H   0  0  0  0  0  0  0  0  0  0  0  0
   -4.3140  -11.2966   -1.0831 H   0  0  0  0  0  0  0  0  0  0  0  0
   -4.4574  -11.1166    0.6894 H   0  0  0  0  0  0  0  0  0  0  0  0
   -4.3572  -13.7059    0.9499 H   0  0  0  0  0  0  0  0  0  0  0  0
   -4.2283  -13.8756   -0.8180 H   0  0  0  0  0  0  0  0  0  0  0  0
   -6.7637  -13.3159   -1.0492 H   0  0  0  0  0  0  0  0  0  0  0  0
   -6.8863  -13.1694    0.7282 H   0  0  0  0  0  0  0  0  0  0  0  0
   -6.3700  -15.6488    0.9289 H   0  0  0  0  0  0  0  0  0  0  0  0
   -6.2702  -15.7687   -0.8124 H   0  0  0  0  0  0  0  0  0  0  0  0
   -8.3712  -15.8222   -0.9659 H   0  0  0  0  0  0  0  0  0  0  0  0
   -8.4921  -15.7743    0.8819 H   0  0  0  0  0  0  0  0  0  0  0  0
  -10.0900  -16.6099   -0.2151 H   0  0  0  0  0  0  0  0  0  0  0  0
   -8.9880  -17.8225   -0.9450 H   0  0  0  0  0  0  0  0  0  0  0  0
  -10.4197  -18.0480    1.7117 H   0  0  0  0  0  0  0  0  0  0  0  0
   -9.3332  -19.2449    0.9235 H   0  0  0  0  0  0  0  0  0  0  0  0
  -11.0240  -19.4238   -0.9848 H   0  0  0  0  0  0  0  0  0  0  0  0
  -11.2768  -19.8585    0.8719 H   0  0  0  0  0  0  0  0  0  0  0  0
  -13.1956  -19.6720   -0.8384 H   0  0  0  0  0  0  0  0  0  0  0  0
  -12.1513  -21.0960   -0.3980 H   0  0  0  0  0  0  0  0  0  0  0  0
  -13.4704  -20.8483    0.0000 H   0  0  0  0  0  0  0  0  0  0  0  0
  1  2  1  0  0  0  0
  1 68  1  0  0  0  0
  1 69  1  0  0  0  0
  1 70  1  0  0  0  0
  2  3  1  0  0  0  0
  2 71  1  0  0  0  0
  2 72  1  0  0  0  0
  3  4  1  0  0  0  0
  3 73  1  0  0  0  0
  3 74  1  0  0  0  0
  4  5  1  0  0  0  0
  4 75  1  0  0  0  0
  4 76  1  0  0  0  0
  5  6  1  0  0  0  0
  5 77  1  0  0  0  0
  5 78  1  0  0  0  0
  6  7  2  3  0  0  0
  6 79  1  0  0  0  0
  7  8  1  0  0  0  0
  7 80  1  0  0  0  0
  8  9  1  0  0  0  0
  8 81  1  0  0  0  0
  8 82  1  0  0  0  0
  9 10  2  3  0  0  0
  9 83  1  0  0  0  0
 10 11  1  0  0  0  0
 10 84  1  0  0  0  0
 11 12  1  0  0  0  0
 11 85  1  0  0  0  0
 11 86  1  0  0  0  0
 12 13  1  0  0  0  0
 12 87  1  0  0  0  0
 12 88  1  0  0  0  0
 13 14  1  0  0  0  0
 13 89  1  0  0  0  0
 13 90  1  0  0  0  0
 14 15  1  0  0  0  0
 14 91  1  0  0  0  0
 14 92  1  0  0  0  0
 15 16  1  0  0  0  0
 15 93  1  0  0  0  0
 15 94  1  0  0  0  0
 16 17  1  0  0  0  0
 16 95  1  0  0  0  0
 16 96  1  0  0  0  0
 17 18  1  0  0  0  0
 17 97  1  0  0  0  0
 17 98  1  0  0  0  0
 18 19  1  0  0  0  0
 18 99  1  0  0  0  0
 18100  1  0  0  0  0
 19 20  1  0  0  0  0
 19101  1  0  0  0  0
 19102  1  0  0  0  0
 20 21  2  0  0  0  0
 20 22  1  0  0  0  0
 22 23  1  0  0  0  0
 23103  1  0  0  0  0
 23104  1  0  0  0  0
 24 23  1  0  0  0  0
 24 25  1  0  0  0  0
 24 50  1  0  0  0  0
 24105  1  6  0  0  0
 25 26  1  0  0  0  0
 25106  1  0  0  0  0
 25107  1  0  0  0  0
 26 27  1  0  0  0  0
 27 28  2  0  0  0  0
 27 29  1  0  0  0  0
 27 30  1  0  0  0  0
 29108  1  0  0  0  0
 31 30  1  0  0  0  0
 31 32  1  0  0  0  0
 31109  1  6  0  0  0
 32 33  1  0  0  0  0
 32 34  1  0  0  0  0
 32110  1  0  0  0  0
 33111  1  0  0  0  0
 34 35  1  0  0  0  0
 34 36  1  0  0  0  0
 34112  1  0  0  0  0
 35113  1  0  0  0  0
 36 37  1  0  0  0  0
 36 42  1  0  0  0  0
 36114  1  0  0  0  0
 37 38  1  0  0  0  0
 38 39  2  0  0  0  0
 38 40  1  0  0  0  0
 38 41  1  0  0  0  0
 40115  1  0  0  0  0
 41116  1  0  0  0  0
 42 43  1  0  0  0  0
 42 48  1  0  0  0  0
 42117  1  6  0  0  0
 43 44  1  0  0  0  0
 44 45  2  0  0  0  0
 44 46  1  0  0  0  0
 44 47  1  0  0  0  0
 46118  1  0  0  0  0
 47119  1  0  0  0  0
 48 49  1  0  0  0  0
 48 31  1  0  0  0  0
 48120  1  0  0  0  0
 49121  1  0  0  0  0
 50 51  1  0  0  0  0
 51 52  2  0  0  0  0
 51 53  1  0  0  0  0
 53 54  1  0  0  0  0
 53122  1  0  0  0  0
 53123  1  0  0  0  0
 54 55  1  0  0  0  0
 54124  1  0  0  0  0
 54125  1  0  0  0  0
 55 56  1  0  0  0  0
 55126  1  0  0  0  0
 55127  1  0  0  0  0
 56 57  1  0  0  0  0
 56128  1  0  0  0  0
 56129  1  0  0  0  0
 57 58  1  0  0  0  0
 58 59  1  0  0  0  0
 58130  1  0  0  0  0
 58131  1  0  0  0  0
 59 60  1  0  0  0  0
 59132  1  0  0  0  0
 59133  1  0  0  0  0
 60 61  1  0  0  0  0
 60134  1  0  0  0  0
 60135  1  0  0  0  0
 61 62  1  0  0  0  0
 61136  1  0  0  0  0
 61137  1  0  0  0  0
 62 63  1  0  0  0  0
 62138  1  0  0  0  0
 62139  1  0  0  0  0
 63 64  1  0  0  0  0
 63140  1  0  0  0  0
 63141  1  0  0  0  0
 64 65  1  0  0  0  0
 64142  1  0  0  0  0
 64143  1  0  0  0  0
 65 66  1  0  0  0  0
 65144  1  0  0  0  0
 65145  1  0  0  0  0
 66 67  1  0  0  0  0
 66146  1  0  0  0  0
 66147  1  0  0  0  0
 67148  1  0  0  0  0
 67149  1  0  0  0  0
 67150  1  0  0  0  0
M  END
>  <IDENTIFIER>
CNP0023663.1

>  <Energy>
10663.3

$$$$
