
 OpenBabel09072519253D

 53 56  0  0  0  0  0  0  0  0999 V2000
    3.3492   -2.1395   -1.7909 O   0  0  0  0  0  0  0  0  0  0  0  0
    2.5638   -1.6193   -1.0182 C   0  0  0  0  0  0  0  0  0  0  0  0
    1.6128   -2.4510   -0.2320 C   0  0  0  0  0  0  0  0  0  0  0  0
    1.6556   -3.8891   -0.2267 C   0  0  0  0  0  0  0  0  0  0  0  0
    2.5369   -4.6378   -0.9319 O   0  0  0  0  0  0  0  0  0  0  0  0
    0.7554   -4.6095    0.5570 C   0  0  0  0  0  0  0  0  0  0  0  0
   -0.1794   -3.9631    1.3431 C   0  0  0  0  0  0  0  0  0  0  0  0
   -0.2416   -2.5791    1.3489 C   0  0  0  0  0  0  0  0  0  0  0  0
    0.6310   -1.7904    0.5608 C   0  0  0  0  0  0  0  0  0  0  0  0
    0.4555   -0.2516    0.5910 C   0  0  2  0  0  0  0  0  0  0  0  0
    0.4151    0.1395    1.9496 O   0  0  0  0  0  0  0  0  0  0  0  0
   -0.9119    0.0824   -0.1850 C   0  0  1  0  0  0  0  0  0  0  0  0
   -1.9573   -0.6342    0.4686 O   0  0  0  0  0  0  0  0  0  0  0  0
   -3.1781   -0.6149   -0.2458 C   0  0  1  0  0  0  0  0  0  0  0  0
   -4.1385   -1.6468    0.3675 C   0  0  0  0  0  0  0  0  0  0  0  0
   -4.4024   -1.3753    1.7184 O   0  0  0  0  0  0  0  0  0  0  0  0
   -3.7599    0.8176   -0.2278 C   0  0  1  0  0  0  0  0  0  0  0  0
   -4.0432    1.2610    1.0808 O   0  0  0  0  0  0  0  0  0  0  0  0
   -2.7575    1.7559   -0.9176 C   0  0  2  0  0  0  0  0  0  0  0  0
   -2.7642    1.5364   -2.3123 O   0  0  0  0  0  0  0  0  0  0  0  0
   -1.3372    1.5982   -0.3025 C   0  0  2  0  0  0  0  0  0  0  0  0
   -0.4495    2.3766   -1.0628 O   0  0  0  0  0  0  0  0  0  0  0  0
    1.6549    0.4914   -0.0202 C   0  0  0  0  0  0  0  0  0  0  0  0
    1.8064    1.8721    0.2400 C   0  0  0  0  0  0  0  0  0  0  0  0
    2.8673    2.6110   -0.2905 C   0  0  0  0  0  0  0  0  0  0  0  0
    2.9836    4.0842   -0.0037 C   0  0  0  0  0  0  0  0  0  0  0  0
    1.8610    4.7650   -0.4942 O   0  0  0  0  0  0  0  0  0  0  0  0
    3.8149    1.9702   -1.0843 C   0  0  0  0  0  0  0  0  0  0  0  0
    3.7174    0.5996   -1.3398 C   0  0  0  0  0  0  0  0  0  0  0  0
    4.6732    0.0074   -2.0893 O   0  0  0  0  0  0  0  0  0  0  0  0
    2.6406   -0.1560   -0.7995 C   0  0  0  0  0  0  0  0  0  0  0  0
    3.2435   -4.3346   -1.5064 H   0  0  0  0  0  0  0  0  0  0  0  0
    0.7907   -5.6926    0.5644 H   0  0  0  0  0  0  0  0  0  0  0  0
   -0.8632   -4.5386    1.9543 H   0  0  0  0  0  0  0  0  0  0  0  0
   -0.9857   -2.1284    1.9894 H   0  0  0  0  0  0  0  0  0  0  0  0
   -0.5253    0.1967    2.2566 H   0  0  0  0  0  0  0  0  0  0  0  0
   -0.7785   -0.3307   -1.2107 H   0  0  0  0  0  0  0  0  0  0  0  0
   -3.0202   -0.9586   -1.2923 H   0  0  0  0  0  0  0  0  0  0  0  0
   -3.7111   -2.6712    0.2625 H   0  0  0  0  0  0  0  0  0  0  0  0
   -5.0988   -1.6459   -0.1909 H   0  0  0  0  0  0  0  0  0  0  0  0
   -3.6449   -1.7507    2.2389 H   0  0  0  0  0  0  0  0  0  0  0  0
   -4.7178    0.8430   -0.7920 H   0  0  0  0  0  0  0  0  0  0  0  0
   -3.2472    1.1148    1.6531 H   0  0  0  0  0  0  0  0  0  0  0  0
   -3.0894    2.8081   -0.7789 H   0  0  0  0  0  0  0  0  0  0  0  0
   -2.2586    0.7140   -2.5245 H   0  0  0  0  0  0  0  0  0  0  0  0
   -1.3652    2.0035    0.7307 H   0  0  0  0  0  0  0  0  0  0  0  0
   -0.2492    1.8837   -1.9004 H   0  0  0  0  0  0  0  0  0  0  0  0
    1.0879    2.3857    0.8670 H   0  0  0  0  0  0  0  0  0  0  0  0
    3.9102    4.5220   -0.4418 H   0  0  0  0  0  0  0  0  0  0  0  0
    3.0476    4.2407    1.0936 H   0  0  0  0  0  0  0  0  0  0  0  0
    1.9935    4.8568   -1.4745 H   0  0  0  0  0  0  0  0  0  0  0  0
    4.6433    2.5333   -1.4975 H   0  0  0  0  0  0  0  0  0  0  0  0
    5.4241    0.4950   -2.4575 H   0  0  0  0  0  0  0  0  0  0  0  0
  1  2  2  0  0  0  0
  2  3  1  0  0  0  0
  3  4  2  0  0  0  0
  4  5  1  0  0  0  0
  4  6  1  0  0  0  0
  5 32  1  0  0  0  0
  6  7  2  0  0  0  0
  6 33  1  0  0  0  0
  7  8  1  0  0  0  0
  7 34  1  0  0  0  0
  8  9  2  0  0  0  0
  8 35  1  0  0  0  0
  9 10  1  0  0  0  0
  9  3  1  0  0  0  0
 10 11  1  1  0  0  0
 10 12  1  0  0  0  0
 10 23  1  0  0  0  0
 11 36  1  0  0  0  0
 12 13  1  0  0  0  0
 12 37  1  6  0  0  0
 13 14  1  0  0  0  0
 14 15  1  0  0  0  0
 14 17  1  0  0  0  0
 14 38  1  6  0  0  0
 15 16  1  0  0  0  0
 15 39  1  0  0  0  0
 15 40  1  0  0  0  0
 16 41  1  0  0  0  0
 17 18  1  0  0  0  0
 17 19  1  0  0  0  0
 17 42  1  6  0  0  0
 18 43  1  0  0  0  0
 19 20  1  0  0  0  0
 19 21  1  0  0  0  0
 19 44  1  1  0  0  0
 20 45  1  0  0  0  0
 21 22  1  0  0  0  0
 21 12  1  0  0  0  0
 21 46  1  1  0  0  0
 22 47  1  0  0  0  0
 23 24  2  0  0  0  0
 24 25  1  0  0  0  0
 24 48  1  0  0  0  0
 25 26  1  0  0  0  0
 25 28  2  0  0  0  0
 26 27  1  0  0  0  0
 26 49  1  0  0  0  0
 26 50  1  0  0  0  0
 27 51  1  0  0  0  0
 28 29  1  0  0  0  0
 28 52  1  0  0  0  0
 29 30  1  0  0  0  0
 29 31  2  0  0  0  0
 30 53  1  0  0  0  0
 31  2  1  0  0  0  0
 31 23  1  0  0  0  0
M  END
>  <IDENTIFIER>
CNP0154057.3

>  <Energy>
532.597

$$$$
