
 OpenBabel09072517363D

 41 45  0  0  0  0  0  0  0  0999 V2000
    0.6582    2.1893    0.2285 C   0  0  0  0  0  0  0  0  0  0  0  0
    1.4014    0.9151    0.0970 N   0  0  0  0  0  0  0  0  0  0  0  0
    2.7618    0.8589    0.3986 C   0  0  0  0  0  0  0  0  0  0  0  0
    3.5167    1.9858    0.8585 C   0  0  0  0  0  0  0  0  0  0  0  0
    4.8752    1.8884    1.1570 C   0  0  0  0  0  0  0  0  0  0  0  0
    5.5393    0.6841    1.0141 C   0  0  0  0  0  0  0  0  0  0  0  0
    4.8479   -0.4325    0.5710 C   0  0  0  0  0  0  0  0  0  0  0  0
    3.4677   -0.3633    0.2615 C   0  0  0  0  0  0  0  0  0  0  0  0
    2.8060   -1.5110   -0.1785 C   0  0  0  0  0  0  0  0  0  0  0  0
    3.4490   -2.5392   -0.2851 O   0  0  0  0  0  0  0  0  0  0  0  0
    1.4293   -1.4826   -0.4862 C   0  0  0  0  0  0  0  0  0  0  0  0
    0.7217   -2.6606   -0.9408 C   0  0  0  0  0  0  0  0  0  0  0  0
    1.2689   -3.8872   -1.1265 O   0  0  0  0  0  0  0  0  0  0  0  0
   -0.6346   -2.5909   -1.2248 C   0  0  0  0  0  0  0  0  0  0  0  0
   -1.3050   -1.4060   -1.0700 C   0  0  0  0  0  0  0  0  0  0  0  0
   -2.6106   -1.2694   -1.3121 O   0  0  0  0  0  0  0  0  0  0  0  0
   -3.0515    0.0010   -1.0234 C   0  0  1  0  0  0  0  0  0  0  0  0
   -4.1146   -0.0222    0.1034 C   0  0  1  0  0  0  0  0  0  0  0  0
   -4.7802    1.2850    0.5417 C   0  0  0  0  0  0  0  0  0  0  0  0
   -4.8649   -1.2747    0.3657 C   0  0  0  0  0  0  0  0  0  0  0  0
   -3.7714   -0.8482    1.1763 O   0  0  0  0  0  0  0  0  0  0  0  0
   -1.7785    0.7848   -0.6180 C   0  0  0  0  0  0  0  0  0  0  0  0
   -0.6919   -0.2582   -0.6456 C   0  0  0  0  0  0  0  0  0  0  0  0
    0.7206   -0.2312   -0.3344 C   0  0  0  0  0  0  0  0  0  0  0  0
    1.2213    3.0722    0.5324 H   0  0  0  0  0  0  0  0  0  0  0  0
   -0.1101    2.0964    1.0160 H   0  0  0  0  0  0  0  0  0  0  0  0
    0.2488    2.4876   -0.7540 H   0  0  0  0  0  0  0  0  0  0  0  0
    3.1271    2.9703    1.0162 H   0  0  0  0  0  0  0  0  0  0  0  0
    5.4168    2.7593    1.5049 H   0  0  0  0  0  0  0  0  0  0  0  0
    6.5938    0.6139    1.2487 H   0  0  0  0  0  0  0  0  0  0  0  0
    5.4035   -1.3575    0.4735 H   0  0  0  0  0  0  0  0  0  0  0  0
    2.1763   -4.1744   -0.9987 H   0  0  0  0  0  0  0  0  0  0  0  0
   -1.1714   -3.4693   -1.5636 H   0  0  0  0  0  0  0  0  0  0  0  0
   -3.5039    0.4442   -1.9374 H   0  0  0  0  0  0  0  0  0  0  0  0
   -5.3508    1.7096   -0.3098 H   0  0  0  0  0  0  0  0  0  0  0  0
   -4.0168    2.0219    0.8634 H   0  0  0  0  0  0  0  0  0  0  0  0
   -5.4782    1.1224    1.3912 H   0  0  0  0  0  0  0  0  0  0  0  0
   -4.5566   -2.2254   -0.1163 H   0  0  0  0  0  0  0  0  0  0  0  0
   -5.7703   -1.2435    1.0070 H   0  0  0  0  0  0  0  0  0  0  0  0
   -1.9062    1.2089    0.3941 H   0  0  0  0  0  0  0  0  0  0  0  0
   -1.5828    1.5717   -1.3744 H   0  0  0  0  0  0  0  0  0  0  0  0
  1  2  1  0  0  0  0
  1 25  1  0  0  0  0
  1 26  1  0  0  0  0
  1 27  1  0  0  0  0
  2  3  1  0  0  0  0
  3  4  2  0  0  0  0
  4  5  1  0  0  0  0
  4 28  1  0  0  0  0
  5  6  2  0  0  0  0
  5 29  1  0  0  0  0
  6  7  1  0  0  0  0
  6 30  1  0  0  0  0
  7  8  2  0  0  0  0
  7 31  1  0  0  0  0
  8  9  1  0  0  0  0
  8  3  1  0  0  0  0
  9 10  2  0  0  0  0
  9 11  1  0  0  0  0
 11 12  2  0  0  0  0
 12 13  1  0  0  0  0
 12 14  1  0  0  0  0
 13 32  1  0  0  0  0
 14 15  2  0  0  0  0
 14 33  1  0  0  0  0
 15 16  1  0  0  0  0
 16 17  1  0  0  0  0
 17 18  1  0  0  0  0
 17 22  1  0  0  0  0
 17 34  1  6  0  0  0
 18 19  1  1  0  0  0
 18 20  1  0  0  0  0
 19 35  1  0  0  0  0
 19 36  1  0  0  0  0
 19 37  1  0  0  0  0
 20 21  1  0  0  0  0
 20 38  1  0  0  0  0
 20 39  1  0  0  0  0
 21 18  1  0  0  0  0
 22 23  1  0  0  0  0
 22 40  1  0  0  0  0
 22 41  1  0  0  0  0
 23 24  2  0  0  0  0
 23 15  1  0  0  0  0
 24  2  1  0  0  0  0
 24 11  1  0  0  0  0
M  END
>  <IDENTIFIER>
CNP0276660.1

>  <Energy>
1973.21

$$$$
