
 OpenBabel09062509413D

 15 16  0  0  0  0  0  0  0  0999 V2000
   -1.8268    2.6930   -0.2091 O   0  0  0  0  0  0  0  0  0  0  0  0
   -2.2770    1.5898   -0.1391 N   0  0  0  0  0  0  0  0  0  0  0  0
   -1.4272    0.4637   -0.0480 C   0  0  0  0  0  0  0  0  0  0  0  0
   -1.8177   -0.8794    0.0509 C   0  0  0  0  0  0  0  0  0  0  0  0
   -0.6976   -1.6494    0.1205 N   0  0  0  0  0  0  0  0  0  0  0  0
    0.3243   -0.8172    0.0662 N   0  0  0  0  0  0  0  0  0  0  0  0
    1.6569   -0.9148    0.0869 C   0  0  0  0  0  0  0  0  0  0  0  0
    2.1473    0.3936   -0.0103 C   0  0  0  0  0  0  0  0  0  0  0  0
    1.0424    1.2608   -0.0882 C   0  0  0  0  0  0  0  0  0  0  0  0
   -0.0518    0.4295   -0.0335 C   0  0  0  0  0  0  0  0  0  0  0  0
   -2.8304   -1.2599    0.0711 H   0  0  0  0  0  0  0  0  0  0  0  0
   -0.6367   -2.6885    0.2012 H   0  0  0  0  0  0  0  0  0  0  0  0
    2.2218   -1.8341    0.1641 H   0  0  0  0  0  0  0  0  0  0  0  0
    3.1889    0.6849   -0.0229 H   0  0  0  0  0  0  0  0  0  0  0  0
    1.0528    2.3391   -0.1723 H   0  0  0  0  0  0  0  0  0  0  0  0
  1  2  2  0  0  0  0
  2  3  1  0  0  0  0
  3  4  2  0  0  0  0
  4  5  1  0  0  0  0
  4 11  1  0  0  0  0
  5  6  1  0  0  0  0
  5 12  1  0  0  0  0
  6  7  1  0  0  0  0
  7  8  2  0  0  0  0
  7 13  1  0  0  0  0
  8  9  1  0  0  0  0
  8 14  1  0  0  0  0
  9 10  2  0  0  0  0
  9 15  1  0  0  0  0
 10  3  1  0  0  0  0
 10  6  1  0  0  0  0
M  END
>  <IDENTIFIER>
CNP0000390.0

>  <Energy>
430.837

$$$$
