
 OpenBabel09052512482D

138137  0  0  0  0  0  0  0  0999 V2000
   24.6817   14.2500    0.0000 C   0  0  0  0  0  0  0  0  0  0  0  0
   23.3827   13.5000    0.0000 C   0  0  0  0  0  0  0  0  0  0  0  0
   22.0836   12.7500    0.0000 C   0  0  0  0  0  0  0  0  0  0  0  0
   20.7846   12.0000    0.0000 C   0  0  0  0  0  2  0  0  0  0  0  0
   19.4856   11.2500    0.0000 C   0  0  0  0  0  0  0  0  0  0  0  0
   18.1865   10.5000    0.0000 C   0  0  0  0  0  0  0  0  0  0  0  0
   16.8875    9.7500    0.0000 C   0  0  0  0  0  2  0  0  0  0  0  0
   15.5885    9.0000    0.0000 C   0  0  0  0  0  0  0  0  0  0  0  0
   13.9563    8.6324    0.1622 C   0  0  0  0  0  0  0  0  0  0  0  0
   13.3261    7.0903   -0.1837 C   0  0  0  0  0  0  0  0  0  0  0  0
   11.6913    6.7500    0.0000 C   0  0  0  0  0  0  0  0  0  0  0  0
   10.3923    6.0000    0.0000 C   0  0  0  0  0  0  0  0  0  0  0  0
    9.0933    5.2500    0.0000 C   0  0  0  0  0  0  0  0  0  0  0  0
    7.7942    4.5000    0.0000 C   0  0  0  0  0  0  0  0  0  0  0  0
    6.4952    3.7500    0.0000 C   0  0  0  0  0  0  0  0  0  0  0  0
    5.1962    3.0000    0.0000 C   0  0  0  0  0  0  0  0  0  0  0  0
    3.6456    2.7097    0.4387 C   0  0  0  0  0  0  0  0  0  0  0  0
    3.0127    1.2555   -0.0645 C   0  0  0  0  0  0  0  0  0  0  0  0
    1.4909    0.7779    0.3223 C   0  0  0  0  0  0  0  0  0  0  0  0
    0.7715   -0.5217   -0.3393 C   0  0  0  0  0  0  0  0  0  0  0  0
    0.7941   -0.5912   -1.5568 O   0  0  0  0  0  0  0  0  0  0  0  0
   -0.0676   -1.4485    0.3701 O   0  0  0  0  0  0  0  0  0  0  0  0
   -1.2990   -2.2500    0.0000 C   0  0  2  0  0  0  0  0  0  0  0  0
   -2.0490   -0.9510   -0.0000 C   0  0  0  0  0  0  0  0  0  0  0  0
   -3.4892   -0.6436   -0.0415 O   0  0  0  0  0  0  0  0  0  0  0  0
   -3.9955    0.7241   -0.0584 C   0  0  0  0  0  0  0  0  0  0  0  0
   -3.1607    1.6094   -0.1738 O   0  0  0  0  0  0  0  0  0  0  0  0
   -5.5461    1.2865    0.0685 C   0  0  0  0  0  0  0  0  0  0  0  0
   -5.7990    2.9462    0.0000 C   0  0  0  0  0  0  0  0  0  0  0  0
   -6.5490    4.2452    0.0000 C   0  0  0  0  0  0  0  0  0  0  0  0
   -7.2990    5.5442    0.0000 C   0  0  0  0  0  0  0  0  0  0  0  0
   -8.0490    6.8433    0.0000 C   0  0  0  0  0  0  0  0  0  0  0  0
   -8.7990    8.1423    0.0000 C   0  0  0  0  0  0  0  0  0  0  0  0
   -9.5490    9.4413    0.0000 C   0  0  0  0  0  0  0  0  0  0  0  0
   -0.5490   -3.5490    0.0000 C   0  0  0  0  0  0  0  0  0  0  0  0
   -0.2886   -4.9907   -0.1349 O   0  0  0  0  0  0  0  0  0  0  0  0
    1.0603   -5.5441   -0.0609 C   0  0  0  0  0  0  0  0  0  0  0  0
    1.9813   -4.7426    0.0169 O   0  0  0  0  0  0  0  0  0  0  0  0
    1.5558   -7.1089   -0.0604 C   0  0  0  0  0  0  0  0  0  0  0  0
    3.2010   -7.4462    0.0000 C   0  0  0  0  0  0  0  0  0  0  0  0
    3.9510   -8.7452    0.0000 C   0  0  0  0  0  0  0  0  0  0  0  0
    4.7010  -10.0442    0.0000 C   0  0  0  0  0  0  0  0  0  0  0  0
    5.4510  -11.3433    0.0000 C   0  0  0  0  0  0  0  0  0  0  0  0
    6.2010  -12.6423    0.0000 C   0  0  0  0  0  0  0  0  0  0  0  0
    6.9510  -13.9413    0.0000 C   0  0  0  0  0  0  0  0  0  0  0  0
    7.3565  -15.5384   -0.3266 C   0  0  0  0  0  0  0  0  0  0  0  0
    8.7749  -16.2407    0.2986 C   0  0  0  0  0  0  0  0  0  0  0  0
    9.2010  -17.8385    0.0000 C   0  0  0  0  0  0  0  0  0  0  0  0
    9.9510  -19.1375    0.0000 C   0  0  0  0  0  2  0  0  0  0  0  0
   10.7010  -20.4365    0.0000 C   0  0  0  0  0  0  0  0  0  0  0  0
   11.4510  -21.7356    0.0000 C   0  0  0  0  0  0  0  0  0  0  0  0
   12.2010  -23.0346    0.0000 C   0  0  0  0  0  2  0  0  0  0  0  0
   12.9510  -24.3336    0.0000 C   0  0  0  0  0  0  0  0  0  0  0  0
   13.7010  -25.6327    0.0000 C   0  0  0  0  0  0  0  0  0  0  0  0
   25.4331   13.4152   -0.0951 H   0  0  0  0  0  0  0  0  0  0  0  0
   24.5133   14.8059   -0.9527 H   0  0  0  0  0  0  0  0  0  0  0  0
   25.6083   14.7850    0.0000 H   0  0  0  0  0  0  0  0  0  0  0  0
   23.7008   12.9632    0.9345 H   0  0  0  0  0  0  0  0  0  0  0  0
   23.6732   12.8883   -0.9060 H   0  0  0  0  0  0  0  0  0  0  0  0
   21.6989   13.3101    0.8891 H   0  0  0  0  0  0  0  0  0  0  0  0
   21.6961   13.3112   -0.8889 H   0  0  0  0  0  0  0  0  0  0  0  0
   19.8547   10.6945    0.8960 H   0  0  0  0  0  0  0  0  0  0  0  0
   19.8547   10.6944   -0.8959 H   0  0  0  0  0  0  0  0  0  0  0  0
   17.8174   11.0557    0.8959 H   0  0  0  0  0  0  0  0  0  0  0  0
   17.8175   11.0556   -0.8960 H   0  0  0  0  0  0  0  0  0  0  0  0
   15.6818    8.6435   -1.0470 H   0  0  0  0  0  0  0  0  0  0  0  0
   15.9558    8.1678    0.6361 H   0  0  0  0  0  0  0  0  0  0  0  0
   13.4047    9.3497   -0.4814 H   0  0  0  0  0  0  0  0  0  0  0  0
   13.6831    8.8598    1.2140 H   0  0  0  0  0  0  0  0  0  0  0  0
   13.8784    6.3653    0.4506 H   0  0  0  0  0  0  0  0  0  0  0  0
   13.5856    6.8680   -1.2399 H   0  0  0  0  0  0  0  0  0  0  0  0
   11.3557    7.6493   -0.5762 H   0  0  0  0  0  0  0  0  0  0  0  0
   11.6382    7.1094    1.0582 H   0  0  0  0  0  0  0  0  0  0  0  0
   10.4459    5.9119   -1.1200 H   0  0  0  0  0  0  0  0  0  0  0  0
   11.0277    5.1970    0.4979 H   0  0  0  0  0  0  0  0  0  0  0  0
    9.1284    5.2342    1.1340 H   0  0  0  0  0  0  0  0  0  0  0  0
    9.5476    4.2638   -0.3528 H   0  0  0  0  0  0  0  0  0  0  0  0
    7.3403    5.4721    0.3945 H   0  0  0  0  0  0  0  0  0  0  0  0
    7.7444    4.5465   -1.1285 H   0  0  0  0  0  0  0  0  0  0  0  0
    5.8354    4.5887   -0.3956 H   0  0  0  0  0  0  0  0  0  0  0  0
    6.5109    3.7222    1.1222 H   0  0  0  0  0  0  0  0  0  0  0  0
    5.0889    2.7982   -1.0965 H   0  0  0  0  0  0  0  0  0  0  0  0
    5.5957    2.0250    0.3745 H   0  0  0  0  0  0  0  0  0  0  0  0
    3.0069    3.5309    0.0516 H   0  0  0  0  0  0  0  0  0  0  0  0
    3.5974    2.7309    1.5480 H   0  0  0  0  0  0  0  0  0  0  0  0
    3.6919    0.4517    0.2894 H   0  0  0  0  0  0  0  0  0  0  0  0
    3.0658    1.2679   -1.1734 H   0  0  0  0  0  0  0  0  0  0  0  0
    1.3950    0.7125    1.4243 H   0  0  0  0  0  0  0  0  0  0  0  0
    0.8561    1.6301   -0.0025 H   0  0  0  0  0  0  0  0  0  0  0  0
   -1.8841   -2.5676    0.8976 H   0  0  0  0  0  0  0  0  0  0  0  0
   -1.7910   -0.3600    0.9295 H   0  0  0  0  0  0  0  0  0  0  0  0
   -1.6701   -0.3949   -0.8888 H   0  0  0  0  0  0  0  0  0  0  0  0
   -5.9535    0.9244    1.0358 H   0  0  0  0  0  0  0  0  0  0  0  0
   -6.1400    0.8232   -0.7465 H   0  0  0  0  0  0  0  0  0  0  0  0
   -5.2329    3.0998   -0.9547 H   0  0  0  0  0  0  0  0  0  0  0  0
   -5.0432    3.2033    0.7833 H   0  0  0  0  0  0  0  0  0  0  0  0
   -6.9151    4.0279    1.0396 H   0  0  0  0  0  0  0  0  0  0  0  0
   -7.1857    3.7078   -0.7771 H   0  0  0  0  0  0  0  0  0  0  0  0
   -6.9929    5.6998   -1.0786 H   0  0  0  0  0  0  0  0  0  0  0  0
   -8.3330    5.0560   -0.0182 H   0  0  0  0  0  0  0  0  0  0  0  0
   -7.0180    7.3369    0.0203 H   0  0  0  0  0  0  0  0  0  0  0  0
   -8.3579    6.6750    1.0791 H   0  0  0  0  0  0  0  0  0  0  0  0
   -8.2048    8.6420    0.8347 H   0  0  0  0  0  0  0  0  0  0  0  0
   -8.4574    8.2786   -1.0685 H   0  0  0  0  0  0  0  0  0  0  0  0
   -8.7671   10.1605   -0.3851 H   0  0  0  0  0  0  0  0  0  0  0  0
  -10.3003    9.1699   -0.7805 H   0  0  0  0  0  0  0  0  0  0  0  0
  -10.0840   10.3679    0.0000 H   0  0  0  0  0  0  0  0  0  0  0  0
    0.1361   -3.2555   -0.8349 H   0  0  0  0  0  0  0  0  0  0  0  0
   -0.0451   -3.4880    1.0092 H   0  0  0  0  0  0  0  0  0  0  0  0
    1.1577   -7.5812   -0.9824 H   0  0  0  0  0  0  0  0  0  0  0  0
    1.0801   -7.6051    0.8107 H   0  0  0  0  0  0  0  0  0  0  0  0
    3.5761   -6.8860    0.8874 H   0  0  0  0  0  0  0  0  0  0  0  0
    3.6146   -6.8902   -0.8720 H   0  0  0  0  0  0  0  0  0  0  0  0
    3.4060   -9.0500    0.9306 H   0  0  0  0  0  0  0  0  0  0  0  0
    3.3143   -9.0778   -0.8618 H   0  0  0  0  0  0  0  0  0  0  0  0
    5.4051   -9.5931    0.7589 H   0  0  0  0  0  0  0  0  0  0  0  0
    5.2178   -9.7601   -0.9639 H   0  0  0  0  0  0  0  0  0  0  0  0
    4.6215  -11.6911   -0.6991 H   0  0  0  0  0  0  0  0  0  0  0  0
    5.1258  -11.5357    1.0643 H   0  0  0  0  0  0  0  0  0  0  0  0
    5.3030  -13.3176    0.1729 H   0  0  0  0  0  0  0  0  0  0  0  0
    6.4115  -12.5290   -1.0993 H   0  0  0  0  0  0  0  0  0  0  0  0
    7.0289  -14.0471    1.1105 H   0  0  0  0  0  0  0  0  0  0  0  0
    7.9632  -13.5427   -0.2651 H   0  0  0  0  0  0  0  0  0  0  0  0
    6.5063  -16.1629    0.0187 H   0  0  0  0  0  0  0  0  0  0  0  0
    7.4110  -15.6380   -1.4312 H   0  0  0  0  0  0  0  0  0  0  0  0
    9.6199  -15.6147   -0.0596 H   0  0  0  0  0  0  0  0  0  0  0  0
    8.7277  -16.1251    1.4018 H   0  0  0  0  0  0  0  0  0  0  0  0
    8.2436  -18.2781    0.3497 H   0  0  0  0  0  0  0  0  0  0  0  0
    9.1177  -17.7739   -1.1050 H   0  0  0  0  0  0  0  0  0  0  0  0
   11.2565  -20.0675   -0.8961 H   0  0  0  0  0  0  0  0  0  0  0  0
   11.2568  -20.0673    0.8958 H   0  0  0  0  0  0  0  0  0  0  0  0
   10.8953  -22.1048   -0.8959 H   0  0  0  0  0  0  0  0  0  0  0  0
   10.8955  -22.1046    0.8961 H   0  0  0  0  0  0  0  0  0  0  0  0
   13.4438  -24.0027   -0.9430 H   0  0  0  0  0  0  0  0  0  0  0  0
   13.4537  -23.9287    0.9168 H   0  0  0  0  0  0  0  0  0  0  0  0
   13.2778  -26.0262    0.9537 H   0  0  0  0  0  0  0  0  0  0  0  0
   14.7567  -25.2614    0.1030 H   0  0  0  0  0  0  0  0  0  0  0  0
   14.2360  -26.5594    0.0000 H   0  0  0  0  0  0  0  0  0  0  0  0
  1  2  1  0  0  0  0
  1 55  1  0  0  0  0
  1 56  1  0  0  0  0
  1 57  1  0  0  0  0
  2  3  1  0  0  0  0
  2 58  1  0  0  0  0
  2 59  1  0  0  0  0
  3  4  1  0  0  0  0
  3 60  1  0  0  0  0
  3 61  1  0  0  0  0
  4  5  1  0  0  0  0
  5  6  1  0  0  0  0
  5 62  1  0  0  0  0
  5 63  1  0  0  0  0
  6  7  1  0  0  0  0
  6 64  1  0  0  0  0
  6 65  1  0  0  0  0
  7  8  1  0  0  0  0
  8  9  1  0  0  0  0
  8 66  1  0  0  0  0
  8 67  1  0  0  0  0
  9 10  1  0  0  0  0
  9 68  1  0  0  0  0
  9 69  1  0  0  0  0
 10 11  1  0  0  0  0
 10 70  1  0  0  0  0
 10 71  1  0  0  0  0
 11 12  1  0  0  0  0
 11 72  1  0  0  0  0
 11 73  1  0  0  0  0
 12 13  1  0  0  0  0
 12 74  1  0  0  0  0
 12 75  1  0  0  0  0
 13 14  1  0  0  0  0
 13 76  1  0  0  0  0
 13 77  1  0  0  0  0
 14 15  1  0  0  0  0
 14 78  1  0  0  0  0
 14 79  1  0  0  0  0
 15 16  1  0  0  0  0
 15 80  1  0  0  0  0
 15 81  1  0  0  0  0
 16 17  1  0  0  0  0
 16 82  1  0  0  0  0
 16 83  1  0  0  0  0
 17 18  1  0  0  0  0
 17 84  1  0  0  0  0
 17 85  1  0  0  0  0
 18 19  1  0  0  0  0
 18 86  1  0  0  0  0
 18 87  1  0  0  0  0
 19 20  1  0  0  0  0
 19 88  1  0  0  0  0
 19 89  1  0  0  0  0
 20 21  2  0  0  0  0
 20 22  1  0  0  0  0
 22 23  1  0  0  0  0
 23 24  1  0  0  0  0
 23 35  1  0  0  0  0
 23 90  1  6  0  0  0
 24 25  1  0  0  0  0
 24 91  1  0  0  0  0
 24 92  1  0  0  0  0
 25 26  1  0  0  0  0
 26 27  2  0  0  0  0
 26 28  1  0  0  0  0
 28 29  1  0  0  0  0
 28 93  1  0  0  0  0
 28 94  1  0  0  0  0
 29 30  1  0  0  0  0
 29 95  1  0  0  0  0
 29 96  1  0  0  0  0
 30 31  1  0  0  0  0
 30 97  1  0  0  0  0
 30 98  1  0  0  0  0
 31 32  1  0  0  0  0
 31 99  1  0  0  0  0
 31100  1  0  0  0  0
 32 33  1  0  0  0  0
 32101  1  0  0  0  0
 32102  1  0  0  0  0
 33 34  1  0  0  0  0
 33103  1  0  0  0  0
 33104  1  0  0  0  0
 34105  1  0  0  0  0
 34106  1  0  0  0  0
 34107  1  0  0  0  0
 35 36  1  0  0  0  0
 35108  1  0  0  0  0
 35109  1  0  0  0  0
 36 37  1  0  0  0  0
 37 38  2  0  0  0  0
 37 39  1  0  0  0  0
 39 40  1  0  0  0  0
 39110  1  0  0  0  0
 39111  1  0  0  0  0
 40 41  1  0  0  0  0
 40112  1  0  0  0  0
 40113  1  0  0  0  0
 41 42  1  0  0  0  0
 41114  1  0  0  0  0
 41115  1  0  0  0  0
 42 43  1  0  0  0  0
 42116  1  0  0  0  0
 42117  1  0  0  0  0
 43 44  1  0  0  0  0
 43118  1  0  0  0  0
 43119  1  0  0  0  0
 44 45  1  0  0  0  0
 44120  1  0  0  0  0
 44121  1  0  0  0  0
 45 46  1  0  0  0  0
 45122  1  0  0  0  0
 45123  1  0  0  0  0
 46 47  1  0  0  0  0
 46124  1  0  0  0  0
 46125  1  0  0  0  0
 47 48  1  0  0  0  0
 47126  1  0  0  0  0
 47127  1  0  0  0  0
 48 49  1  0  0  0  0
 48128  1  0  0  0  0
 48129  1  0  0  0  0
 49 50  1  0  0  0  0
 50 51  1  0  0  0  0
 50130  1  0  0  0  0
 50131  1  0  0  0  0
 51 52  1  0  0  0  0
 51132  1  0  0  0  0
 51133  1  0  0  0  0
 52 53  1  0  0  0  0
 53 54  1  0  0  0  0
 53134  1  0  0  0  0
 53135  1  0  0  0  0
 54136  1  0  0  0  0
 54137  1  0  0  0  0
 54138  1  0  0  0  0
M  END
>  <IDENTIFIER>
CNP0574613.1

>  <Energy>
13152.3

$$$$
