
 OpenBabel09132509573D

 76 80  0  0  0  0  0  0  0  0999 V2000
   -3.8431    5.2620    0.9437 C   0  0  0  0  0  0  0  0  0  0  0  0
   -4.2524    3.8118    1.2729 C   0  0  0  0  0  0  0  0  0  0  0  0
   -5.7235    3.5885    0.8519 C   0  0  0  0  0  0  0  0  0  0  0  0
   -4.1067    3.5765    2.6526 O   0  0  0  0  0  0  0  0  0  0  0  0
   -3.3356    2.8377    0.4951 C   0  0  2  0  0  0  0  0  0  0  0  0
   -3.6581    1.3380    0.6684 C   0  0  0  0  0  0  0  0  0  0  0  0
   -2.3129    0.7549    0.4662 C   0  0  0  0  0  0  0  0  0  0  0  0
   -1.3932    1.7687    0.5828 C   0  0  0  0  0  0  0  0  0  0  0  0
   -1.9868    2.9594    0.7811 O   0  0  0  0  0  0  0  0  0  0  0  0
   -0.0172    1.5288    0.5012 C   0  0  0  0  0  0  0  0  0  0  0  0
    0.3924    0.1970    0.2759 C   0  0  0  0  0  0  0  0  0  0  0  0
    1.6833   -0.0511    0.1956 O   0  0  0  0  0  0  0  0  0  0  0  0
    2.2269   -1.2417   -0.0077 C   0  0  0  0  0  0  0  0  0  0  0  0
    1.3695   -2.3717   -0.1505 C   0  0  0  0  0  0  0  0  0  0  0  0
    1.8580   -3.7736   -0.5021 C   0  0  0  0  0  0  0  0  0  0  0  0
    2.0334   -3.9229   -2.0219 C   0  0  0  0  0  0  0  0  0  0  0  0
    2.9993   -3.0412   -2.5276 O   0  0  0  0  0  0  0  0  0  0  0  0
   -0.0234   -2.1586   -0.0328 C   0  0  0  0  0  0  0  0  0  0  0  0
   -0.7826   -3.1024   -0.1405 O   0  0  0  0  0  0  0  0  0  0  0  0
   -0.5421   -0.8651    0.1772 C   0  0  0  0  0  0  0  0  0  0  0  0
   -1.9364   -0.5824    0.2901 C   0  0  0  0  0  0  0  0  0  0  0  0
   -2.8913   -1.5540    0.2691 O   0  0  0  0  0  0  0  0  0  0  0  0
   -3.6247   -1.9249   -0.8510 C   0  0  0  0  0  0  0  0  0  0  0  0
   -3.6989   -3.4635   -0.9941 C   0  0  0  0  0  0  0  0  0  0  0  0
   -5.0804   -3.8384   -0.4858 C   0  0  0  0  0  0  0  0  0  0  0  0
   -5.9139   -2.7217   -1.0874 C   0  0  0  0  0  0  0  0  0  0  0  0
   -5.1019   -1.5051   -0.6790 C   0  0  0  0  0  0  0  0  0  0  0  0
    3.7489   -1.1908   -0.0747 C   0  0  2  0  0  0  0  0  0  0  0  0
    4.3931   -2.4297   -0.2169 O   0  0  0  0  0  0  0  0  0  0  0  0
    4.3453   -0.3599    1.1213 C   0  0  0  0  0  0  0  0  0  0  0  0
    5.2378    0.8427    0.7167 C   0  0  1  0  0  0  0  0  0  0  0  0
    6.2266    0.3959   -0.2549 N   0  0  0  0  0  0  0  0  0  0  0  0
    7.5199    0.3799   -0.1376 C   0  0  0  0  0  0  0  0  0  0  0  0
    8.2082    0.8836    1.0066 N   0  0  0  0  0  0  0  0  0  0  0  0
    8.2851   -0.1803   -1.1913 N   0  0  0  0  0  0  0  0  0  0  0  0
    4.4626    2.1005    0.2206 C   0  0  0  0  0  0  0  0  0  0  0  0
    3.3346    1.8232   -1.1988 S   0  0  0  0  0  0  0  0  0  0  0  0
    1.8506    3.3214   -0.7619 S   0  0  0  0  0  0  0  0  0  0  0  0
    0.9956    2.6404    0.7250 C   0  0  0  0  0  0  0  0  0  0  0  0
   -4.4972    5.9833    1.4789 H   0  0  0  0  0  0  0  0  0  0  0  0
   -3.9343    5.4554   -0.1476 H   0  0  0  0  0  0  0  0  0  0  0  0
   -2.7927    5.4506    1.2505 H   0  0  0  0  0  0  0  0  0  0  0  0
   -6.3952    4.2996    1.3780 H   0  0  0  0  0  0  0  0  0  0  0  0
   -6.0561    2.5598    1.1056 H   0  0  0  0  0  0  0  0  0  0  0  0
   -5.8452    3.7382   -0.2430 H   0  0  0  0  0  0  0  0  0  0  0  0
   -4.7140    4.1986    3.1339 H   0  0  0  0  0  0  0  0  0  0  0  0
   -3.4276    3.0592   -0.5955 H   0  0  0  0  0  0  0  0  0  0  0  0
   -4.4210    1.0489   -0.0724 H   0  0  0  0  0  0  0  0  0  0  0  0
   -3.9709    1.0678    1.7004 H   0  0  0  0  0  0  0  0  0  0  0  0
    1.0986   -4.5310   -0.2137 H   0  0  0  0  0  0  0  0  0  0  0  0
    2.7437   -4.0787    0.0761 H   0  0  0  0  0  0  0  0  0  0  0  0
    1.0535   -3.7629   -2.5337 H   0  0  0  0  0  0  0  0  0  0  0  0
    2.3430   -4.9614   -2.2614 H   0  0  0  0  0  0  0  0  0  0  0  0
    2.5183   -2.2210   -2.8172 H   0  0  0  0  0  0  0  0  0  0  0  0
   -3.1756   -1.5036   -1.7799 H   0  0  0  0  0  0  0  0  0  0  0  0
   -2.8826   -4.0547   -0.5424 H   0  0  0  0  0  0  0  0  0  0  0  0
   -3.7050   -3.6935   -2.0847 H   0  0  0  0  0  0  0  0  0  0  0  0
   -5.1044   -3.7707    0.6265 H   0  0  0  0  0  0  0  0  0  0  0  0
   -5.4019   -4.8562   -0.7936 H   0  0  0  0  0  0  0  0  0  0  0  0
   -6.9643   -2.6921   -0.7276 H   0  0  0  0  0  0  0  0  0  0  0  0
   -5.9147   -2.8164   -2.1975 H   0  0  0  0  0  0  0  0  0  0  0  0
   -5.2985   -1.3685    0.4104 H   0  0  0  0  0  0  0  0  0  0  0  0
   -5.3902   -0.5744   -1.2077 H   0  0  0  0  0  0  0  0  0  0  0  0
    3.9687   -0.6531   -1.0107 H   0  0  0  0  0  0  0  0  0  0  0  0
    4.4379   -2.8561    0.6777 H   0  0  0  0  0  0  0  0  0  0  0  0
    4.9577   -1.0393    1.7526 H   0  0  0  0  0  0  0  0  0  0  0  0
    3.5546    0.0179    1.8057 H   0  0  0  0  0  0  0  0  0  0  0  0
    5.7130    1.1801    1.6533 H   0  0  0  0  0  0  0  0  0  0  0  0
    7.7486    1.3353    1.8045 H   0  0  0  0  0  0  0  0  0  0  0  0
    9.2363    0.8278    1.0408 H   0  0  0  0  0  0  0  0  0  0  0  0
    7.8222   -0.5790   -2.0210 H   0  0  0  0  0  0  0  0  0  0  0  0
    9.3123   -0.2287   -1.1231 H   0  0  0  0  0  0  0  0  0  0  0  0
    5.1895    2.8986   -0.0421 H   0  0  0  0  0  0  0  0  0  0  0  0
    3.8631    2.4616    1.0765 H   0  0  0  0  0  0  0  0  0  0  0  0
    0.4651    3.5230    1.1396 H   0  0  0  0  0  0  0  0  0  0  0  0
    1.7035    2.3611    1.5290 H   0  0  0  0  0  0  0  0  0  0  0  0
  1  2  1  0  0  0  0
  1 40  1  0  0  0  0
  1 41  1  0  0  0  0
  1 42  1  0  0  0  0
  2  3  1  0  0  0  0
  2  4  1  0  0  0  0
  3 43  1  0  0  0  0
  3 44  1  0  0  0  0
  3 45  1  0  0  0  0
  4 46  1  0  0  0  0
  5  2  1  0  0  0  0
  5  6  1  0  0  0  0
  5 47  1  6  0  0  0
  6  7  1  0  0  0  0
  6 48  1  0  0  0  0
  6 49  1  0  0  0  0
  7  8  2  0  0  0  0
  8  9  1  0  0  0  0
  8 10  1  0  0  0  0
  9  5  1  0  0  0  0
 10 11  2  0  0  0  0
 11 12  1  0  0  0  0
 12 13  1  0  0  0  0
 13 14  2  0  0  0  0
 13 28  1  0  0  0  0
 14 15  1  0  0  0  0
 14 18  1  0  0  0  0
 15 16  1  0  0  0  0
 15 50  1  0  0  0  0
 15 51  1  0  0  0  0
 16 17  1  0  0  0  0
 16 52  1  0  0  0  0
 16 53  1  0  0  0  0
 17 54  1  0  0  0  0
 18 19  2  0  0  0  0
 18 20  1  0  0  0  0
 20 21  2  0  0  0  0
 20 11  1  0  0  0  0
 21 22  1  0  0  0  0
 21  7  1  0  0  0  0
 22 23  1  0  0  0  0
 23 24  1  0  0  0  0
 23 55  1  0  0  0  0
 24 25  1  0  0  0  0
 24 56  1  0  0  0  0
 24 57  1  0  0  0  0
 25 26  1  0  0  0  0
 25 58  1  0  0  0  0
 25 59  1  0  0  0  0
 26 27  1  0  0  0  0
 26 60  1  0  0  0  0
 26 61  1  0  0  0  0
 27 23  1  0  0  0  0
 27 62  1  0  0  0  0
 27 63  1  0  0  0  0
 28 29  1  0  0  0  0
 28 30  1  0  0  0  0
 28 64  1  6  0  0  0
 29 65  1  0  0  0  0
 30 66  1  0  0  0  0
 30 67  1  0  0  0  0
 31 30  1  0  0  0  0
 31 32  1  0  0  0  0
 31 36  1  0  0  0  0
 31 68  1  1  0  0  0
 32 33  2  0  0  0  0
 33 34  1  0  0  0  0
 33 35  1  0  0  0  0
 34 69  1  0  0  0  0
 34 70  1  0  0  0  0
 35 71  1  0  0  0  0
 35 72  1  0  0  0  0
 36 37  1  0  0  0  0
 36 73  1  0  0  0  0
 36 74  1  0  0  0  0
 37 38  1  0  0  0  0
 38 39  1  0  0  0  0
 39 10  1  0  0  0  0
 39 75  1  0  0  0  0
 39 76  1  0  0  0  0
M  END
>  <IDENTIFIER>
CNP0008801.1

>  <Energy>
1045.72

$$$$
