
 OpenBabel09072523592D

170183  0  0  0  0  0  0  0  0999 V2000
    4.8683    2.8321    0.0000 C   0  0  0  0  0  0  0  0  0  0  0  0
    3.4979    2.2220    0.0000 O   0  0  0  0  0  0  0  0  0  0  0  0
    2.1566    2.6515    0.1457 C   0  0  0  0  0  0  0  0  0  0  0  0
    1.8330    3.9262   -0.1167 C   0  0  0  0  0  0  0  0  0  0  0  0
    2.7492    5.0325   -0.5702 C   0  0  0  0  0  0  0  0  0  0  0  0
    3.3299    4.6860   -1.7964 O   0  0  0  0  0  0  0  0  0  0  0  0
    0.4020    4.0735    0.0850 C   0  0  0  0  0  0  0  0  0  0  0  0
   -0.2242    5.1076   -0.0773 O   0  0  0  0  0  0  0  0  0  0  0  0
   -0.1742    2.9245    0.4612 O   0  0  0  0  0  0  0  0  0  0  0  0
    0.7459    1.9387    0.5757 C   0  0  0  0  0  0  0  0  0  0  0  0
    0.1775    0.6953    1.0307 C   0  0  0  0  0  0  0  0  0  0  0  0
    0.8392   -0.4545    1.2877 O   0  0  0  0  0  0  0  0  0  0  0  0
   -0.0028   -1.3697    1.8893 C   0  0  0  0  0  0  0  0  0  0  0  0
    0.5053   -2.2804    2.7131 C   0  0  0  0  0  0  0  0  0  0  0  0
   -0.3030   -3.2323    3.5357 C   0  0  0  0  0  0  0  0  0  0  0  0
   -1.2574   -4.0973    2.7071 C   0  0  0  0  0  0  0  0  0  0  0  0
   -2.6030   -3.5362    2.3427 N   0  0  3  0  0  0  0  0  0  0  0  0
   -3.7464   -4.3762    2.9848 C   0  0  2  0  0  0  0  0  0  0  0  0
   -3.6937   -5.9587    2.7078 C   0  0  1  0  0  0  0  0  0  0  0  0
   -4.6530   -6.5629    3.5359 O   0  0  0  0  0  0  0  0  0  0  0  0
   -3.9583   -6.4295    1.2243 C   0  0  1  0  0  0  0  0  0  0  0  0
   -2.7385   -6.2316    0.2709 C   0  0  0  0  0  0  0  0  0  0  0  0
   -1.6764   -7.4090    0.2848 C   0  0  1  0  0  0  0  0  0  0  0  0
   -0.2121   -6.9366    0.4767 C   0  0  0  0  0  0  0  0  0  0  0  0
    0.2892   -5.9667   -0.6010 C   0  0  0  0  0  0  0  0  0  0  0  0
    1.7658   -5.8779   -0.2484 C   0  0  0  0  0  0  0  0  0  0  0  0
    2.1636   -7.3087    0.1405 C   0  0  0  0  0  0  0  0  0  0  0  0
    0.8332   -8.0480    0.3397 C   0  0  0  0  0  0  0  0  0  0  0  0
   -2.0440   -8.5130    1.3067 C   0  0  0  0  0  0  0  0  0  0  0  0
   -3.4873   -8.8691    1.1263 C   0  0  0  0  0  0  0  0  0  0  0  0
   -4.4128   -7.8902    1.0912 C   0  0  0  0  0  0  0  0  0  0  0  0
   -5.8569   -8.2373    0.7620 C   0  0  0  0  0  0  0  0  0  0  0  0
   -6.9767   -7.9334    2.1766 S   0  0  0  0  0  0  0  0  0  0  0  0
   -8.7467   -7.8427    0.9801 S   0  0  0  0  0  0  0  0  0  0  0  0
   -9.5625   -6.4053    1.7987 C   0  0  0  0  0  0  0  0  0  0  0  0
   -9.4010   -5.1094    0.9633 C   0  0  1  0  0  0  0  0  0  0  0  0
   -7.8961   -4.5935    1.1363 C   0  0  0  0  0  0  0  0  0  0  0  0
   -7.7199   -3.6044    2.4025 C   0  0  1  0  0  0  0  0  0  0  0  0
   -6.6110   -4.4083    3.2295 C   0  0  0  0  0  0  0  0  0  0  0  0
   -5.2030   -3.8761    2.5951 C   0  0  1  0  0  0  0  0  0  0  0  0
   -5.2911   -2.4417    2.9159 C   0  0  2  0  0  0  0  0  0  0  0  0
   -4.1783   -1.6014    2.1180 C   0  0  0  0  0  0  0  0  0  0  0  0
   -2.6867   -2.0062    2.4629 C   0  0  1  0  0  0  0  0  0  0  0  0
   -1.4886   -1.1549    1.6069 C   0  0  1  0  0  0  0  0  0  0  0  0
   -1.3495    0.4353    1.4537 C   0  0  2  0  0  0  0  0  0  0  0  0
   -1.6443    1.1230    2.8018 C   0  0  0  0  0  0  0  0  0  0  0  0
   -1.5550    2.5140    2.6814 O   0  0  0  0  0  0  0  0  0  0  0  0
   -6.8133   -2.2050    2.6115 C   0  0  1  0  0  0  0  0  0  0  0  0
   -7.4128   -1.2095    3.6286 C   0  0  0  0  0  0  0  0  0  0  0  0
   -7.9180   -1.6025    4.8846 C   0  0  0  0  0  0  0  0  0  0  0  0
   -8.5713   -0.6746    5.7113 C   0  0  0  0  0  0  0  0  0  0  0  0
   -8.7506    0.6503    5.2915 C   0  0  0  0  0  0  0  0  0  0  0  0
   -8.2264    1.0656    4.0626 C   0  0  0  0  0  0  0  0  0  0  0  0
   -8.4723    2.4496    3.4903 C   0  0  0  0  0  0  0  0  0  0  0  0
   -9.9614    2.5621    3.1023 C   0  0  0  0  0  0  0  0  0  0  0  0
  -10.2820    3.6766    2.0783 C   0  0  2  0  0  0  0  0  0  0  0  0
  -11.7666    3.5668    1.6611 C   0  0  0  0  0  0  0  0  0  0  0  0
  -12.1120    4.5972    0.5823 C   0  0  0  0  0  0  0  0  0  0  0  0
  -11.8263    6.0193    1.0902 C   0  0  1  0  0  0  0  0  0  0  0  0
  -12.1706    7.0563    0.0019 C   0  0  0  0  0  0  0  0  0  0  0  0
  -11.8731    8.4746    0.5029 C   0  0  0  0  0  0  0  0  0  0  0  0
  -10.3968    8.5994    0.9016 C   0  0  0  0  0  0  0  0  0  0  0  0
  -10.0457    7.5770    1.9941 C   0  0  0  0  0  0  0  0  0  0  0  0
  -10.3360    6.1445    1.5044 C   0  0  2  0  0  0  0  0  0  0  0  0
   -9.9894    5.1008    2.5954 C   0  0  0  0  0  0  0  0  0  0  0  0
   -7.5313    0.1416    3.2801 C   0  0  0  0  0  0  0  0  0  0  0  0
   -9.3476   -3.4188    2.6302 C   0  0  0  0  0  0  0  0  0  0  0  0
  -10.3478   -3.8893    1.3556 C   0  0  2  0  0  0  0  0  0  0  0  0
  -11.7785   -4.1472    1.9352 C   0  0  0  0  0  0  0  0  0  0  0  0
  -12.8032   -3.5030    0.9802 C   0  0  0  0  0  0  0  0  0  0  0  0
  -12.0954   -2.2470    0.4568 C   0  0  0  0  0  0  0  0  0  0  0  0
  -10.8111   -2.9041    0.0000 C   0  0  2  0  0  0  0  0  0  0  0  0
   -9.4292   -2.3207    0.0000 C   0  0  0  0  0  0  0  0  0  0  0  0
   -8.0473   -1.7373    0.0000 C   0  0  0  0  0  0  0  0  0  0  0  0
   -7.0138   -2.2476   -0.8609 C   0  0  0  0  0  0  0  0  0  0  0  0
   -5.8664   -1.5184   -1.1810 C   0  0  0  0  0  0  0  0  0  0  0  0
   -5.7325   -0.2029   -0.7651 C   0  0  0  0  0  0  0  0  0  0  0  0
   -6.7722    0.4004   -0.0757 C   0  0  0  0  0  0  0  0  0  0  0  0
   -7.9191   -0.3313    0.2652 C   0  0  0  0  0  0  0  0  0  0  0  0
    5.4448    1.8907   -0.1075 H   0  0  0  0  0  0  0  0  0  0  0  0
    4.8789    3.1700    1.0570 H   0  0  0  0  0  0  0  0  0  0  0  0
    5.8458    3.2673   -0.0000 H   0  0  0  0  0  0  0  0  0  0  0  0
    2.1659    5.9710   -0.6955 H   0  0  0  0  0  0  0  0  0  0  0  0
    3.5320    5.1972    0.2017 H   0  0  0  0  0  0  0  0  0  0  0  0
    3.9614    5.4186   -2.0184 H   0  0  0  0  0  0  0  0  0  0  0  0
    1.5866   -2.3222    2.8190 H   0  0  0  0  0  0  0  0  0  0  0  0
   -0.8362   -2.7350    4.3705 H   0  0  0  0  0  0  0  0  0  0  0  0
    0.4524   -3.8980    4.0114 H   0  0  0  0  0  0  0  0  0  0  0  0
   -1.3659   -4.9706    3.3643 H   0  0  0  0  0  0  0  0  0  0  0  0
   -0.7292   -4.4226    1.7946 H   0  0  0  0  0  0  0  0  0  0  0  0
   -3.6436   -4.2505    4.0865 H   0  0  0  0  0  0  0  0  0  0  0  0
   -2.7381   -6.3974    3.0131 H   0  0  0  0  0  0  0  0  0  0  0  0
   -4.2951   -6.5604    4.4626 H   0  0  0  0  0  0  0  0  0  0  0  0
   -4.8039   -5.8403    0.8472 H   0  0  0  0  0  0  0  0  0  0  0  0
   -3.1562   -6.2396   -0.7614 H   0  0  0  0  0  0  0  0  0  0  0  0
   -2.3023   -5.2225    0.3647 H   0  0  0  0  0  0  0  0  0  0  0  0
   -1.7379   -7.8933   -0.7180 H   0  0  0  0  0  0  0  0  0  0  0  0
   -0.0989   -6.4832    1.4841 H   0  0  0  0  0  0  0  0  0  0  0  0
   -0.2045   -4.9730   -0.6086 H   0  0  0  0  0  0  0  0  0  0  0  0
    0.1762   -6.4306   -1.6082 H   0  0  0  0  0  0  0  0  0  0  0  0
    2.4258   -5.3974   -1.0011 H   0  0  0  0  0  0  0  0  0  0  0  0
    1.8118   -5.2601    0.6788 H   0  0  0  0  0  0  0  0  0  0  0  0
    2.7714   -7.2583    1.0706 H   0  0  0  0  0  0  0  0  0  0  0  0
    2.7434   -7.8341   -0.6496 H   0  0  0  0  0  0  0  0  0  0  0  0
    0.8611   -8.8138    1.1431 H   0  0  0  0  0  0  0  0  0  0  0  0
    0.6087   -8.5742   -0.6177 H   0  0  0  0  0  0  0  0  0  0  0  0
   -1.4185   -9.4207    1.1749 H   0  0  0  0  0  0  0  0  0  0  0  0
   -1.8736   -8.1638    2.3390 H   0  0  0  0  0  0  0  0  0  0  0  0
   -3.7604   -9.9066    0.9555 H   0  0  0  0  0  0  0  0  0  0  0  0
   -5.9544   -9.3155    0.5115 H   0  0  0  0  0  0  0  0  0  0  0  0
   -6.1569   -7.6399   -0.1252 H   0  0  0  0  0  0  0  0  0  0  0  0
   -9.2445   -6.2976    2.8554 H   0  0  0  0  0  0  0  0  0  0  0  0
  -10.6229   -6.7139    1.8231 H   0  0  0  0  0  0  0  0  0  0  0  0
   -9.6375   -5.4248   -0.0772 H   0  0  0  0  0  0  0  0  0  0  0  0
   -7.7593   -4.1061    0.2484 H   0  0  0  0  0  0  0  0  0  0  0  0
   -7.1331   -5.3836    0.9946 H   0  0  0  0  0  0  0  0  0  0  0  0
   -6.7704   -5.4936    3.1845 H   0  0  0  0  0  0  0  0  0  0  0  0
   -6.6214   -4.1755    4.3145 H   0  0  0  0  0  0  0  0  0  0  0  0
   -5.2798   -3.9592    1.4931 H   0  0  0  0  0  0  0  0  0  0  0  0
   -5.1250   -2.3310    4.0135 H   0  0  0  0  0  0  0  0  0  0  0  0
   -4.3202   -1.7716    1.0335 H   0  0  0  0  0  0  0  0  0  0  0  0
   -4.3285   -0.5214    2.3174 H   0  0  0  0  0  0  0  0  0  0  0  0
   -2.5779   -1.7305    3.5315 H   0  0  0  0  0  0  0  0  0  0  0  0
   -1.5962   -1.5000    0.5552 H   0  0  0  0  0  0  0  0  0  0  0  0
   -2.0776    0.7849    0.6891 H   0  0  0  0  0  0  0  0  0  0  0  0
   -0.9206    0.7633    3.5680 H   0  0  0  0  0  0  0  0  0  0  0  0
   -2.6739    0.8615    3.1237 H   0  0  0  0  0  0  0  0  0  0  0  0
   -1.7339    2.8819    3.5855 H   0  0  0  0  0  0  0  0  0  0  0  0
   -6.6431   -1.6890    1.7170 H   0  0  0  0  0  0  0  0  0  0  0  0
   -7.8534   -2.6245    5.2196 H   0  0  0  0  0  0  0  0  0  0  0  0
   -8.9764   -0.9944    6.6622 H   0  0  0  0  0  0  0  0  0  0  0  0
   -9.3006    1.3440    5.9145 H   0  0  0  0  0  0  0  0  0  0  0  0
   -7.8873    2.5572    2.5500 H   0  0  0  0  0  0  0  0  0  0  0  0
   -8.1454    3.2581    4.1773 H   0  0  0  0  0  0  0  0  0  0  0  0
  -10.2372    1.6112    2.5896 H   0  0  0  0  0  0  0  0  0  0  0  0
  -10.5882    2.6497    4.0163 H   0  0  0  0  0  0  0  0  0  0  0  0
   -9.6569    3.4947    1.1739 H   0  0  0  0  0  0  0  0  0  0  0  0
  -11.9751    2.5527    1.2543 H   0  0  0  0  0  0  0  0  0  0  0  0
  -12.4199    3.7264    2.5478 H   0  0  0  0  0  0  0  0  0  0  0  0
  -13.1865    4.4983    0.3133 H   0  0  0  0  0  0  0  0  0  0  0  0
  -11.5054    4.3913   -0.3280 H   0  0  0  0  0  0  0  0  0  0  0  0
  -12.4694    6.2146    1.9791 H   0  0  0  0  0  0  0  0  0  0  0  0
  -13.2468    6.9820   -0.2677 H   0  0  0  0  0  0  0  0  0  0  0  0
  -11.5685    6.8587   -0.9131 H   0  0  0  0  0  0  0  0  0  0  0  0
  -12.1084    9.2088   -0.2977 H   0  0  0  0  0  0  0  0  0  0  0  0
  -12.5164    8.7005    1.3818 H   0  0  0  0  0  0  0  0  0  0  0  0
   -9.7572    8.4241    0.0082 H   0  0  0  0  0  0  0  0  0  0  0  0
  -10.1986    9.6273    1.2738 H   0  0  0  0  0  0  0  0  0  0  0  0
  -10.6483    7.7931    2.9039 H   0  0  0  0  0  0  0  0  0  0  0  0
   -8.9698    7.6777    2.2542 H   0  0  0  0  0  0  0  0  0  0  0  0
   -9.6953    5.9454    0.6139 H   0  0  0  0  0  0  0  0  0  0  0  0
  -10.5918    5.2962    3.5101 H   0  0  0  0  0  0  0  0  0  0  0  0
   -8.9131    5.1910    2.8558 H   0  0  0  0  0  0  0  0  0  0  0  0
   -7.1149    0.4874    2.3710 H   0  0  0  0  0  0  0  0  0  0  0  0
   -9.6494   -2.4411    3.0522 H   0  0  0  0  0  0  0  0  0  0  0  0
   -9.5546   -4.1303    3.4584 H   0  0  0  0  0  0  0  0  0  0  0  0
  -11.8610   -3.5184    2.8494 H   0  0  0  0  0  0  0  0  0  0  0  0
  -12.0326   -5.1704    2.2645 H   0  0  0  0  0  0  0  0  0  0  0  0
  -13.7734   -3.2916    1.4783 H   0  0  0  0  0  0  0  0  0  0  0  0
  -12.9995   -4.1981    0.1312 H   0  0  0  0  0  0  0  0  0  0  0  0
  -12.6333   -1.7228   -0.3603 H   0  0  0  0  0  0  0  0  0  0  0  0
  -11.9235   -1.5490    1.3069 H   0  0  0  0  0  0  0  0  0  0  0  0
  -11.0094   -3.5634   -0.8799 H   0  0  0  0  0  0  0  0  0  0  0  0
   -9.7174   -1.6770    0.8598 H   0  0  0  0  0  0  0  0  0  0  0  0
   -9.6801   -1.7701   -0.9364 H   0  0  0  0  0  0  0  0  0  0  0  0
   -7.0834   -3.2002   -1.3677 H   0  0  0  0  0  0  0  0  0  0  0  0
   -5.0997   -1.9612   -1.8042 H   0  0  0  0  0  0  0  0  0  0  0  0
   -4.8536    0.3677   -1.0362 H   0  0  0  0  0  0  0  0  0  0  0  0
   -6.7061    1.4511    0.1772 H   0  0  0  0  0  0  0  0  0  0  0  0
   -8.7289    0.2189    0.7318 H   0  0  0  0  0  0  0  0  0  0  0  0
  1  2  1  0  0  0  0
  1 80  1  0  0  0  0
  1 81  1  0  0  0  0
  1 82  1  0  0  0  0
  2  3  1  0  0  0  0
  3  4  2  0  0  0  0
  4  5  1  0  0  0  0
  4  7  1  0  0  0  0
  5  6  1  0  0  0  0
  5 83  1  0  0  0  0
  5 84  1  0  0  0  0
  6 85  1  0  0  0  0
  7  8  2  0  0  0  0
  7  9  1  0  0  0  0
  9 10  1  0  0  0  0
 10 11  2  0  0  0  0
 10  3  1  0  0  0  0
 11 12  1  0  0  0  0
 12 13  1  0  0  0  0
 13 14  2  0  0  0  0
 14 15  1  0  0  0  0
 14 86  1  0  0  0  0
 15 16  1  0  0  0  0
 15 87  1  0  0  0  0
 15 88  1  0  0  0  0
 16 17  1  0  0  0  0
 16 89  1  0  0  0  0
 16 90  1  0  0  0  0
 18 17  1  0  0  0  0
 18 19  1  0  0  0  0
 18 91  1  1  0  0  0
 19 20  1  0  0  0  0
 19 21  1  0  0  0  0
 19 92  1  1  0  0  0
 20 93  1  0  0  0  0
 21 22  1  0  0  0  0
 21 94  1  6  0  0  0
 22 23  1  0  0  0  0
 22 95  1  0  0  0  0
 22 96  1  0  0  0  0
 23 24  1  0  0  0  0
 23 29  1  0  0  0  0
 23 97  1  6  0  0  0
 24 25  1  0  0  0  0
 24 98  1  0  0  0  0
 25 26  1  0  0  0  0
 25 99  1  0  0  0  0
 25100  1  0  0  0  0
 26 27  1  0  0  0  0
 26101  1  0  0  0  0
 26102  1  0  0  0  0
 27 28  1  0  0  0  0
 27103  1  0  0  0  0
 27104  1  0  0  0  0
 28 24  1  0  0  0  0
 28105  1  0  0  0  0
 28106  1  0  0  0  0
 29 30  1  0  0  0  0
 29107  1  0  0  0  0
 29108  1  0  0  0  0
 30 31  2  0  0  0  0
 30109  1  0  0  0  0
 31 32  1  0  0  0  0
 31 21  1  0  0  0  0
 32 33  1  0  0  0  0
 32110  1  0  0  0  0
 32111  1  0  0  0  0
 33 34  1  0  0  0  0
 34 35  1  0  0  0  0
 35112  1  0  0  0  0
 35113  1  0  0  0  0
 36 35  1  0  0  0  0
 36 37  1  0  0  0  0
 36114  1  1  0  0  0
 37115  1  0  0  0  0
 37116  1  0  0  0  0
 38 37  1  6  0  0  0
 38 39  1  0  0  0  0
 38 67  1  0  0  0  0
 39117  1  0  0  0  0
 39118  1  0  0  0  0
 40 39  1  0  0  0  0
 40 41  1  0  0  0  0
 40 18  1  0  0  0  0
 40119  1  6  0  0  0
 41 42  1  0  0  0  0
 41 48  1  0  0  0  0
 41120  1  6  0  0  0
 42121  1  0  0  0  0
 42122  1  0  0  0  0
 43 42  1  0  0  0  0
 43 44  1  0  0  0  0
 43 17  1  0  0  0  0
 43123  1  6  0  0  0
 44 45  1  0  0  0  0
 44 13  1  0  0  0  0
 44124  1  6  0  0  0
 45 46  1  0  0  0  0
 45 11  1  0  0  0  0
 45125  1  1  0  0  0
 46 47  1  0  0  0  0
 46126  1  0  0  0  0
 46127  1  0  0  0  0
 47128  1  0  0  0  0
 48 49  1  0  0  0  0
 48 38  1  0  0  0  0
 48129  1  1  0  0  0
 49 50  2  0  0  0  0
 50 51  1  0  0  0  0
 50130  1  0  0  0  0
 51 52  2  0  0  0  0
 51131  1  0  0  0  0
 52 53  1  0  0  0  0
 52132  1  0  0  0  0
 53 54  1  0  0  0  0
 53 66  2  0  0  0  0
 54 55  1  0  0  0  0
 54133  1  0  0  0  0
 54134  1  0  0  0  0
 55135  1  0  0  0  0
 55136  1  0  0  0  0
 56 55  1  0  0  0  0
 56 57  1  0  0  0  0
 56137  1  1  0  0  0
 57 58  1  0  0  0  0
 57138  1  0  0  0  0
 57139  1  0  0  0  0
 58140  1  0  0  0  0
 58141  1  0  0  0  0
 59 58  1  0  0  0  0
 59 60  1  0  0  0  0
 59142  1  6  0  0  0
 60 61  1  0  0  0  0
 60143  1  0  0  0  0
 60144  1  0  0  0  0
 61 62  1  0  0  0  0
 61145  1  0  0  0  0
 61146  1  0  0  0  0
 62 63  1  0  0  0  0
 62147  1  0  0  0  0
 62148  1  0  0  0  0
 63149  1  0  0  0  0
 63150  1  0  0  0  0
 64 63  1  0  0  0  0
 64 65  1  0  0  0  0
 64 59  1  0  0  0  0
 64151  1  1  0  0  0
 65 56  1  0  0  0  0
 65152  1  0  0  0  0
 65153  1  0  0  0  0
 66 49  1  0  0  0  0
 66154  1  0  0  0  0
 67155  1  0  0  0  0
 67156  1  0  0  0  0
 68 67  1  1  0  0  0
 68 69  1  0  0  0  0
 68 36  1  0  0  0  0
 69 70  1  0  0  0  0
 69157  1  0  0  0  0
 69158  1  0  0  0  0
 70 71  1  0  0  0  0
 70159  1  0  0  0  0
 70160  1  0  0  0  0
 71 72  1  0  0  0  0
 71161  1  0  0  0  0
 71162  1  0  0  0  0
 72 73  1  0  0  0  0
 72 68  1  0  0  0  0
 72163  1  1  0  0  0
 73 74  1  0  0  0  0
 73164  1  0  0  0  0
 73165  1  0  0  0  0
 74 75  2  0  0  0  0
 75 76  1  0  0  0  0
 75166  1  0  0  0  0
 76 77  2  0  0  0  0
 76167  1  0  0  0  0
 77 78  1  0  0  0  0
 77168  1  0  0  0  0
 78 79  2  0  0  0  0
 78169  1  0  0  0  0
 79 74  1  0  0  0  0
 79170  1  0  0  0  0
M  END
>  <IDENTIFIER>
CNP0501441.1

>  <Energy>
4253.34

$$$$
