
 OpenBabel09062514442D

 55 61  0  0  0  0  0  0  0  0999 V2000
    1.5462   -6.6497    1.9619 C   0  0  0  0  0  0  0  0  0  0  0  0
    1.6072   -5.3164    1.8788 C   0  0  0  0  0  0  0  0  0  0  0  0
    2.4885   -4.5674    0.9055 C   0  0  1  0  0  0  0  0  0  0  0  0
    2.5170   -3.1890    1.5742 C   0  0  0  0  0  0  0  0  0  0  0  0
    1.0167   -3.0614    1.9484 C   0  0  2  0  0  0  0  0  0  0  0  0
    0.8121   -4.3777    2.7409 C   0  0  2  0  0  0  0  0  0  0  0  0
    1.3795   -4.3004    4.0229 O   0  0  0  0  0  0  0  0  0  0  0  0
    0.0568   -2.9886    0.7516 C   0  0  1  0  0  0  0  0  0  0  0  0
    0.8825   -3.2064   -0.5731 C   0  0  0  0  0  0  0  0  0  0  0  0
    1.7985   -4.4653   -0.4915 C   0  0  1  0  0  0  0  0  0  0  0  0
    2.7826   -4.3620   -1.4882 O   0  0  0  0  0  0  0  0  0  0  0  0
   -0.7921   -1.6036    1.3328 C   0  0  2  0  0  0  0  0  0  0  0  0
   -1.7267   -0.3005    0.7104 C   0  0  2  0  0  0  0  0  0  0  0  0
   -3.3075   -0.3110    0.7178 C   0  0  0  0  0  0  0  0  0  0  0  0
   -3.9401   -1.4169   -0.1286 C   0  0  0  0  0  0  0  0  0  0  0  0
   -3.0000   -2.5981    0.0000 C   0  0  2  0  0  0  0  0  0  0  0  0
   -3.7500   -3.8971    0.0000 C   0  0  0  0  0  0  0  0  0  0  0  0
   -2.0665   -2.4697    1.6726 C   0  0  1  0  0  0  0  0  0  0  0  0
   -1.1035   -1.9656    2.9829 C   0  0  0  0  0  0  0  0  0  0  0  0
    0.5828   -1.7506    2.5857 C   0  0  1  0  0  0  0  0  0  0  0  0
    0.6601   -0.6043    1.4418 C   0  0  1  0  0  0  0  0  0  0  0  0
    1.5000    0.0000    0.0000 N   0  0  0  0  0  0  0  0  0  0  0  0
    3.0000    0.0000    0.0000 C   0  0  0  0  0  2  0  0  0  0  0  0
    4.5000    0.0000    0.0000 C   0  0  0  0  0  0  0  0  0  0  0  0
   -0.5341   -0.9478   -0.7776 C   0  0  2  0  0  0  0  0  0  0  0  0
   -1.2839    0.1366   -0.5341 O   0  0  0  0  0  0  0  0  0  0  0  0
    2.1495   -7.2694    1.3057 H   0  0  0  0  0  0  0  0  0  0  0  0
    0.8916   -7.1282    2.6829 H   0  0  0  0  0  0  0  0  0  0  0  0
    3.4990   -5.0285    0.8447 H   0  0  0  0  0  0  0  0  0  0  0  0
    3.1320   -3.2134    2.5032 H   0  0  0  0  0  0  0  0  0  0  0  0
    2.9551   -2.4049    0.9354 H   0  0  0  0  0  0  0  0  0  0  0  0
   -0.2633   -4.6462    2.8130 H   0  0  0  0  0  0  0  0  0  0  0  0
    1.1503   -5.1489    4.4845 H   0  0  0  0  0  0  0  0  0  0  0  0
   -0.5405   -3.9259    0.6489 H   0  0  0  0  0  0  0  0  0  0  0  0
    0.2391   -3.2836   -1.4770 H   0  0  0  0  0  0  0  0  0  0  0  0
    1.5603   -2.3494   -0.7299 H   0  0  0  0  0  0  0  0  0  0  0  0
    1.2259   -5.4093   -0.6524 H   0  0  0  0  0  0  0  0  0  0  0  0
    2.3391   -4.5726   -2.3516 H   0  0  0  0  0  0  0  0  0  0  0  0
   -1.5680    0.5463    1.4150 H   0  0  0  0  0  0  0  0  0  0  0  0
   -3.6202   -0.4711    1.7750 H   0  0  0  0  0  0  0  0  0  0  0  0
   -3.7316    0.6727    0.4202 H   0  0  0  0  0  0  0  0  0  0  0  0
   -3.9434   -1.1370   -1.2032 H   0  0  0  0  0  0  0  0  0  0  0  0
   -4.9880   -1.5733    0.2112 H   0  0  0  0  0  0  0  0  0  0  0  0
   -4.4637   -3.6606    0.8192 H   0  0  0  0  0  0  0  0  0  0  0  0
   -4.1729   -3.7894   -1.0226 H   0  0  0  0  0  0  0  0  0  0  0  0
   -4.2850   -4.8237    0.0000 H   0  0  0  0  0  0  0  0  0  0  0  0
   -2.0294   -3.5399    1.9712 H   0  0  0  0  0  0  0  0  0  0  0  0
   -1.5055   -1.0236    3.4701 H   0  0  0  0  0  0  0  0  0  0  0  0
   -1.1993   -2.7079    3.8095 H   0  0  0  0  0  0  0  0  0  0  0  0
    1.2171   -1.5160    3.4682 H   0  0  0  0  0  0  0  0  0  0  0  0
    0.4569    0.3133    2.0334 H   0  0  0  0  0  0  0  0  0  0  0  0
    4.5795   -0.9453   -0.5754 H   0  0  0  0  0  0  0  0  0  0  0  0
    4.5797    0.8624   -0.6931 H   0  0  0  0  0  0  0  0  0  0  0  0
    5.5700    0.0000    0.0000 H   0  0  0  0  0  0  0  0  0  0  0  0
   -0.4610   -1.0175   -1.8835 H   0  0  0  0  0  0  0  0  0  0  0  0
  1  2  2  0  0  0  0
  1 27  1  0  0  0  0
  1 28  1  0  0  0  0
  3  2  1  0  0  0  0
  3  4  1  0  0  0  0
  3 29  1  1  0  0  0
  4 30  1  0  0  0  0
  4 31  1  0  0  0  0
  5  4  1  6  0  0  0
  5  6  1  0  0  0  0
  5  8  1  0  0  0  0
  6  7  1  0  0  0  0
  6  2  1  0  0  0  0
  6 32  1  1  0  0  0
  7 33  1  0  0  0  0
  8  9  1  0  0  0  0
  8 12  1  0  0  0  0
  8 34  1  6  0  0  0
  9 10  1  0  0  0  0
  9 35  1  0  0  0  0
  9 36  1  0  0  0  0
 10 11  1  0  0  0  0
 10  3  1  0  0  0  0
 10 37  1  6  0  0  0
 11 38  1  0  0  0  0
 12 13  1  0  0  0  0
 13 14  1  0  0  0  0
 13 39  1  0  0  0  0
 14 15  1  0  0  0  0
 14 40  1  0  0  0  0
 14 41  1  0  0  0  0
 15 16  1  0  0  0  0
 15 42  1  0  0  0  0
 15 43  1  0  0  0  0
 16 17  1  0  0  0  0
 16 18  1  0  0  0  0
 17 44  1  0  0  0  0
 17 45  1  0  0  0  0
 17 46  1  0  0  0  0
 18 19  1  0  0  0  0
 18 12  1  0  0  0  0
 18 47  1  0  0  0  0
 19 48  1  0  0  0  0
 19 49  1  0  0  0  0
 20 19  1  0  0  0  0
 20 21  1  0  0  0  0
 20  5  1  0  0  0  0
 20 50  1  0  0  0  0
 21 22  1  0  0  0  0
 21 12  1  0  0  0  0
 21 51  1  0  0  0  0
 22 23  1  0  0  0  0
 23 24  1  0  0  0  0
 24 52  1  0  0  0  0
 24 53  1  0  0  0  0
 24 54  1  0  0  0  0
 25 22  1  0  0  0  0
 25 26  1  0  0  0  0
 25 16  1  0  0  0  0
 25 55  1  0  0  0  0
 26 13  1  0  0  0  0
M  END
>  <IDENTIFIER>
CNP0255929.1

>  <Energy>
11196.7

$$$$
