
 OpenBabel09102523073D

 68 71  0  0  0  0  0  0  0  0999 V2000
   -4.6336    1.6346   -2.2554 N   0  0  0  0  0  0  0  0  0  0  0  0
   -4.8243    1.4398   -0.9257 C   0  0  0  0  0  0  0  0  0  0  0  0
   -5.8043    1.9426   -0.3962 O   0  0  0  0  0  0  0  0  0  0  0  0
   -3.8550    0.6287   -0.0667 C   0  0  1  0  0  0  0  0  0  0  0  0
   -4.5539   -0.6124    0.5295 C   0  0  0  0  0  0  0  0  0  0  0  0
   -5.6080   -0.2308    1.5326 C   0  0  0  0  0  0  0  0  0  0  0  0
   -5.3825    0.1968    2.8379 C   0  0  0  0  0  0  0  0  0  0  0  0
   -6.5584    0.4697    3.4480 N   0  0  0  0  0  0  0  0  0  0  0  0
   -7.5199    0.2359    2.5375 C   0  0  0  0  0  0  0  0  0  0  0  0
   -8.8943    0.4061    2.6946 C   0  0  0  0  0  0  0  0  0  0  0  0
   -9.7207    0.1272    1.5905 C   0  0  0  0  0  0  0  0  0  0  0  0
   -9.1615   -0.3170    0.3716 C   0  0  0  0  0  0  0  0  0  0  0  0
   -7.7714   -0.4892    0.2457 C   0  0  0  0  0  0  0  0  0  0  0  0
   -6.9771   -0.2001    1.3556 C   0  0  0  0  0  0  0  0  0  0  0  0
   -2.6997    0.1968   -0.8478 N   0  0  0  0  0  0  0  0  0  0  0  0
   -1.4375    0.6698   -0.6169 C   0  0  0  0  0  0  0  0  0  0  0  0
   -1.2511    1.4838    0.2776 O   0  0  0  0  0  0  0  0  0  0  0  0
   -0.2688    0.2361   -1.4526 C   0  0  0  0  0  0  0  0  0  0  0  0
    0.9373    0.8217   -1.2425 C   0  0  0  0  0  0  0  0  0  0  0  0
    2.1825    0.5331   -2.0470 C   0  0  1  0  0  0  0  0  0  0  0  0
    3.1002   -0.1870   -1.1770 N   0  0  0  0  0  0  0  0  0  0  0  0
    4.2997    0.3156   -0.7637 C   0  0  0  0  0  0  0  0  0  0  0  0
    4.6777    1.4126   -1.1496 O   0  0  0  0  0  0  0  0  0  0  0  0
    5.0565   -0.4033    0.1116 N   0  0  0  0  0  0  0  0  0  0  0  0
    6.3206    0.0590    0.6657 C   0  0  0  0  0  0  0  0  0  0  0  0
    7.4568   -0.9455    0.3051 C   0  0  0  0  0  0  0  0  0  0  0  0
    8.2500   -1.4378    1.5340 C   0  0  0  0  0  0  0  0  0  0  0  0
    8.6960   -0.2352    2.3723 C   0  0  0  0  0  0  0  0  0  0  0  0
    7.4992    0.6305    2.8405 C   0  0  0  0  0  0  0  0  0  0  0  0
    6.1649    0.2225    2.1868 C   0  0  0  0  0  0  0  0  0  0  0  0
    1.8672   -0.2474   -3.3470 C   0  0  1  0  0  0  0  0  0  0  0  0
    3.0479   -0.6898   -3.9711 O   0  0  0  0  0  0  0  0  0  0  0  0
    0.8853   -1.3931   -3.0649 C   0  0  2  0  0  0  0  0  0  0  0  0
    0.6607   -2.1824   -4.2062 O   0  0  0  0  0  0  0  0  0  0  0  0
   -0.4477   -0.8250   -2.5306 C   0  0  0  0  0  0  0  0  0  0  0  0
   -5.3139    2.1871   -2.7983 H   0  0  0  0  0  0  0  0  0  0  0  0
   -3.8281    1.2434   -2.7620 H   0  0  0  0  0  0  0  0  0  0  0  0
   -3.5262    1.2850    0.7688 H   0  0  0  0  0  0  0  0  0  0  0  0
   -3.8237   -1.2739    1.0437 H   0  0  0  0  0  0  0  0  0  0  0  0
   -4.9987   -1.1962   -0.3048 H   0  0  0  0  0  0  0  0  0  0  0  0
   -4.4156    0.2964    3.3143 H   0  0  0  0  0  0  0  0  0  0  0  0
   -6.6882    0.8072    4.4276 H   0  0  0  0  0  0  0  0  0  0  0  0
   -9.3124    0.7536    3.6305 H   0  0  0  0  0  0  0  0  0  0  0  0
  -10.7913    0.2599    1.6738 H   0  0  0  0  0  0  0  0  0  0  0  0
   -9.8055   -0.5204   -0.4737 H   0  0  0  0  0  0  0  0  0  0  0  0
   -7.3377   -0.8186   -0.6891 H   0  0  0  0  0  0  0  0  0  0  0  0
   -2.8671   -0.4697   -1.6145 H   0  0  0  0  0  0  0  0  0  0  0  0
    1.0566    1.5493   -0.4447 H   0  0  0  0  0  0  0  0  0  0  0  0
    2.6206    1.5020   -2.3712 H   0  0  0  0  0  0  0  0  0  0  0  0
    2.8036   -1.1066   -0.8172 H   0  0  0  0  0  0  0  0  0  0  0  0
    4.7083   -1.3211    0.4300 H   0  0  0  0  0  0  0  0  0  0  0  0
    6.6013    1.0602    0.2679 H   0  0  0  0  0  0  0  0  0  0  0  0
    8.1509   -0.4325   -0.3974 H   0  0  0  0  0  0  0  0  0  0  0  0
    7.0621   -1.8348   -0.2321 H   0  0  0  0  0  0  0  0  0  0  0  0
    9.1267   -2.0326    1.1998 H   0  0  0  0  0  0  0  0  0  0  0  0
    7.6122   -2.1025    2.1560 H   0  0  0  0  0  0  0  0  0  0  0  0
    9.3552    0.3837    1.7248 H   0  0  0  0  0  0  0  0  0  0  0  0
    9.2999   -0.5549    3.2491 H   0  0  0  0  0  0  0  0  0  0  0  0
    7.7342    1.6935    2.6130 H   0  0  0  0  0  0  0  0  0  0  0  0
    7.3687    0.5496    3.9413 H   0  0  0  0  0  0  0  0  0  0  0  0
    5.3793    0.9699    2.4333 H   0  0  0  0  0  0  0  0  0  0  0  0
    5.8386   -0.7501    2.6161 H   0  0  0  0  0  0  0  0  0  0  0  0
    1.3524    0.4412   -4.0545 H   0  0  0  0  0  0  0  0  0  0  0  0
    3.4125   -1.4417   -3.4354 H   0  0  0  0  0  0  0  0  0  0  0  0
    1.3343   -2.0471   -2.2873 H   0  0  0  0  0  0  0  0  0  0  0  0
    0.3096   -1.5869   -4.9194 H   0  0  0  0  0  0  0  0  0  0  0  0
   -1.0118   -1.6945   -2.1291 H   0  0  0  0  0  0  0  0  0  0  0  0
   -1.0433   -0.3627   -3.3474 H   0  0  0  0  0  0  0  0  0  0  0  0
  1  2  1  0  0  0  0
  1 36  1  0  0  0  0
  1 37  1  0  0  0  0
  2  3  2  0  0  0  0
  2  4  1  0  0  0  0
  4  5  1  0  0  0  0
  4 15  1  0  0  0  0
  4 38  1  1  0  0  0
  5  6  1  0  0  0  0
  5 39  1  0  0  0  0
  5 40  1  0  0  0  0
  6  7  2  0  0  0  0
  7  8  1  0  0  0  0
  7 41  1  0  0  0  0
  8  9  1  0  0  0  0
  8 42  1  0  0  0  0
  9 10  2  0  0  0  0
 10 11  1  0  0  0  0
 10 43  1  0  0  0  0
 11 12  2  0  0  0  0
 11 44  1  0  0  0  0
 12 13  1  0  0  0  0
 12 45  1  0  0  0  0
 13 14  2  0  0  0  0
 13 46  1  0  0  0  0
 14  6  1  0  0  0  0
 14  9  1  0  0  0  0
 15 16  1  0  0  0  0
 15 47  1  0  0  0  0
 16 17  2  0  0  0  0
 16 18  1  0  0  0  0
 18 19  2  0  0  0  0
 19 20  1  0  0  0  0
 19 48  1  0  0  0  0
 20 21  1  0  0  0  0
 20 31  1  0  0  0  0
 20 49  1  6  0  0  0
 21 22  1  0  0  0  0
 21 50  1  0  0  0  0
 22 23  2  0  0  0  0
 22 24  1  0  0  0  0
 24 25  1  0  0  0  0
 24 51  1  0  0  0  0
 25 26  1  0  0  0  0
 25 52  1  0  0  0  0
 26 27  1  0  0  0  0
 26 53  1  0  0  0  0
 26 54  1  0  0  0  0
 27 28  1  0  0  0  0
 27 55  1  0  0  0  0
 27 56  1  0  0  0  0
 28 29  1  0  0  0  0
 28 57  1  0  0  0  0
 28 58  1  0  0  0  0
 29 30  1  0  0  0  0
 29 59  1  0  0  0  0
 29 60  1  0  0  0  0
 30 25  1  0  0  0  0
 30 61  1  0  0  0  0
 30 62  1  0  0  0  0
 31 32  1  0  0  0  0
 31 33  1  0  0  0  0
 31 63  1  6  0  0  0
 32 64  1  0  0  0  0
 33 34  1  0  0  0  0
 33 35  1  0  0  0  0
 33 65  1  1  0  0  0
 34 66  1  0  0  0  0
 35 18  1  0  0  0  0
 35 67  1  0  0  0  0
 35 68  1  0  0  0  0
M  END
>  <IDENTIFIER>
CNP0532816.1

>  <Energy>
684.506

$$$$
