
 OpenBabel09102505333D

 60 63  0  0  0  0  0  0  0  0999 V2000
    8.2191    0.9195   -0.3978 C   0  0  0  0  0  0  0  0  0  0  0  0
    7.5471   -0.4526   -0.4666 C   0  0  0  0  0  0  0  0  0  0  0  0
    6.2529   -0.3954   -1.1278 N   0  0  0  0  0  0  0  0  0  0  0  0
    5.1801    0.2695   -0.6130 C   0  0  0  0  0  0  0  0  0  0  0  0
    5.2893    0.8804    0.4404 O   0  0  0  0  0  0  0  0  0  0  0  0
    3.9802    0.2412   -1.2689 N   0  0  0  0  0  0  0  0  0  0  0  0
    2.7738    0.8873   -0.7664 C   0  0  0  0  0  0  0  0  0  0  0  0
    2.3089    0.2437    0.5554 C   0  0  1  0  0  0  0  0  0  0  0  0
    1.0700    0.9343    1.2078 C   0  0  0  0  0  0  0  0  0  0  0  0
    0.3217   -0.1446    2.0509 C   0  0  2  0  0  0  0  0  0  0  0  0
    1.4023   -0.9424    2.8397 C   0  0  0  0  0  0  0  0  0  0  0  0
    2.2084   -1.8031    1.8077 C   0  0  0  0  0  0  0  0  0  0  0  0
    2.0690   -1.2266    0.4387 N   0  0  1  0  0  0  0  0  0  0  0  0
    0.6720   -1.4791   -0.0426 C   0  0  0  0  0  0  0  0  0  0  0  0
   -0.3533   -1.1705    1.0946 C   0  0  2  0  0  0  0  0  0  0  0  0
   -1.7432   -0.7970    0.6049 C   0  0  0  0  0  0  0  0  0  0  0  0
   -2.1079    0.2658   -0.2070 C   0  0  0  0  0  0  0  0  0  0  0  0
   -3.4920    0.1799   -0.3224 C   0  0  0  0  0  0  0  0  0  0  0  0
   -4.4034    1.0989   -1.0659 C   0  0  0  0  0  0  0  0  0  0  0  0
   -3.8729    2.1883   -1.7865 C   0  0  0  0  0  0  0  0  0  0  0  0
   -4.7107    3.0635   -2.4792 C   0  0  0  0  0  0  0  0  0  0  0  0
   -6.0892    2.8713   -2.4666 C   0  0  0  0  0  0  0  0  0  0  0  0
   -6.6395    1.8026   -1.7614 C   0  0  0  0  0  0  0  0  0  0  0  0
   -5.8112    0.9048   -1.0540 C   0  0  0  0  0  0  0  0  0  0  0  0
   -6.3371   -0.1392   -0.3569 O   0  0  0  0  0  0  0  0  0  0  0  0
   -7.6758   -0.4501   -0.2345 C   0  0  0  0  0  0  0  0  0  0  0  0
   -3.9198   -0.8882    0.3782 N   0  0  0  0  0  0  0  0  0  0  0  0
   -2.8710   -1.4725    0.9299 N   0  0  0  0  0  0  0  0  0  0  0  0
   -2.9852   -2.6598    1.7712 C   0  0  0  0  0  0  0  0  0  0  0  0
    9.2133    0.8164    0.0869 H   0  0  0  0  0  0  0  0  0  0  0  0
    7.6227    1.6381    0.1992 H   0  0  0  0  0  0  0  0  0  0  0  0
    8.3608    1.3256   -1.4209 H   0  0  0  0  0  0  0  0  0  0  0  0
    7.4284   -0.8731    0.5547 H   0  0  0  0  0  0  0  0  0  0  0  0
    8.2171   -1.1284   -1.0417 H   0  0  0  0  0  0  0  0  0  0  0  0
    6.1412   -0.9217   -2.0085 H   0  0  0  0  0  0  0  0  0  0  0  0
    3.9147   -0.2585   -2.1692 H   0  0  0  0  0  0  0  0  0  0  0  0
    1.9683    0.7889   -1.5241 H   0  0  0  0  0  0  0  0  0  0  0  0
    2.9691    1.9719   -0.6213 H   0  0  0  0  0  0  0  0  0  0  0  0
    3.1417    0.3893    1.2767 H   0  0  0  0  0  0  0  0  0  0  0  0
    0.3769    1.3387    0.4501 H   0  0  0  0  0  0  0  0  0  0  0  0
    1.4211    1.7945    1.8181 H   0  0  0  0  0  0  0  0  0  0  0  0
   -0.4137    0.3129    2.7475 H   0  0  0  0  0  0  0  0  0  0  0  0
    0.9779   -1.6138    3.6166 H   0  0  0  0  0  0  0  0  0  0  0  0
    2.0565   -0.2051    3.3557 H   0  0  0  0  0  0  0  0  0  0  0  0
    1.8032   -2.8406    1.7876 H   0  0  0  0  0  0  0  0  0  0  0  0
    3.2705   -1.8946    2.1216 H   0  0  0  0  0  0  0  0  0  0  0  0
    0.5390   -2.5205   -0.4064 H   0  0  0  0  0  0  0  0  0  0  0  0
    0.4785   -0.8210   -0.9167 H   0  0  0  0  0  0  0  0  0  0  0  0
   -0.4838   -2.0883    1.7050 H   0  0  0  0  0  0  0  0  0  0  0  0
   -1.4632    1.0071   -0.6495 H   0  0  0  0  0  0  0  0  0  0  0  0
   -2.8093    2.3739   -1.8201 H   0  0  0  0  0  0  0  0  0  0  0  0
   -4.2886    3.8958   -3.0275 H   0  0  0  0  0  0  0  0  0  0  0  0
   -6.7355    3.5535   -3.0042 H   0  0  0  0  0  0  0  0  0  0  0  0
   -7.7146    1.6842   -1.7713 H   0  0  0  0  0  0  0  0  0  0  0  0
   -7.7801   -1.3557    0.3978 H   0  0  0  0  0  0  0  0  0  0  0  0
   -8.1142   -0.6636   -1.2325 H   0  0  0  0  0  0  0  0  0  0  0  0
   -8.2211    0.3857    0.2536 H   0  0  0  0  0  0  0  0  0  0  0  0
   -4.0482   -2.9718    1.8546 H   0  0  0  0  0  0  0  0  0  0  0  0
   -2.6015   -2.4383    2.7896 H   0  0  0  0  0  0  0  0  0  0  0  0
   -2.4051   -3.4951    1.3254 H   0  0  0  0  0  0  0  0  0  0  0  0
  1  2  1  0  0  0  0
  1 30  1  0  0  0  0
  1 31  1  0  0  0  0
  1 32  1  0  0  0  0
  2  3  1  0  0  0  0
  2 33  1  0  0  0  0
  2 34  1  0  0  0  0
  3  4  1  0  0  0  0
  3 35  1  0  0  0  0
  4  5  2  0  0  0  0
  4  6  1  0  0  0  0
  6  7  1  0  0  0  0
  6 36  1  0  0  0  0
  7 37  1  0  0  0  0
  7 38  1  0  0  0  0
  8  7  1  0  0  0  0
  8  9  1  0  0  0  0
  8 39  1  1  0  0  0
  9 40  1  0  0  0  0
  9 41  1  0  0  0  0
 10  9  1  0  0  0  0
 10 11  1  0  0  0  0
 10 42  1  1  0  0  0
 11 12  1  0  0  0  0
 11 43  1  0  0  0  0
 11 44  1  0  0  0  0
 12 45  1  0  0  0  0
 12 46  1  0  0  0  0
 13 12  1  1  0  0  0
 13 14  1  0  0  0  0
 13  8  1  0  0  0  0
 14 15  1  0  0  0  0
 14 47  1  0  0  0  0
 14 48  1  0  0  0  0
 15 16  1  0  0  0  0
 15 10  1  0  0  0  0
 15 49  1  1  0  0  0
 16 17  2  0  0  0  0
 17 18  1  0  0  0  0
 17 50  1  0  0  0  0
 18 19  1  0  0  0  0
 18 27  2  0  0  0  0
 19 20  2  0  0  0  0
 20 21  1  0  0  0  0
 20 51  1  0  0  0  0
 21 22  2  0  0  0  0
 21 52  1  0  0  0  0
 22 23  1  0  0  0  0
 22 53  1  0  0  0  0
 23 24  2  0  0  0  0
 23 54  1  0  0  0  0
 24 25  1  0  0  0  0
 24 19  1  0  0  0  0
 25 26  1  0  0  0  0
 26 55  1  0  0  0  0
 26 56  1  0  0  0  0
 26 57  1  0  0  0  0
 27 28  1  0  0  0  0
 28 29  1  0  0  0  0
 28 16  1  0  0  0  0
 29 58  1  0  0  0  0
 29 59  1  0  0  0  0
 29 60  1  0  0  0  0
M  END
>  <IDENTIFIER>
CNP0129524.1

>  <Energy>
672.97

$$$$
