
 OpenBabel09062509223D

 70 73  0  0  0  0  0  0  0  0999 V2000
   -4.0936   -4.4240    0.7621 C   0  0  0  0  0  0  0  0  0  0  0  0
   -3.1976   -3.7525    1.8214 C   0  0  0  0  0  0  0  0  0  0  0  0
   -4.0673   -2.8833    2.7534 C   0  0  0  0  0  0  0  0  0  0  0  0
   -2.5433   -4.7512    2.5710 O   0  0  0  0  0  0  0  0  0  0  0  0
   -2.1248   -2.8960    1.0915 C   0  0  0  0  0  0  0  0  0  0  0  0
   -1.0962   -2.2524    2.0384 C   0  0  0  0  0  0  0  0  0  0  0  0
    0.0410   -1.5786    1.2807 C   0  0  0  0  0  0  0  0  0  0  0  0
   -0.1772   -0.3562    0.5934 C   0  0  0  0  0  0  0  0  0  0  0  0
   -1.4294    0.1998    0.6091 O   0  0  0  0  0  0  0  0  0  0  0  0
   -1.8516    1.4239    0.0911 C   0  0  2  0  0  0  0  0  0  0  0  0
   -2.3049    2.2157    1.1981 O   0  0  0  0  0  0  0  0  0  0  0  0
   -3.2692    3.1972    0.8519 C   0  0  1  0  0  0  0  0  0  0  0  0
   -2.6167    4.3079   -0.0166 C   0  0  0  0  0  0  0  0  0  0  0  0
   -3.5032    5.3795   -0.1893 O   0  0  0  0  0  0  0  0  0  0  0  0
   -4.5822    2.5266    0.3103 C   0  0  1  0  0  0  0  0  0  0  0  0
   -5.2916    3.4026   -0.5318 O   0  0  0  0  0  0  0  0  0  0  0  0
   -4.3209    1.1417   -0.3645 C   0  0  2  0  0  0  0  0  0  0  0  0
   -4.3953    0.0790    0.5615 O   0  0  0  0  0  0  0  0  0  0  0  0
   -2.9340    1.1833   -1.0121 C   0  0  2  0  0  0  0  0  0  0  0  0
   -2.6387    0.0581   -1.8032 O   0  0  0  0  0  0  0  0  0  0  0  0
    0.9137    0.2523   -0.0626 C   0  0  0  0  0  0  0  0  0  0  0  0
    2.1796   -0.3194   -0.0516 C   0  0  0  0  0  0  0  0  0  0  0  0
    3.1820    0.3194   -0.7131 O   0  0  0  0  0  0  0  0  0  0  0  0
    4.3993   -0.2565   -1.0476 C   0  0  1  0  0  0  0  0  0  0  0  0
    5.3355    0.8518   -1.5132 C   0  0  0  0  0  0  0  0  0  0  0  0
    4.9474    1.6271   -2.6210 C   0  0  0  0  0  0  0  0  0  0  0  0
    5.7556    2.6703   -3.0837 C   0  0  0  0  0  0  0  0  0  0  0  0
    6.9697    2.9565   -2.4469 C   0  0  0  0  0  0  0  0  0  0  0  0
    7.7582    3.9615   -2.8785 O   0  0  0  0  0  0  0  0  0  0  0  0
    7.3686    2.1933   -1.3472 C   0  0  0  0  0  0  0  0  0  0  0  0
    6.5629    1.1511   -0.8801 C   0  0  0  0  0  0  0  0  0  0  0  0
    4.8974   -1.0872    0.1536 C   0  0  2  0  0  0  0  0  0  0  0  0
    6.1077   -1.7546   -0.1108 O   0  0  0  0  0  0  0  0  0  0  0  0
    3.8101   -2.0514    0.5624 C   0  0  0  0  0  0  0  0  0  0  0  0
    4.0837   -3.2189    0.7899 O   0  0  0  0  0  0  0  0  0  0  0  0
    2.4126   -1.5317    0.6241 C   0  0  0  0  0  0  0  0  0  0  0  0
    1.3343   -2.1686    1.2957 C   0  0  0  0  0  0  0  0  0  0  0  0
    1.4991   -3.3276    1.9766 O   0  0  0  0  0  0  0  0  0  0  0  0
   -4.8634   -5.0606    1.2494 H   0  0  0  0  0  0  0  0  0  0  0  0
   -3.4845   -5.0727    0.0961 H   0  0  0  0  0  0  0  0  0  0  0  0
   -4.6099   -3.6608    0.1411 H   0  0  0  0  0  0  0  0  0  0  0  0
   -4.8446   -3.5056    3.2469 H   0  0  0  0  0  0  0  0  0  0  0  0
   -4.5784   -2.0839    2.1776 H   0  0  0  0  0  0  0  0  0  0  0  0
   -3.4592   -2.4184    3.5552 H   0  0  0  0  0  0  0  0  0  0  0  0
   -3.2341   -5.2969    3.0313 H   0  0  0  0  0  0  0  0  0  0  0  0
   -2.6173   -2.1138    0.4823 H   0  0  0  0  0  0  0  0  0  0  0  0
   -1.5653   -3.5687    0.4029 H   0  0  0  0  0  0  0  0  0  0  0  0
   -0.7005   -3.0658    2.6783 H   0  0  0  0  0  0  0  0  0  0  0  0
   -1.5618   -1.5147    2.7241 H   0  0  0  0  0  0  0  0  0  0  0  0
   -1.0250    1.9577   -0.3971 H   0  0  0  0  0  0  0  0  0  0  0  0
   -3.5587    3.7344    1.7819 H   0  0  0  0  0  0  0  0  0  0  0  0
   -2.2871    3.9370   -1.0057 H   0  0  0  0  0  0  0  0  0  0  0  0
   -1.7181    4.6780    0.5267 H   0  0  0  0  0  0  0  0  0  0  0  0
   -3.0312    6.0394   -0.7614 H   0  0  0  0  0  0  0  0  0  0  0  0
   -5.2647    2.3054    1.1603 H   0  0  0  0  0  0  0  0  0  0  0  0
   -4.8417    3.4089   -1.4162 H   0  0  0  0  0  0  0  0  0  0  0  0
   -5.1224    0.9607   -1.1135 H   0  0  0  0  0  0  0  0  0  0  0  0
   -4.0026    0.3656    1.4259 H   0  0  0  0  0  0  0  0  0  0  0  0
   -2.9665    2.0410   -1.7100 H   0  0  0  0  0  0  0  0  0  0  0  0
   -2.9394   -0.7508   -1.3180 H   0  0  0  0  0  0  0  0  0  0  0  0
    0.8308    1.1768   -0.6053 H   0  0  0  0  0  0  0  0  0  0  0  0
    4.2366   -0.9599   -1.8955 H   0  0  0  0  0  0  0  0  0  0  0  0
    4.0105    1.4261   -3.1262 H   0  0  0  0  0  0  0  0  0  0  0  0
    5.4350    3.2568   -3.9355 H   0  0  0  0  0  0  0  0  0  0  0  0
    7.5161    4.5176   -3.6326 H   0  0  0  0  0  0  0  0  0  0  0  0
    8.3051    2.4103   -0.8487 H   0  0  0  0  0  0  0  0  0  0  0  0
    6.9127    0.5982   -0.0217 H   0  0  0  0  0  0  0  0  0  0  0  0
    5.0449   -0.3867    1.0045 H   0  0  0  0  0  0  0  0  0  0  0  0
    5.9677   -2.3153   -0.9189 H   0  0  0  0  0  0  0  0  0  0  0  0
    2.3275   -3.7989    2.1080 H   0  0  0  0  0  0  0  0  0  0  0  0
  1  2  1  0  0  0  0
  1 39  1  0  0  0  0
  1 40  1  0  0  0  0
  1 41  1  0  0  0  0
  2  3  1  0  0  0  0
  2  4  1  0  0  0  0
  2  5  1  0  0  0  0
  3 42  1  0  0  0  0
  3 43  1  0  0  0  0
  3 44  1  0  0  0  0
  4 45  1  0  0  0  0
  5  6  1  0  0  0  0
  5 46  1  0  0  0  0
  5 47  1  0  0  0  0
  6  7  1  0  0  0  0
  6 48  1  0  0  0  0
  6 49  1  0  0  0  0
  7  8  2  0  0  0  0
  8  9  1  0  0  0  0
  8 21  1  0  0  0  0
 10  9  1  0  0  0  0
 10 11  1  0  0  0  0
 10 50  1  6  0  0  0
 11 12  1  0  0  0  0
 12 13  1  0  0  0  0
 12 15  1  0  0  0  0
 12 51  1  1  0  0  0
 13 14  1  0  0  0  0
 13 52  1  0  0  0  0
 13 53  1  0  0  0  0
 14 54  1  0  0  0  0
 15 16  1  0  0  0  0
 15 17  1  0  0  0  0
 15 55  1  1  0  0  0
 16 56  1  0  0  0  0
 17 18  1  0  0  0  0
 17 19  1  0  0  0  0
 17 57  1  6  0  0  0
 18 58  1  0  0  0  0
 19 20  1  0  0  0  0
 19 10  1  0  0  0  0
 19 59  1  6  0  0  0
 20 60  1  0  0  0  0
 21 22  2  0  0  0  0
 21 61  1  0  0  0  0
 22 23  1  0  0  0  0
 23 24  1  0  0  0  0
 24 25  1  0  0  0  0
 24 32  1  0  0  0  0
 24 62  1  6  0  0  0
 25 26  2  0  0  0  0
 26 27  1  0  0  0  0
 26 63  1  0  0  0  0
 27 28  2  0  0  0  0
 27 64  1  0  0  0  0
 28 29  1  0  0  0  0
 28 30  1  0  0  0  0
 29 65  1  0  0  0  0
 30 31  2  0  0  0  0
 30 66  1  0  0  0  0
 31 25  1  0  0  0  0
 31 67  1  0  0  0  0
 32 33  1  0  0  0  0
 32 34  1  0  0  0  0
 32 68  1  1  0  0  0
 33 69  1  0  0  0  0
 34 35  2  0  0  0  0
 34 36  1  0  0  0  0
 36 37  2  0  0  0  0
 36 22  1  0  0  0  0
 37 38  1  0  0  0  0
 37  7  1  0  0  0  0
 38 70  1  0  0  0  0
M  END
>  <IDENTIFIER>
CNP0253888.3

>  <Energy>
701.598

$$$$
