
 OpenBabel09082509162D

151150  0  0  0  0  0  0  0  0999 V2000
   -0.7657   -2.2367    0.1122 C   0  0  0  0  0  0  0  0  0  0  0  0
   -0.6320   -0.7184   -0.0070 C   0  0  0  0  0  0  0  0  0  0  0  0
    0.7535   -0.0724   -0.0549 C   0  0  0  0  0  0  0  0  0  0  0  0
    2.0001   -0.6067    0.0064 C   0  0  0  0  0  0  0  0  0  0  0  0
    2.3105   -2.0714    0.1550 C   0  0  0  0  0  0  0  0  0  0  0  0
    3.7426   -2.5860    0.2061 C   0  0  0  0  0  0  0  0  0  0  0  0
    4.9667   -2.0088    0.1245 C   0  0  0  0  0  0  0  0  0  0  0  0
    5.3168   -0.5474   -0.0524 C   0  0  0  0  0  0  0  0  0  0  0  0
    6.7923   -0.1012   -0.1750 C   0  0  0  0  0  0  0  0  0  0  0  0
    7.9884   -0.7674   -0.2061 C   0  0  0  0  0  0  0  0  0  0  0  0
    8.1688   -2.2644   -0.1173 C   0  0  0  0  0  0  0  0  0  0  0  0
    9.4934   -3.0312   -0.2460 C   0  0  0  0  0  0  0  0  0  0  0  0
   10.8171   -2.7504   -0.3817 C   0  0  0  0  0  0  0  0  0  0  0  0
   11.5514   -1.4405   -0.4126 C   0  0  0  0  0  0  0  0  0  0  0  0
   12.5946   -1.3943    0.6861 C   0  0  0  0  0  0  0  0  0  0  0  0
   13.7702   -2.0772    0.7683 C   0  0  0  0  0  0  0  0  0  0  0  0
   14.4042   -3.0371   -0.2374 C   0  0  0  0  0  0  0  0  0  0  0  0
   14.8846   -4.3900    0.3913 C   0  0  0  0  0  0  0  0  0  0  0  0
   15.8943   -5.1472   -0.5361 C   0  0  0  0  0  0  0  0  0  0  0  0
   16.5243   -6.4506    0.0003 C   0  0  0  0  0  0  0  0  0  0  0  0
   16.9171   -6.4904    1.1566 O   0  0  0  0  0  0  0  0  0  0  0  0
   16.8989   -7.4339   -0.8956 O   0  0  0  0  0  0  0  0  0  0  0  0
   17.7973   -8.5225   -0.7681 C   0  0  2  0  0  0  0  0  0  0  0  0
   17.2088   -9.7133    0.1044 C   0  0  0  0  0  0  0  0  0  0  0  0
   17.8877  -10.9699    0.0489 O   0  0  0  0  0  0  0  0  0  0  0  0
   17.3665  -12.1159   -0.5528 C   0  0  0  0  0  0  0  0  0  0  0  0
   16.5454  -11.9650   -1.4468 O   0  0  0  0  0  0  0  0  0  0  0  0
   17.6520  -13.6112   -0.1341 C   0  0  0  0  0  0  0  0  0  0  0  0
   19.0988  -14.1801   -0.2981 C   0  0  0  0  0  0  0  0  0  0  0  0
   19.4673  -15.7129   -0.1392 C   0  0  0  0  0  0  0  0  0  0  0  0
   18.7500  -16.8875    0.0000 C   0  0  0  0  0  0  0  0  0  0  0  0
   17.2500  -16.8875    0.0000 C   0  0  0  0  0  2  0  0  0  0  0  0
   15.7500  -16.8875    0.0000 C   0  0  0  0  0  0  0  0  0  0  0  0
   14.9737  -18.0011   -0.0001 C   0  0  0  0  0  0  0  0  0  0  0  0
   15.1371  -19.5511   -0.0004 C   0  0  0  0  0  0  0  0  0  0  0  0
   16.1948  -20.7414   -0.0002 C   0  0  0  0  0  0  0  0  0  0  0  0
   15.7500  -22.0836    0.0000 C   0  0  0  0  0  0  0  0  0  0  0  0
   14.2500  -22.0836    0.0000 C   0  0  0  0  0  2  0  0  0  0  0  0
   12.7500  -22.0836    0.0000 C   0  0  0  0  0  0  0  0  0  0  0  0
   12.3055  -23.4259    0.0000 C   0  0  0  0  0  0  0  0  0  0  0  0
   13.3634  -24.6161    0.0001 C   0  0  0  0  0  0  0  0  0  0  0  0
   13.5266  -26.1663    0.0001 C   0  0  0  0  0  0  0  0  0  0  0  0
   12.7500  -27.2798    0.0000 C   0  0  0  0  0  0  0  0  0  0  0  0
   11.2500  -27.2798    0.0000 C   0  0  0  0  0  2  0  0  0  0  0  0
    9.7500  -27.2798    0.0000 C   0  0  0  0  0  2  0  0  0  0  0  0
    8.2500  -27.2798    0.0000 C   0  0  0  0  0  2  0  0  0  0  0  0
    6.7500  -27.2798    0.0000 C   0  0  0  0  0  2  0  0  0  0  0  0
    5.2500  -27.2798    0.0000 C   0  0  0  0  0  0  0  0  0  0  0  0
   19.2099   -8.0051   -0.3587 C   0  0  0  0  0  0  0  0  0  0  0  0
   19.6694   -7.0661   -1.2892 O   0  0  0  0  0  0  0  0  0  0  0  0
   20.8346   -6.3348   -1.2400 C   0  0  0  0  0  0  0  0  0  0  0  0
   21.1667   -5.6893   -2.2214 O   0  0  0  0  0  0  0  0  0  0  0  0
   21.6962   -6.2942    0.0000 C   0  0  0  0  0  0  0  0  0  0  0  0
   22.9952   -5.5442    0.0000 C   0  0  0  0  0  2  0  0  0  0  0  0
   24.2942   -4.7942    0.0000 C   0  0  0  0  0  0  0  0  0  0  0  0
   25.5933   -4.0442    0.0000 C   0  0  0  0  0  0  0  0  0  0  0  0
   26.8923   -3.2942    0.0000 C   0  0  0  0  0  2  0  0  0  0  0  0
   28.1913   -2.5442    0.0000 C   0  0  0  0  0  0  0  0  0  0  0  0
   28.1913   -1.0442    0.0000 C   0  0  0  0  0  0  0  0  0  0  0  0
   26.8923   -0.2942    0.0000 C   0  0  0  0  0  2  0  0  0  0  0  0
   25.5933    0.4558    0.0000 C   0  0  0  0  0  0  0  0  0  0  0  0
   25.5933    1.9558    0.0000 C   0  0  0  0  0  0  0  0  0  0  0  0
   26.8923    2.7058    0.0000 C   0  0  0  0  0  2  0  0  0  0  0  0
   28.1913    3.4558    0.0000 C   0  0  0  0  0  0  0  0  0  0  0  0
   28.1913    4.9558    0.0000 C   0  0  0  0  0  0  0  0  0  0  0  0
   26.8923    5.7058    0.0000 C   0  0  0  0  0  2  0  0  0  0  0  0
   25.5933    6.4558    0.0000 C   0  0  0  0  0  0  0  0  0  0  0  0
   25.5933    7.9558    0.0000 C   0  0  0  0  0  0  0  0  0  0  0  0
   26.8923    8.7058    0.0000 C   0  0  0  0  0  2  0  0  0  0  0  0
   28.1913    9.4558    0.0000 C   0  0  0  0  0  0  0  0  0  0  0  0
   29.9134    9.4756    0.0431 C   0  0  0  0  0  0  0  0  0  0  0  0
   30.7894   10.9558    0.0000 C   0  0  0  0  0  0  0  0  0  0  0  0
   32.0885   11.7058    0.0000 C   0  0  0  0  0  0  0  0  0  0  0  0
   -1.8449   -2.5022    0.1296 H   0  0  0  0  0  0  0  0  0  0  0  0
   -0.3301   -2.6085    1.0596 H   0  0  0  0  0  0  0  0  0  0  0  0
   -0.3263   -2.7481   -0.7665 H   0  0  0  0  0  0  0  0  0  0  0  0
   -1.1674   -0.4190   -0.9339 H   0  0  0  0  0  0  0  0  0  0  0  0
   -1.1757   -0.2727    0.8539 H   0  0  0  0  0  0  0  0  0  0  0  0
    0.7121    1.0088   -0.1560 H   0  0  0  0  0  0  0  0  0  0  0  0
    2.8082    0.1010   -0.0534 H   0  0  0  0  0  0  0  0  0  0  0  0
    1.8474   -2.4085    1.1029 H   0  0  0  0  0  0  0  0  0  0  0  0
    1.8495   -2.5990   -0.7020 H   0  0  0  0  0  0  0  0  0  0  0  0
    3.7662   -3.6670    0.3312 H   0  0  0  0  0  0  0  0  0  0  0  0
    5.7518   -2.7241    0.2020 H   0  0  0  0  0  0  0  0  0  0  0  0
    4.8917   -0.0028    0.8179 H   0  0  0  0  0  0  0  0  0  0  0  0
    4.8195   -0.1953   -0.9811 H   0  0  0  0  0  0  0  0  0  0  0  0
    6.8768    0.9801   -0.2716 H   0  0  0  0  0  0  0  0  0  0  0  0
    8.8520   -0.1404   -0.3261 H   0  0  0  0  0  0  0  0  0  0  0  0
    7.7577   -2.5728    0.8664 H   0  0  0  0  0  0  0  0  0  0  0  0
    7.5585   -2.6692   -0.9513 H   0  0  0  0  0  0  0  0  0  0  0  0
    9.2962   -4.1003   -0.2283 H   0  0  0  0  0  0  0  0  0  0  0  0
   11.4649   -3.6158   -0.4701 H   0  0  0  0  0  0  0  0  0  0  0  0
   10.8578   -0.6061   -0.2510 H   0  0  0  0  0  0  0  0  0  0  0  0
   12.0416   -1.2819   -1.3967 H   0  0  0  0  0  0  0  0  0  0  0  0
   12.3863   -0.6932    1.4918 H   0  0  0  0  0  0  0  0  0  0  0  0
   14.3819   -1.8536    1.6383 H   0  0  0  0  0  0  0  0  0  0  0  0
   15.3123   -2.5012   -0.5911 H   0  0  0  0  0  0  0  0  0  0  0  0
   13.7574   -3.2116   -1.1222 H   0  0  0  0  0  0  0  0  0  0  0  0
   14.0021   -5.0190    0.6314 H   0  0  0  0  0  0  0  0  0  0  0  0
   15.4225   -4.1597    1.3372 H   0  0  0  0  0  0  0  0  0  0  0  0
   15.4382   -5.3432   -1.5280 H   0  0  0  0  0  0  0  0  0  0  0  0
   16.7441   -4.4494   -0.7017 H   0  0  0  0  0  0  0  0  0  0  0  0
   17.8889   -8.9544   -1.7853 H   0  0  0  0  0  0  0  0  0  0  0  0
   17.1302   -9.3862    1.1644 H   0  0  0  0  0  0  0  0  0  0  0  0
   16.1613   -9.8535   -0.2460 H   0  0  0  0  0  0  0  0  0  0  0  0
   17.3240  -13.7613    0.9162 H   0  0  0  0  0  0  0  0  0  0  0  0
   17.0040  -14.2413   -0.7787 H   0  0  0  0  0  0  0  0  0  0  0  0
   19.4511  -13.8939   -1.3114 H   0  0  0  0  0  0  0  0  0  0  0  0
   19.7183  -13.6193    0.4339 H   0  0  0  0  0  0  0  0  0  0  0  0
   20.5418  -15.8667   -0.1711 H   0  0  0  0  0  0  0  0  0  0  0  0
   19.2737  -17.8349    0.0797 H   0  0  0  0  0  0  0  0  0  0  0  0
   15.2635  -15.9165    0.0012 H   0  0  0  0  0  0  0  0  0  0  0  0
   13.9156  -17.7433    0.0003 H   0  0  0  0  0  0  0  0  0  0  0  0
   14.5402  -19.7795    0.9098 H   0  0  0  0  0  0  0  0  0  0  0  0
   14.5401  -19.7794   -0.9105 H   0  0  0  0  0  0  0  0  0  0  0  0
   17.2565  -20.5197   -0.0002 H   0  0  0  0  0  0  0  0  0  0  0  0
   16.3924  -22.9573    0.0002 H   0  0  0  0  0  0  0  0  0  0  0  0
   12.1075  -21.2099   -0.0000 H   0  0  0  0  0  0  0  0  0  0  0  0
   11.2438  -23.6476    0.0000 H   0  0  0  0  0  0  0  0  0  0  0  0
   13.9604  -24.3878   -0.9100 H   0  0  0  0  0  0  0  0  0  0  0  0
   13.9603  -24.3878    0.9102 H   0  0  0  0  0  0  0  0  0  0  0  0
   14.5847  -26.4243    0.0001 H   0  0  0  0  0  0  0  0  0  0  0  0
   13.2350  -28.2517   -0.0000 H   0  0  0  0  0  0  0  0  0  0  0  0
    5.1698  -26.3739    0.6353 H   0  0  0  0  0  0  0  0  0  0  0  0
    5.1698  -28.1855    0.6356 H   0  0  0  0  0  0  0  0  0  0  0  0
    4.1800  -27.2798    0.0000 H   0  0  0  0  0  0  0  0  0  0  0  0
   19.1613   -7.5456    0.6507 H   0  0  0  0  0  0  0  0  0  0  0  0
   19.9185   -8.8589   -0.3214 H   0  0  0  0  0  0  0  0  0  0  0  0
   21.0822   -5.8913    0.8320 H   0  0  0  0  0  0  0  0  0  0  0  0
   21.9561   -7.3425    0.2549 H   0  0  0  0  0  0  0  0  0  0  0  0
   23.9248   -4.2379    0.8954 H   0  0  0  0  0  0  0  0  0  0  0  0
   23.9252   -4.2390   -0.8963 H   0  0  0  0  0  0  0  0  0  0  0  0
   25.9621   -4.5995    0.8963 H   0  0  0  0  0  0  0  0  0  0  0  0
   25.9625   -4.6001   -0.8958 H   0  0  0  0  0  0  0  0  0  0  0  0
   29.1295   -3.0882   -0.0000 H   0  0  0  0  0  0  0  0  0  0  0  0
   29.1292   -0.4997   -0.0000 H   0  0  0  0  0  0  0  0  0  0  0  0
   24.6554   -0.0887   -0.0000 H   0  0  0  0  0  0  0  0  0  0  0  0
   24.6554    2.5003   -0.0000 H   0  0  0  0  0  0  0  0  0  0  0  0
   29.1292    2.9113    0.0000 H   0  0  0  0  0  0  0  0  0  0  0  0
   29.1292    5.5005    0.0000 H   0  0  0  0  0  0  0  0  0  0  0  0
   24.6554    5.9113   -0.0000 H   0  0  0  0  0  0  0  0  0  0  0  0
   24.6551    8.4997   -0.0000 H   0  0  0  0  0  0  0  0  0  0  0  0
   27.9833   10.1463    0.8434 H   0  0  0  0  0  0  0  0  0  0  0  0
   28.0286   10.0664   -0.9121 H   0  0  0  0  0  0  0  0  0  0  0  0
   30.2210    8.9438    0.9678 H   0  0  0  0  0  0  0  0  0  0  0  0
   30.2622    8.8686   -0.8184 H   0  0  0  0  0  0  0  0  0  0  0  0
   30.2880   11.3679   -0.9113 H   0  0  0  0  0  0  0  0  0  0  0  0
   30.2970   11.4378    0.8751 H   0  0  0  0  0  0  0  0  0  0  0  0
   32.4689   11.2662   -0.9486 H   0  0  0  0  0  0  0  0  0  0  0  0
   31.6826   12.7372   -0.1449 H   0  0  0  0  0  0  0  0  0  0  0  0
   33.0152   12.2408    0.0000 H   0  0  0  0  0  0  0  0  0  0  0  0
  1  2  1  0  0  0  0
  1 74  1  0  0  0  0
  1 75  1  0  0  0  0
  1 76  1  0  0  0  0
  2  3  1  0  0  0  0
  2 77  1  0  0  0  0
  2 78  1  0  0  0  0
  3  4  2  0  0  0  0
  3 79  1  0  0  0  0
  4  5  1  0  0  0  0
  4 80  1  0  0  0  0
  5  6  1  0  0  0  0
  5 81  1  0  0  0  0
  5 82  1  0  0  0  0
  6  7  2  0  0  0  0
  6 83  1  0  0  0  0
  7  8  1  0  0  0  0
  7 84  1  0  0  0  0
  8  9  1  0  0  0  0
  8 85  1  0  0  0  0
  8 86  1  0  0  0  0
  9 10  2  0  0  0  0
  9 87  1  0  0  0  0
 10 11  1  0  0  0  0
 10 88  1  0  0  0  0
 11 12  1  0  0  0  0
 11 89  1  0  0  0  0
 11 90  1  0  0  0  0
 12 13  2  0  0  0  0
 12 91  1  0  0  0  0
 13 14  1  0  0  0  0
 13 92  1  0  0  0  0
 14 15  1  0  0  0  0
 14 93  1  0  0  0  0
 14 94  1  0  0  0  0
 15 16  2  0  0  0  0
 15 95  1  0  0  0  0
 16 17  1  0  0  0  0
 16 96  1  0  0  0  0
 17 18  1  0  0  0  0
 17 97  1  0  0  0  0
 17 98  1  0  0  0  0
 18 19  1  0  0  0  0
 18 99  1  0  0  0  0
 18100  1  0  0  0  0
 19 20  1  0  0  0  0
 19101  1  0  0  0  0
 19102  1  0  0  0  0
 20 21  2  0  0  0  0
 20 22  1  0  0  0  0
 22 23  1  0  0  0  0
 23 24  1  0  0  0  0
 23 49  1  0  0  0  0
 23103  1  6  0  0  0
 24 25  1  0  0  0  0
 24104  1  0  0  0  0
 24105  1  0  0  0  0
 25 26  1  0  0  0  0
 26 27  2  0  0  0  0
 26 28  1  0  0  0  0
 28 29  1  0  0  0  0
 28106  1  0  0  0  0
 28107  1  0  0  0  0
 29 30  1  0  0  0  0
 29108  1  0  0  0  0
 29109  1  0  0  0  0
 30 31  2  0  0  0  0
 30110  1  0  0  0  0
 31 32  1  0  0  0  0
 31111  1  0  0  0  0
 32 33  1  0  0  0  0
 33 34  2  0  0  0  0
 33112  1  0  0  0  0
 34 35  1  0  0  0  0
 34113  1  0  0  0  0
 35 36  1  0  0  0  0
 35114  1  0  0  0  0
 35115  1  0  0  0  0
 36 37  2  0  0  0  0
 36116  1  0  0  0  0
 37 38  1  0  0  0  0
 37117  1  0  0  0  0
 38 39  1  0  0  0  0
 39 40  2  0  0  0  0
 39118  1  0  0  0  0
 40 41  1  0  0  0  0
 40119  1  0  0  0  0
 41 42  1  0  0  0  0
 41120  1  0  0  0  0
 41121  1  0  0  0  0
 42 43  2  0  0  0  0
 42122  1  0  0  0  0
 43 44  1  0  0  0  0
 43123  1  0  0  0  0
 44 45  1  0  0  0  0
 45 46  1  0  0  0  0
 46 47  1  0  0  0  0
 47 48  1  0  0  0  0
 48124  1  0  0  0  0
 48125  1  0  0  0  0
 48126  1  0  0  0  0
 49 50  1  0  0  0  0
 49127  1  0  0  0  0
 49128  1  0  0  0  0
 50 51  1  0  0  0  0
 51 52  2  0  0  0  0
 51 53  1  0  0  0  0
 53 54  1  0  0  0  0
 53129  1  0  0  0  0
 53130  1  0  0  0  0
 54 55  1  0  0  0  0
 55 56  1  0  0  0  0
 55131  1  0  0  0  0
 55132  1  0  0  0  0
 56 57  1  0  0  0  0
 56133  1  0  0  0  0
 56134  1  0  0  0  0
 57 58  1  0  0  0  0
 58 59  2  0  0  0  0
 58135  1  0  0  0  0
 59 60  1  0  0  0  0
 59136  1  0  0  0  0
 60 61  1  0  0  0  0
 61 62  2  0  0  0  0
 61137  1  0  0  0  0
 62 63  1  0  0  0  0
 62138  1  0  0  0  0
 63 64  1  0  0  0  0
 64 65  2  0  0  0  0
 64139  1  0  0  0  0
 65 66  1  0  0  0  0
 65140  1  0  0  0  0
 66 67  1  0  0  0  0
 67 68  2  0  0  0  0
 67141  1  0  0  0  0
 68 69  1  0  0  0  0
 68142  1  0  0  0  0
 69 70  1  0  0  0  0
 70 71  1  0  0  0  0
 70143  1  0  0  0  0
 70144  1  0  0  0  0
 71 72  1  0  0  0  0
 71145  1  0  0  0  0
 71146  1  0  0  0  0
 72 73  1  0  0  0  0
 72147  1  0  0  0  0
 72148  1  0  0  0  0
 73149  1  0  0  0  0
 73150  1  0  0  0  0
 73151  1  0  0  0  0
M  END
>  <IDENTIFIER>
CNP0603550.1

>  <Energy>
6286.54

$$$$
