
 OpenBabel09072506112D

175174  0  0  0  0  0  0  0  0999 V2000
   14.2500    1.2990    0.0000 C   0  0  0  0  0  0  0  0  0  0  0  0
   12.7500    1.2990    0.0000 C   0  0  0  0  0  2  0  0  0  0  0  0
   11.2500    1.2990    0.0000 C   0  0  0  0  0  2  0  0  0  0  0  0
    9.7500    1.2990    0.0000 C   0  0  0  0  0  2  0  0  0  0  0  0
    8.2500    1.2990    0.0000 C   0  0  0  0  0  2  0  0  0  0  0  0
    6.7500    1.2990    0.0000 C   0  0  0  0  0  2  0  0  0  0  0  0
    5.2500    1.2990    0.0000 C   0  0  0  0  0  2  0  0  0  0  0  0
    3.7500    1.2990    0.0000 C   0  0  0  0  0  2  0  0  0  0  0  0
    2.2500    1.2990    0.0000 C   0  0  0  0  0  0  0  0  0  0  0  0
    1.9717   -0.1069   -0.0155 C   0  0  0  0  0  0  0  0  0  0  0  0
    3.1702   -1.2468   -0.0502 C   0  0  0  0  0  0  0  0  0  0  0  0
    3.1289   -2.8444   -0.0342 C   0  0  0  0  0  0  0  0  0  0  0  0
    4.5883   -3.6002   -0.0912 C   0  0  0  0  0  0  0  0  0  0  0  0
    4.5000   -5.1962    0.0000 C   0  0  0  0  0  0  0  0  0  0  0  0
    5.2500   -6.4952    0.0000 C   0  0  0  0  0  0  0  0  0  0  0  0
    6.0000   -7.7942    0.0000 C   0  0  0  0  0  0  0  0  0  0  0  0
    6.7500   -9.0933    0.0000 C   0  0  0  0  0  0  0  0  0  0  0  0
    7.5000  -10.3923    0.0000 C   0  0  0  0  0  0  0  0  0  0  0  0
    8.2500  -11.6913    0.0000 C   0  0  0  0  0  0  0  0  0  0  0  0
    8.5673  -13.3394    0.0722 C   0  0  0  0  0  0  0  0  0  0  0  0
   10.1510  -13.9455   -0.0667 C   0  0  0  0  0  0  0  0  0  0  0  0
   10.5000  -15.5885    0.0000 C   0  0  0  0  0  0  0  0  0  0  0  0
   11.2500  -16.8875    0.0000 C   0  0  0  0  0  2  0  0  0  0  0  0
   12.0000  -18.1865    0.0000 C   0  0  0  0  0  0  0  0  0  0  0  0
   13.2207  -18.1772   -0.0001 O   0  0  0  0  0  0  0  0  0  0  0  0
   11.2500  -19.4856    0.0000 O   0  0  0  0  0  0  0  0  0  0  0  0
   12.0000  -20.7846    0.0000 C   0  0  0  0  0  2  0  0  0  0  0  0
   12.7500  -22.0836    0.0000 C   0  0  1  0  0  0  0  0  0  0  0  0
   11.4510  -22.8336    0.0000 C   0  0  0  0  0  0  0  0  0  0  0  0
   10.1543  -22.7922    0.6621 O   0  0  0  0  0  0  0  0  0  0  0  0
    8.9393  -22.6977   -0.0775 C   0  0  0  0  0  0  0  0  0  0  0  0
    8.9613  -21.8889   -1.0015 O   0  0  0  0  0  0  0  0  0  0  0  0
    7.5538  -23.5836    0.0000 C   0  0  0  0  0  0  0  0  0  0  0  0
    6.2548  -24.3336    0.0000 C   0  0  0  0  0  0  0  0  0  0  0  0
    4.9558  -25.0836    0.0000 C   0  0  0  0  0  0  0  0  0  0  0  0
    3.2897  -24.9666   -0.1935 C   0  0  0  0  0  0  0  0  0  0  0  0
    2.0663  -26.1390    0.1395 C   0  0  0  0  0  2  0  0  0  0  0  0
    1.1377  -27.3474   -0.6285 C   0  0  0  0  0  0  0  0  0  0  0  0
   -0.3360  -27.9684   -0.0206 C   0  0  0  0  0  0  0  0  0  0  0  0
   -1.3554  -29.1624   -0.7164 C   0  0  0  0  0  0  0  0  0  0  0  0
   -2.8385  -29.5836    0.0000 C   0  0  0  0  0  0  0  0  0  0  0  0
   -4.1375  -30.3336    0.0000 C   0  0  0  0  0  0  0  0  0  0  0  0
   -5.4365  -31.0836    0.0000 C   0  0  0  0  0  0  0  0  0  0  0  0
   -6.7343  -31.8831    0.0785 C   0  0  0  0  0  0  0  0  0  0  0  0
   -6.7301  -33.2659    0.0890 C   0  0  0  0  0  0  0  0  0  0  0  0
   -5.4365  -34.0836    0.0000 C   0  0  0  0  0  0  0  0  0  0  0  0
   -4.1375  -34.8336    0.0000 C   0  0  0  0  0  0  0  0  0  0  0  0
   -2.8385  -35.5836    0.0000 C   0  0  0  0  0  0  0  0  0  0  0  0
   -1.5545  -35.2992    0.7971 C   0  0  0  0  0  0  0  0  0  0  0  0
   -0.5742  -36.4277    0.3476 C   0  0  0  0  0  0  0  0  0  0  0  0
    0.8801  -36.3703    0.7985 C   0  0  0  0  0  0  0  0  0  0  0  0
    1.5482  -37.6277    0.2192 C   0  0  0  0  0  2  0  0  0  0  0  0
    3.0514  -37.6996    0.4000 C   0  0  0  0  0  0  0  0  0  0  0  0
   14.0490  -21.3336    0.0000 O   0  0  0  0  0  0  0  0  0  0  0  0
   15.4259  -21.5033   -0.0023 C   0  0  0  0  0  0  0  0  0  0  0  0
   15.8886  -22.6331   -0.0054 O   0  0  0  0  0  0  0  0  0  0  0  0
   16.4005  -20.2366    0.0006 C   0  0  0  0  0  0  0  0  0  0  0  0
   17.9462  -20.5836    0.0000 C   0  0  0  0  0  0  0  0  0  0  0  0
   19.2452  -19.8336    0.0000 C   0  0  0  0  0  2  0  0  0  0  0  0
   20.5442  -19.0836    0.0000 C   0  0  0  0  0  0  0  0  0  0  0  0
   21.8433  -18.3336    0.0000 C   0  0  0  0  0  0  0  0  0  0  0  0
   23.1423  -17.5836    0.0000 C   0  0  0  0  0  2  0  0  0  0  0  0
   24.4413  -16.8336    0.0000 C   0  0  0  0  0  0  0  0  0  0  0  0
   26.0886  -16.5030    0.0116 C   0  0  0  0  0  0  0  0  0  0  0  0
   26.6912  -14.9142   -0.0116 C   0  0  0  0  0  0  0  0  0  0  0  0
   28.3385  -14.5836    0.0000 C   0  0  0  0  0  0  0  0  0  0  0  0
   29.6375  -13.8336    0.0000 C   0  0  0  0  0  2  0  0  0  0  0  0
   30.9365  -13.0836    0.0000 C   0  0  0  0  0  0  0  0  0  0  0  0
   32.2356  -12.3336    0.0000 C   0  0  0  0  0  0  0  0  0  0  0  0
   33.5346  -11.5836    0.0000 C   0  0  0  0  0  2  0  0  0  0  0  0
   34.8336  -10.8336    0.0000 C   0  0  0  0  0  0  0  0  0  0  0  0
   36.4709  -10.4746    0.1291 C   0  0  0  0  0  0  0  0  0  0  0  0
   37.1008   -8.9311   -0.2132 C   0  0  0  0  0  0  0  0  0  0  0  0
   38.7308   -8.5836    0.0000 C   0  0  0  0  0  0  0  0  0  0  0  0
   40.0298   -7.8336    0.0000 C   0  0  0  0  0  0  0  0  0  0  0  0
   14.3302    0.3931    0.6354 H   0  0  0  0  0  0  0  0  0  0  0  0
   14.3302    2.2048    0.6355 H   0  0  0  0  0  0  0  0  0  0  0  0
   15.3200    1.2990    0.0000 H   0  0  0  0  0  0  0  0  0  0  0  0
    1.5471    2.1244    0.0241 H   0  0  0  0  0  0  0  0  0  0  0  0
    0.9394   -0.4390   -0.0039 H   0  0  0  0  0  0  0  0  0  0  0  0
    3.7537   -1.0306   -0.9719 H   0  0  0  0  0  0  0  0  0  0  0  0
    3.8050   -1.0364    0.8382 H   0  0  0  0  0  0  0  0  0  0  0  0
    2.5223   -3.1866   -0.8991 H   0  0  0  0  0  0  0  0  0  0  0  0
    2.6082   -3.1560    0.8960 H   0  0  0  0  0  0  0  0  0  0  0  0
    5.2119   -3.2398    0.7541 H   0  0  0  0  0  0  0  0  0  0  0  0
    5.0941   -3.3232   -1.0402 H   0  0  0  0  0  0  0  0  0  0  0  0
    3.7428   -5.3878   -0.7996 H   0  0  0  0  0  0  0  0  0  0  0  0
    3.8959   -5.2993    0.9364 H   0  0  0  0  0  0  0  0  0  0  0  0
    5.8678   -5.9678    0.7968 H   0  0  0  0  0  0  0  0  0  0  0  0
    5.6233   -6.2658   -1.0332 H   0  0  0  0  0  0  0  0  0  0  0  0
    5.6879   -7.9530    1.0778 H   0  0  0  0  0  0  0  0  0  0  0  0
    7.0322   -7.3056    0.0227 H   0  0  0  0  0  0  0  0  0  0  0  0
    5.7155   -9.5789   -0.0203 H   0  0  0  0  0  0  0  0  0  0  0  0
    7.0602   -8.9369   -1.0779 H   0  0  0  0  0  0  0  0  0  0  0  0
    6.8644  -10.9276   -0.7796 H   0  0  0  0  0  0  0  0  0  0  0  0
    7.1289  -10.6127    1.0373 H   0  0  0  0  0  0  0  0  0  0  0  0
    8.8157  -11.5334   -0.9543 H   0  0  0  0  0  0  0  0  0  0  0  0
    9.0056  -11.4243    0.7802 H   0  0  0  0  0  0  0  0  0  0  0  0
    8.1674  -13.7025    1.0423 H   0  0  0  0  0  0  0  0  0  0  0  0
    7.9682  -13.8180   -0.7307 H   0  0  0  0  0  0  0  0  0  0  0  0
   10.7467  -13.4621    0.7360 H   0  0  0  0  0  0  0  0  0  0  0  0
   10.5477  -13.5765   -1.0358 H   0  0  0  0  0  0  0  0  0  0  0  0
    9.7837  -15.8889   -0.7930 H   0  0  0  0  0  0  0  0  0  0  0  0
    9.9802  -15.7758    0.9628 H   0  0  0  0  0  0  0  0  0  0  0  0
   13.0424  -22.5045   -0.9941 H   0  0  0  0  0  0  0  0  0  0  0  0
   11.8051  -23.8670    0.2158 H   0  0  0  0  0  0  0  0  0  0  0  0
   11.1480  -22.9309   -1.0845 H   0  0  0  0  0  0  0  0  0  0  0  0
    7.7727  -23.9664   -1.0303 H   0  0  0  0  0  0  0  0  0  0  0  0
    7.0005  -22.6093   -0.0950 H   0  0  0  0  0  0  0  0  0  0  0  0
    6.8435  -25.2567    0.2691 H   0  0  0  0  0  0  0  0  0  0  0  0
    5.9323  -23.8589    0.9708 H   0  0  0  0  0  0  0  0  0  0  0  0
    5.1409  -25.8573   -0.7833 H   0  0  0  0  0  0  0  0  0  0  0  0
    4.9439  -25.6670    0.9632 H   0  0  0  0  0  0  0  0  0  0  0  0
    3.0348  -24.1706    0.5386 H   0  0  0  0  0  0  0  0  0  0  0  0
    3.0771  -24.5244   -1.1878 H   0  0  0  0  0  0  0  0  0  0  0  0
    0.9017  -26.9522   -1.6372 H   0  0  0  0  0  0  0  0  0  0  0  0
    1.8194  -28.2110   -0.7746 H   0  0  0  0  0  0  0  0  0  0  0  0
   -0.1093  -28.3322    1.0032 H   0  0  0  0  0  0  0  0  0  0  0  0
   -0.9847  -27.0750    0.0951 H   0  0  0  0  0  0  0  0  0  0  0  0
   -1.5903  -28.8068   -1.7410 H   0  0  0  0  0  0  0  0  0  0  0  0
   -0.7584  -30.0932   -0.8183 H   0  0  0  0  0  0  0  0  0  0  0  0
   -2.4310  -29.8946    0.9915 H   0  0  0  0  0  0  0  0  0  0  0  0
   -3.1455  -28.5025    0.1075 H   0  0  0  0  0  0  0  0  0  0  0  0
   -4.4125  -29.7773   -0.9404 H   0  0  0  0  0  0  0  0  0  0  0  0
   -4.5253  -29.7115    0.8690 H   0  0  0  0  0  0  0  0  0  0  0  0
   -5.1545  -31.6071   -0.9407 H   0  0  0  0  0  0  0  0  0  0  0  0
   -5.1242  -31.5574    0.9581 H   0  0  0  0  0  0  0  0  0  0  0  0
   -7.6775  -31.3525    0.1328 H   0  0  0  0  0  0  0  0  0  0  0  0
   -7.6757  -33.7969    0.1638 H   0  0  0  0  0  0  0  0  0  0  0  0
   -5.0664  -33.5288    0.8836 H   0  0  0  0  0  0  0  0  0  0  0  0
   -5.2071  -33.6494   -1.0009 H   0  0  0  0  0  0  0  0  0  0  0  0
   -4.5633  -35.5345   -0.7752 H   0  0  0  0  0  0  0  0  0  0  0  0
   -4.3559  -35.3207    0.9979 H   0  0  0  0  0  0  0  0  0  0  0  0
   -2.4958  -35.4780   -1.0603 H   0  0  0  0  0  0  0  0  0  0  0  0
   -3.0651  -36.6791    0.1427 H   0  0  0  0  0  0  0  0  0  0  0  0
   -1.7248  -35.3489    1.8927 H   0  0  0  0  0  0  0  0  0  0  0  0
   -1.1609  -34.2972    0.5198 H   0  0  0  0  0  0  0  0  0  0  0  0
   -0.9978  -37.4000    0.6916 H   0  0  0  0  0  0  0  0  0  0  0  0
   -0.5354  -36.4463   -0.7673 H   0  0  0  0  0  0  0  0  0  0  0  0
    1.3609  -35.4573    0.3854 H   0  0  0  0  0  0  0  0  0  0  0  0
    0.9540  -36.3746    1.9052 H   0  0  0  0  0  0  0  0  0  0  0  0
    3.4046  -38.6660   -0.0208 H   0  0  0  0  0  0  0  0  0  0  0  0
    3.5400  -36.8739   -0.1565 H   0  0  0  0  0  0  0  0  0  0  0  0
    3.3149  -37.6583    1.4754 H   0  0  0  0  0  0  0  0  0  0  0  0
   16.1793  -19.6279    0.9023 H   0  0  0  0  0  0  0  0  0  0  0  0
   16.1790  -19.6236   -0.8982 H   0  0  0  0  0  0  0  0  0  0  0  0
   18.0647  -21.2460   -0.8835 H   0  0  0  0  0  0  0  0  0  0  0  0
   18.0654  -21.2489    0.8812 H   0  0  0  0  0  0  0  0  0  0  0  0
   20.1750  -18.5280    0.8959 H   0  0  0  0  0  0  0  0  0  0  0  0
   20.1750  -18.5280   -0.8959 H   0  0  0  0  0  0  0  0  0  0  0  0
   22.2124  -18.8892   -0.8960 H   0  0  0  0  0  0  0  0  0  0  0  0
   22.2124  -18.8892    0.8960 H   0  0  0  0  0  0  0  0  0  0  0  0
   24.1876  -16.1931    0.8703 H   0  0  0  0  0  0  0  0  0  0  0  0
   24.2067  -16.2261   -0.8989 H   0  0  0  0  0  0  0  0  0  0  0  0
   26.5246  -17.0219   -0.8678 H   0  0  0  0  0  0  0  0  0  0  0  0
   26.5053  -16.9885    0.9190 H   0  0  0  0  0  0  0  0  0  0  0  0
   26.2745  -14.4287   -0.9190 H   0  0  0  0  0  0  0  0  0  0  0  0
   26.2552  -14.3953    0.8678 H   0  0  0  0  0  0  0  0  0  0  0  0
   28.5731  -15.1911    0.8989 H   0  0  0  0  0  0  0  0  0  0  0  0
   28.5922  -15.2241   -0.8703 H   0  0  0  0  0  0  0  0  0  0  0  0
   30.5674  -12.5279   -0.8959 H   0  0  0  0  0  0  0  0  0  0  0  0
   30.5674  -12.5280    0.8960 H   0  0  0  0  0  0  0  0  0  0  0  0
   32.6047  -12.8892   -0.8960 H   0  0  0  0  0  0  0  0  0  0  0  0
   32.6047  -12.8893    0.8959 H   0  0  0  0  0  0  0  0  0  0  0  0
   34.4839  -10.0246    0.6748 H   0  0  0  0  0  0  0  0  0  0  0  0
   34.7144  -10.4394   -1.0307 H   0  0  0  0  0  0  0  0  0  0  0  0
   37.0061  -11.1820   -0.5389 H   0  0  0  0  0  0  0  0  0  0  0  0
   36.7660  -10.7215    1.1703 H   0  0  0  0  0  0  0  0  0  0  0  0
   36.8475   -8.7056   -1.2701 H   0  0  0  0  0  0  0  0  0  0  0  0
   36.5403   -8.2097    0.4191 H   0  0  0  0  0  0  0  0  0  0  0  0
   38.7153   -8.9120    1.0710 H   0  0  0  0  0  0  0  0  0  0  0  0
   39.0810   -9.4521   -0.6047 H   0  0  0  0  0  0  0  0  0  0  0  0
   40.6831   -8.6013    0.4883 H   0  0  0  0  0  0  0  0  0  0  0  0
   39.7055   -7.0388    0.7091 H   0  0  0  0  0  0  0  0  0  0  0  0
   40.9564   -7.2986    0.0000 H   0  0  0  0  0  0  0  0  0  0  0  0
  1  2  1  0  0  0  0
  1 76  1  0  0  0  0
  1 77  1  0  0  0  0
  1 78  1  0  0  0  0
  2  3  1  0  0  0  0
  3  4  1  0  0  0  0
  4  5  1  0  0  0  0
  5  6  1  0  0  0  0
  6  7  1  0  0  0  0
  7  8  1  0  0  0  0
  8  9  1  0  0  0  0
  9 10  2  0  0  0  0
  9 79  1  0  0  0  0
 10 11  1  0  0  0  0
 10 80  1  0  0  0  0
 11 12  1  0  0  0  0
 11 81  1  0  0  0  0
 11 82  1  0  0  0  0
 12 13  1  0  0  0  0
 12 83  1  0  0  0  0
 12 84  1  0  0  0  0
 13 14  1  0  0  0  0
 13 85  1  0  0  0  0
 13 86  1  0  0  0  0
 14 15  1  0  0  0  0
 14 87  1  0  0  0  0
 14 88  1  0  0  0  0
 15 16  1  0  0  0  0
 15 89  1  0  0  0  0
 15 90  1  0  0  0  0
 16 17  1  0  0  0  0
 16 91  1  0  0  0  0
 16 92  1  0  0  0  0
 17 18  1  0  0  0  0
 17 93  1  0  0  0  0
 17 94  1  0  0  0  0
 18 19  1  0  0  0  0
 18 95  1  0  0  0  0
 18 96  1  0  0  0  0
 19 20  1  0  0  0  0
 19 97  1  0  0  0  0
 19 98  1  0  0  0  0
 20 21  1  0  0  0  0
 20 99  1  0  0  0  0
 20100  1  0  0  0  0
 21 22  1  0  0  0  0
 21101  1  0  0  0  0
 21102  1  0  0  0  0
 22 23  1  0  0  0  0
 22103  1  0  0  0  0
 22104  1  0  0  0  0
 23 24  1  0  0  0  0
 24 25  2  0  0  0  0
 24 26  1  0  0  0  0
 26 27  1  0  0  0  0
 28 27  1  0  0  0  0
 28 29  1  0  0  0  0
 28 54  1  0  0  0  0
 28105  1  1  0  0  0
 29 30  1  0  0  0  0
 29106  1  0  0  0  0
 29107  1  0  0  0  0
 30 31  1  0  0  0  0
 31 32  2  0  0  0  0
 31 33  1  0  0  0  0
 33 34  1  0  0  0  0
 33108  1  0  0  0  0
 33109  1  0  0  0  0
 34 35  1  0  0  0  0
 34110  1  0  0  0  0
 34111  1  0  0  0  0
 35 36  1  0  0  0  0
 35112  1  0  0  0  0
 35113  1  0  0  0  0
 36 37  1  0  0  0  0
 36114  1  0  0  0  0
 36115  1  0  0  0  0
 37 38  1  0  0  0  0
 38 39  1  0  0  0  0
 38116  1  0  0  0  0
 38117  1  0  0  0  0
 39 40  1  0  0  0  0
 39118  1  0  0  0  0
 39119  1  0  0  0  0
 40 41  1  0  0  0  0
 40120  1  0  0  0  0
 40121  1  0  0  0  0
 41 42  1  0  0  0  0
 41122  1  0  0  0  0
 41123  1  0  0  0  0
 42 43  1  0  0  0  0
 42124  1  0  0  0  0
 42125  1  0  0  0  0
 43 44  1  0  0  0  0
 43126  1  0  0  0  0
 43127  1  0  0  0  0
 44 45  2  0  0  0  0
 44128  1  0  0  0  0
 45 46  1  0  0  0  0
 45129  1  0  0  0  0
 46 47  1  0  0  0  0
 46130  1  0  0  0  0
 46131  1  0  0  0  0
 47 48  1  0  0  0  0
 47132  1  0  0  0  0
 47133  1  0  0  0  0
 48 49  1  0  0  0  0
 48134  1  0  0  0  0
 48135  1  0  0  0  0
 49 50  1  0  0  0  0
 49136  1  0  0  0  0
 49137  1  0  0  0  0
 50 51  1  0  0  0  0
 50138  1  0  0  0  0
 50139  1  0  0  0  0
 51 52  1  0  0  0  0
 51140  1  0  0  0  0
 51141  1  0  0  0  0
 52 53  1  0  0  0  0
 53142  1  0  0  0  0
 53143  1  0  0  0  0
 53144  1  0  0  0  0
 54 55  1  0  0  0  0
 55 56  2  0  0  0  0
 55 57  1  0  0  0  0
 57 58  1  0  0  0  0
 57145  1  0  0  0  0
 57146  1  0  0  0  0
 58 59  1  0  0  0  0
 58147  1  0  0  0  0
 58148  1  0  0  0  0
 59 60  1  0  0  0  0
 60 61  1  0  0  0  0
 60149  1  0  0  0  0
 60150  1  0  0  0  0
 61 62  1  0  0  0  0
 61151  1  0  0  0  0
 61152  1  0  0  0  0
 62 63  1  0  0  0  0
 63 64  1  0  0  0  0
 63153  1  0  0  0  0
 63154  1  0  0  0  0
 64 65  1  0  0  0  0
 64155  1  0  0  0  0
 64156  1  0  0  0  0
 65 66  1  0  0  0  0
 65157  1  0  0  0  0
 65158  1  0  0  0  0
 66 67  1  0  0  0  0
 66159  1  0  0  0  0
 66160  1  0  0  0  0
 67 68  1  0  0  0  0
 68 69  1  0  0  0  0
 68161  1  0  0  0  0
 68162  1  0  0  0  0
 69 70  1  0  0  0  0
 69163  1  0  0  0  0
 69164  1  0  0  0  0
 70 71  1  0  0  0  0
 71 72  1  0  0  0  0
 71165  1  0  0  0  0
 71166  1  0  0  0  0
 72 73  1  0  0  0  0
 72167  1  0  0  0  0
 72168  1  0  0  0  0
 73 74  1  0  0  0  0
 73169  1  0  0  0  0
 73170  1  0  0  0  0
 74 75  1  0  0  0  0
 74171  1  0  0  0  0
 74172  1  0  0  0  0
 75173  1  0  0  0  0
 75174  1  0  0  0  0
 75175  1  0  0  0  0
M  END
>  <IDENTIFIER>
CNP0565232.1

>  <Energy>
14386.5

$$$$
