
 OpenBabel09082521033D

 53 55  0  0  0  0  0  0  0  0999 V2000
    0.5620    4.7525    0.4805 C   0  0  0  0  0  0  0  0  0  0  0  0
    0.6382    3.3543    0.3110 O   0  0  0  0  0  0  0  0  0  0  0  0
    0.1207    3.0055   -0.9483 C   0  0  0  0  0  0  0  0  0  0  0  0
    0.0121    1.5102   -1.2302 C   0  0  0  0  0  0  0  0  0  0  0  0
   -0.5657    1.2546   -2.2797 O   0  0  0  0  0  0  0  0  0  0  0  0
    0.4628    0.4468   -0.4554 N   0  0  0  0  0  0  0  0  0  0  0  0
    1.2749    0.5501    0.7612 C   0  0  0  0  0  0  0  0  0  0  0  0
    2.5659   -0.2698    0.5752 C   0  0  0  0  0  0  0  0  0  0  0  0
    2.2974   -1.6116    0.0516 N   0  0  0  0  0  0  0  0  0  0  0  0
    3.2881   -2.4584   -0.4197 C   0  0  0  0  0  0  0  0  0  0  0  0
    2.9484   -3.4979   -0.9705 O   0  0  0  0  0  0  0  0  0  0  0  0
    4.7782   -2.1962   -0.3869 C   0  0  0  0  0  0  0  0  0  0  0  0
    5.4553   -1.3920    0.5542 C   0  0  0  0  0  0  0  0  0  0  0  0
    6.8035   -1.2440    0.4959 N   0  0  0  0  0  0  0  0  0  0  0  0
    7.5381   -1.8551   -0.4625 C   0  0  0  0  0  0  0  0  0  0  0  0
    6.9291   -2.6458   -1.3767 N   0  0  0  0  0  0  0  0  0  0  0  0
    5.5852   -2.8325   -1.3543 C   0  0  0  0  0  0  0  0  0  0  0  0
    0.8866   -1.9894   -0.0707 C   0  0  0  0  0  0  0  0  0  0  0  0
    0.1499   -0.9244   -0.9107 C   0  0  1  0  0  0  0  0  0  0  0  0
   -1.3452   -1.2260   -0.8798 C   0  0  0  0  0  0  0  0  0  0  0  0
   -1.7400   -2.2512   -1.4173 O   0  0  0  0  0  0  0  0  0  0  0  0
   -2.2288   -0.4000   -0.2417 N   0  0  0  0  0  0  0  0  0  0  0  0
   -3.6627   -0.6353   -0.1903 C   0  0  1  0  0  0  0  0  0  0  0  0
   -4.0656   -0.8622    1.2788 C   0  0  0  0  0  0  0  0  0  0  0  0
   -5.5741   -0.7760    1.4100 C   0  0  0  0  0  0  0  0  0  0  0  0
   -6.0213    0.6557    1.0784 C   0  0  0  0  0  0  0  0  0  0  0  0
   -5.4442    1.1455   -0.1636 N   0  0  0  0  0  0  0  0  0  0  0  0
   -4.3946    0.5477   -0.7964 C   0  0  0  0  0  0  0  0  0  0  0  0
   -4.0333    0.9710   -1.8847 O   0  0  0  0  0  0  0  0  0  0  0  0
    1.0392    5.0135    1.4468 H   0  0  0  0  0  0  0  0  0  0  0  0
   -0.4962    5.0926    0.5341 H   0  0  0  0  0  0  0  0  0  0  0  0
    1.1227    5.2931   -0.3147 H   0  0  0  0  0  0  0  0  0  0  0  0
    0.7400    3.4517   -1.7598 H   0  0  0  0  0  0  0  0  0  0  0  0
   -0.9226    3.3939   -1.0257 H   0  0  0  0  0  0  0  0  0  0  0  0
    0.6902    0.1317    1.6092 H   0  0  0  0  0  0  0  0  0  0  0  0
    1.5820    1.5530    1.0602 H   0  0  0  0  0  0  0  0  0  0  0  0
    3.0452   -0.3124    1.5674 H   0  0  0  0  0  0  0  0  0  0  0  0
    3.1958    0.2765   -0.1626 H   0  0  0  0  0  0  0  0  0  0  0  0
    4.9647   -0.9097    1.3672 H   0  0  0  0  0  0  0  0  0  0  0  0
    8.6103   -1.7190   -0.4910 H   0  0  0  0  0  0  0  0  0  0  0  0
    5.1450   -3.4691   -2.1110 H   0  0  0  0  0  0  0  0  0  0  0  0
    0.4491   -2.0331    0.9516 H   0  0  0  0  0  0  0  0  0  0  0  0
    0.7291   -2.9945   -0.5171 H   0  0  0  0  0  0  0  0  0  0  0  0
    0.5230   -1.0161   -1.9564 H   0  0  0  0  0  0  0  0  0  0  0  0
   -1.8830    0.4342    0.2535 H   0  0  0  0  0  0  0  0  0  0  0  0
   -3.9484   -1.5271   -0.7905 H   0  0  0  0  0  0  0  0  0  0  0  0
   -3.6200   -0.0826    1.9374 H   0  0  0  0  0  0  0  0  0  0  0  0
   -3.6874   -1.8532    1.6111 H   0  0  0  0  0  0  0  0  0  0  0  0
   -5.9046   -1.0326    2.4393 H   0  0  0  0  0  0  0  0  0  0  0  0
   -6.0361   -1.4997    0.7021 H   0  0  0  0  0  0  0  0  0  0  0  0
   -5.7419    1.3602    1.8916 H   0  0  0  0  0  0  0  0  0  0  0  0
   -7.1293    0.6424    0.9981 H   0  0  0  0  0  0  0  0  0  0  0  0
   -5.8546    1.9966   -0.5773 H   0  0  0  0  0  0  0  0  0  0  0  0
  1  2  1  0  0  0  0
  1 30  1  0  0  0  0
  1 31  1  0  0  0  0
  1 32  1  0  0  0  0
  2  3  1  0  0  0  0
  3  4  1  0  0  0  0
  3 33  1  0  0  0  0
  3 34  1  0  0  0  0
  4  5  2  0  0  0  0
  4  6  1  0  0  0  0
  6  7  1  0  0  0  0
  7  8  1  0  0  0  0
  7 35  1  0  0  0  0
  7 36  1  0  0  0  0
  8  9  1  0  0  0  0
  8 37  1  0  0  0  0
  8 38  1  0  0  0  0
  9 10  1  0  0  0  0
  9 18  1  0  0  0  0
 10 11  2  0  0  0  0
 10 12  1  0  0  0  0
 12 13  2  0  0  0  0
 13 14  1  0  0  0  0
 13 39  1  0  0  0  0
 14 15  2  0  0  0  0
 15 16  1  0  0  0  0
 15 40  1  0  0  0  0
 16 17  2  0  0  0  0
 17 12  1  0  0  0  0
 17 41  1  0  0  0  0
 18 19  1  0  0  0  0
 18 42  1  0  0  0  0
 18 43  1  0  0  0  0
 19 20  1  0  0  0  0
 19  6  1  0  0  0  0
 19 44  1  6  0  0  0
 20 21  2  0  0  0  0
 20 22  1  0  0  0  0
 22 45  1  0  0  0  0
 23 22  1  0  0  0  0
 23 24  1  0  0  0  0
 23 46  1  6  0  0  0
 24 25  1  0  0  0  0
 24 47  1  0  0  0  0
 24 48  1  0  0  0  0
 25 26  1  0  0  0  0
 25 49  1  0  0  0  0
 25 50  1  0  0  0  0
 26 27  1  0  0  0  0
 26 51  1  0  0  0  0
 26 52  1  0  0  0  0
 27 28  1  0  0  0  0
 27 53  1  0  0  0  0
 28 29  2  0  0  0  0
 28 23  1  0  0  0  0
M  END
>  <IDENTIFIER>
CNP0023985.1

>  <Energy>
483.261

$$$$
