
 OpenBabel09052501193D

 60 62  0  0  0  0  0  0  0  0999 V2000
    7.6265   -2.2346   -0.5824 C   0  0  0  0  0  0  0  0  0  0  0  0
    6.5981   -1.4779   -1.1076 O   0  0  0  0  0  0  0  0  0  0  0  0
    5.3927   -1.2599   -0.5196 C   0  0  0  0  0  0  0  0  0  0  0  0
    4.4607   -0.4589   -1.1898 C   0  0  0  0  0  0  0  0  0  0  0  0
    3.2062   -0.2000   -0.6276 C   0  0  0  0  0  0  0  0  0  0  0  0
    2.8590   -0.7392    0.6253 C   0  0  0  0  0  0  0  0  0  0  0  0
    1.5302   -0.4548    1.2246 C   0  0  0  0  0  0  0  0  0  0  0  0
    1.2438   -0.9069    2.3255 O   0  0  0  0  0  0  0  0  0  0  0  0
    0.6414    0.3216    0.5457 O   0  0  0  0  0  0  0  0  0  0  0  0
   -0.5923    0.7597    0.9975 C   0  0  1  0  0  0  0  0  0  0  0  0
   -0.4714    2.2614    1.2373 C   0  0  0  0  0  0  0  0  0  0  0  0
   -0.6528    3.2571    0.3365 C   0  0  0  0  0  0  0  0  0  0  0  0
   -0.4629    4.6908    0.7765 C   0  0  0  0  0  0  0  0  0  0  0  0
   -1.0579    2.9523   -1.0871 C   0  0  2  0  0  0  0  0  0  0  0  0
   -0.8953    4.0653   -1.9336 O   0  0  0  0  0  0  0  0  0  0  0  0
   -2.5047    2.3923   -1.2214 C   0  0  0  0  0  0  0  0  0  0  0  0
   -2.9049    1.2670   -0.2104 C   0  0  1  0  0  0  0  0  0  0  0  0
   -3.5001    1.9016    1.0937 C   0  0  0  0  0  0  0  0  0  0  0  0
   -3.9550    0.3404   -0.8473 C   0  0  0  0  0  0  0  0  0  0  0  0
   -3.9269   -0.8747    0.0568 C   0  0  0  0  0  0  0  0  0  0  0  0
   -2.4086   -1.1467    0.3168 C   0  0  1  0  0  0  0  0  0  0  0  0
   -2.2142   -1.5230    1.6632 O   0  0  0  0  0  0  0  0  0  0  0  0
   -1.8744   -2.2831   -0.6455 C   0  0  0  0  0  0  0  0  0  0  0  0
   -0.3597   -2.5010   -0.5325 C   0  0  0  0  0  0  0  0  0  0  0  0
   -2.5553   -3.6513   -0.4016 C   0  0  0  0  0  0  0  0  0  0  0  0
   -1.7399    0.2706    0.0301 C   0  0  2  0  0  0  0  0  0  0  0  0
    3.7949   -1.5454    1.2964 C   0  0  0  0  0  0  0  0  0  0  0  0
    5.0481   -1.8049    0.7328 C   0  0  0  0  0  0  0  0  0  0  0  0
    8.4817   -2.2258   -1.2889 H   0  0  0  0  0  0  0  0  0  0  0  0
    7.2961   -3.2857   -0.4401 H   0  0  0  0  0  0  0  0  0  0  0  0
    7.9634   -1.8060    0.3854 H   0  0  0  0  0  0  0  0  0  0  0  0
    4.7117   -0.0320   -2.1533 H   0  0  0  0  0  0  0  0  0  0  0  0
    2.5111    0.4263   -1.1729 H   0  0  0  0  0  0  0  0  0  0  0  0
   -0.8062    0.3714    2.0157 H   0  0  0  0  0  0  0  0  0  0  0  0
   -0.2175    2.5403    2.2575 H   0  0  0  0  0  0  0  0  0  0  0  0
   -0.1787    4.7713    1.8477 H   0  0  0  0  0  0  0  0  0  0  0  0
   -1.4146    5.2466    0.6393 H   0  0  0  0  0  0  0  0  0  0  0  0
    0.3336    5.1700    0.1713 H   0  0  0  0  0  0  0  0  0  0  0  0
   -0.3332    2.1911   -1.4483 H   0  0  0  0  0  0  0  0  0  0  0  0
   -1.5965    4.7301   -1.7070 H   0  0  0  0  0  0  0  0  0  0  0  0
   -2.5401    2.0028   -2.2633 H   0  0  0  0  0  0  0  0  0  0  0  0
   -3.2670    3.1998   -1.1650 H   0  0  0  0  0  0  0  0  0  0  0  0
   -4.4486    2.4261    0.8482 H   0  0  0  0  0  0  0  0  0  0  0  0
   -2.8651    2.6705    1.5588 H   0  0  0  0  0  0  0  0  0  0  0  0
   -3.7058    1.1673    1.8935 H   0  0  0  0  0  0  0  0  0  0  0  0
   -3.6127    0.0071   -1.8539 H   0  0  0  0  0  0  0  0  0  0  0  0
   -4.9617    0.7979   -0.9596 H   0  0  0  0  0  0  0  0  0  0  0  0
   -4.5357   -1.7159   -0.3185 H   0  0  0  0  0  0  0  0  0  0  0  0
   -4.4199   -0.5910    1.0062 H   0  0  0  0  0  0  0  0  0  0  0  0
   -2.9080   -2.1877    1.9110 H   0  0  0  0  0  0  0  0  0  0  0  0
   -2.0903   -1.9897   -1.6967 H   0  0  0  0  0  0  0  0  0  0  0  0
   -0.0776   -2.7785    0.5057 H   0  0  0  0  0  0  0  0  0  0  0  0
    0.1911   -1.6013   -0.8539 H   0  0  0  0  0  0  0  0  0  0  0  0
   -0.0360   -3.3160   -1.2147 H   0  0  0  0  0  0  0  0  0  0  0  0
   -2.3507   -4.0258    0.6233 H   0  0  0  0  0  0  0  0  0  0  0  0
   -2.1668   -4.4023   -1.1223 H   0  0  0  0  0  0  0  0  0  0  0  0
   -3.6491   -3.6223   -0.5550 H   0  0  0  0  0  0  0  0  0  0  0  0
   -1.3043    0.1864   -0.9912 H   0  0  0  0  0  0  0  0  0  0  0  0
    3.5589   -1.9758    2.2620 H   0  0  0  0  0  0  0  0  0  0  0  0
    5.7424   -2.4280    1.2802 H   0  0  0  0  0  0  0  0  0  0  0  0
  1  2  1  0  0  0  0
  1 29  1  0  0  0  0
  1 30  1  0  0  0  0
  1 31  1  0  0  0  0
  2  3  1  0  0  0  0
  3  4  2  0  0  0  0
  4  5  1  0  0  0  0
  4 32  1  0  0  0  0
  5  6  2  0  0  0  0
  5 33  1  0  0  0  0
  6  7  1  0  0  0  0
  6 27  1  0  0  0  0
  7  8  2  0  0  0  0
  7  9  1  0  0  0  0
 10  9  1  0  0  0  0
 10 11  1  0  0  0  0
 10 34  1  1  0  0  0
 11 12  2  0  0  0  0
 11 35  1  0  0  0  0
 12 13  1  0  0  0  0
 12 14  1  0  0  0  0
 13 36  1  0  0  0  0
 13 37  1  0  0  0  0
 13 38  1  0  0  0  0
 14 15  1  0  0  0  0
 14 16  1  0  0  0  0
 14 39  1  6  0  0  0
 15 40  1  0  0  0  0
 16 17  1  0  0  0  0
 16 41  1  0  0  0  0
 16 42  1  0  0  0  0
 17 18  1  1  0  0  0
 17 19  1  0  0  0  0
 18 43  1  0  0  0  0
 18 44  1  0  0  0  0
 18 45  1  0  0  0  0
 19 20  1  0  0  0  0
 19 46  1  0  0  0  0
 19 47  1  0  0  0  0
 20 21  1  0  0  0  0
 20 48  1  0  0  0  0
 20 49  1  0  0  0  0
 21 22  1  1  0  0  0
 21 23  1  0  0  0  0
 21 26  1  0  0  0  0
 22 50  1  0  0  0  0
 23 24  1  0  0  0  0
 23 25  1  0  0  0  0
 23 51  1  0  0  0  0
 24 52  1  0  0  0  0
 24 53  1  0  0  0  0
 24 54  1  0  0  0  0
 25 55  1  0  0  0  0
 25 56  1  0  0  0  0
 25 57  1  0  0  0  0
 26 10  1  0  0  0  0
 26 17  1  0  0  0  0
 26 58  1  6  0  0  0
 27 28  2  0  0  0  0
 27 59  1  0  0  0  0
 28  3  1  0  0  0  0
 28 60  1  0  0  0  0
M  END
>  <IDENTIFIER>
CNP0251753.2

>  <Energy>
657.729

$$$$
