
 OpenBabel09062518123D

 52 55  0  0  0  0  0  0  0  0999 V2000
    5.0195    1.3198   -0.6635 C   0  0  0  0  0  0  0  0  0  0  0  0
    3.8994    0.7434   -0.2120 C   0  0  0  0  0  0  0  0  0  0  0  0
    2.6884    1.4765    0.1934 C   0  0  0  0  0  0  0  0  0  0  0  0
    1.6594    0.3739    0.6185 C   0  0  1  0  0  0  0  0  0  0  0  0
    0.7462    1.1086    1.6673 C   0  0  0  0  0  0  0  0  0  0  0  0
   -0.6851    0.6075    1.8919 C   0  0  0  0  0  0  0  0  0  0  0  0
   -1.3326    0.4480    0.4987 C   0  0  2  0  0  0  0  0  0  0  0  0
   -2.9093    0.5118    0.3751 C   0  0  0  0  0  0  0  0  0  0  0  0
   -3.4681    1.7464    1.1337 C   0  0  0  0  0  0  0  0  0  0  0  0
   -3.6495   -0.7170    0.9607 C   0  0  0  0  0  0  0  0  0  0  0  0
   -3.1964    0.7522   -1.1601 C   0  0  2  0  0  0  0  0  0  0  0  0
   -4.5588    0.6347   -1.4843 O   0  0  0  0  0  0  0  0  0  0  0  0
   -2.3133   -0.0629   -2.0888 C   0  0  0  0  0  0  0  0  0  0  0  0
   -2.2945    0.1752   -3.2871 O   0  0  0  0  0  0  0  0  0  0  0  0
   -1.4690   -1.1603   -1.5278 C   0  0  0  0  0  0  0  0  0  0  0  0
   -0.6207   -0.7441   -0.2685 C   0  0  2  0  0  0  0  0  0  0  0  0
   -0.5588   -2.0436    0.6179 C   0  0  0  0  0  0  0  0  0  0  0  0
    0.8524   -0.2253   -0.6451 C   0  0  2  0  0  0  0  0  0  0  0  0
    1.6576   -1.3758   -1.3574 C   0  0  0  0  0  0  0  0  0  0  0  0
    3.1756   -1.2372   -1.3722 C   0  0  0  0  0  0  0  0  0  0  0  0
    3.7095   -0.7111   -0.0141 C   0  0  2  0  0  0  0  0  0  0  0  0
    2.6503   -0.7010    1.1384 C   0  0  0  0  0  0  0  0  0  0  0  0
    5.0805    2.3987   -0.7655 H   0  0  0  0  0  0  0  0  0  0  0  0
    5.8806    0.7161   -0.9317 H   0  0  0  0  0  0  0  0  0  0  0  0
    2.2795    2.1501   -0.5902 H   0  0  0  0  0  0  0  0  0  0  0  0
    3.0137    2.0954    1.0622 H   0  0  0  0  0  0  0  0  0  0  0  0
    0.5733    2.1362    1.2661 H   0  0  0  0  0  0  0  0  0  0  0  0
    1.2803    1.2599    2.6305 H   0  0  0  0  0  0  0  0  0  0  0  0
   -1.1816    1.4007    2.4846 H   0  0  0  0  0  0  0  0  0  0  0  0
   -0.7508   -0.3044    2.5123 H   0  0  0  0  0  0  0  0  0  0  0  0
   -1.0669    1.3866   -0.0448 H   0  0  0  0  0  0  0  0  0  0  0  0
   -3.3399    1.6498    2.2311 H   0  0  0  0  0  0  0  0  0  0  0  0
   -4.5580    1.8608    0.9468 H   0  0  0  0  0  0  0  0  0  0  0  0
   -2.9667    2.6816    0.8023 H   0  0  0  0  0  0  0  0  0  0  0  0
   -3.3755   -0.8564    2.0284 H   0  0  0  0  0  0  0  0  0  0  0  0
   -3.4768   -1.6574    0.4239 H   0  0  0  0  0  0  0  0  0  0  0  0
   -4.7491   -0.5610    0.9148 H   0  0  0  0  0  0  0  0  0  0  0  0
   -2.8885    1.7975   -1.3896 H   0  0  0  0  0  0  0  0  0  0  0  0
   -4.7693   -0.3343   -1.5308 H   0  0  0  0  0  0  0  0  0  0  0  0
   -0.8836   -1.6941   -2.2993 H   0  0  0  0  0  0  0  0  0  0  0  0
   -2.2267   -1.9075   -1.2317 H   0  0  0  0  0  0  0  0  0  0  0  0
   -0.2399   -2.9370    0.0464 H   0  0  0  0  0  0  0  0  0  0  0  0
   -1.5416   -2.3268    1.0238 H   0  0  0  0  0  0  0  0  0  0  0  0
    0.1086   -1.9524    1.4884 H   0  0  0  0  0  0  0  0  0  0  0  0
    0.7187    0.6196   -1.3558 H   0  0  0  0  0  0  0  0  0  0  0  0
    1.2795   -1.6227   -2.3689 H   0  0  0  0  0  0  0  0  0  0  0  0
    1.5499   -2.2900   -0.7551 H   0  0  0  0  0  0  0  0  0  0  0  0
    3.5180   -0.6034   -2.2231 H   0  0  0  0  0  0  0  0  0  0  0  0
    3.5900   -2.2506   -1.5726 H   0  0  0  0  0  0  0  0  0  0  0  0
    4.6648   -1.2066    0.2660 H   0  0  0  0  0  0  0  0  0  0  0  0
    3.1468   -0.3272    2.0644 H   0  0  0  0  0  0  0  0  0  0  0  0
    2.2378   -1.6982    1.3752 H   0  0  0  0  0  0  0  0  0  0  0  0
  1  2  2  0  0  0  0
  1 23  1  0  0  0  0
  1 24  1  0  0  0  0
  2  3  1  0  0  0  0
  3 25  1  0  0  0  0
  3 26  1  0  0  0  0
  4  3  1  6  0  0  0
  4  5  1  0  0  0  0
  5  6  1  0  0  0  0
  5 27  1  0  0  0  0
  5 28  1  0  0  0  0
  6 29  1  0  0  0  0
  6 30  1  0  0  0  0
  7  6  1  0  0  0  0
  7  8  1  0  0  0  0
  7 31  1  6  0  0  0
  8  9  1  0  0  0  0
  8 10  1  0  0  0  0
  8 11  1  0  0  0  0
  9 32  1  0  0  0  0
  9 33  1  0  0  0  0
  9 34  1  0  0  0  0
 10 35  1  0  0  0  0
 10 36  1  0  0  0  0
 10 37  1  0  0  0  0
 11 12  1  0  0  0  0
 11 13  1  0  0  0  0
 11 38  1  6  0  0  0
 12 39  1  0  0  0  0
 13 14  2  0  0  0  0
 13 15  1  0  0  0  0
 15 16  1  0  0  0  0
 15 40  1  0  0  0  0
 15 41  1  0  0  0  0
 16 17  1  1  0  0  0
 16 18  1  0  0  0  0
 16  7  1  0  0  0  0
 17 42  1  0  0  0  0
 17 43  1  0  0  0  0
 17 44  1  0  0  0  0
 18 19  1  0  0  0  0
 18  4  1  0  0  0  0
 18 45  1  6  0  0  0
 19 20  1  0  0  0  0
 19 46  1  0  0  0  0
 19 47  1  0  0  0  0
 20 48  1  0  0  0  0
 20 49  1  0  0  0  0
 21 20  1  0  0  0  0
 21 22  1  0  0  0  0
 21  2  1  0  0  0  0
 21 50  1  1  0  0  0
 22  4  1  0  0  0  0
 22 51  1  0  0  0  0
 22 52  1  0  0  0  0
M  END
>  <IDENTIFIER>
CNP0280384.1

>  <Energy>
823.892

$$$$
