
 OpenBabel09072510133D

109108  0  0  0  0  0  0  0  0999 V2000
   15.6240    4.8776   -0.1970 C   0  0  0  0  0  0  0  0  0  0  0  0
   15.1187    3.4881   -0.5889 C   0  0  0  0  0  0  0  0  0  0  0  0
   13.5949    3.4145   -0.7920 C   0  0  0  0  0  0  0  0  0  0  0  0
   12.8025    3.6988    0.4930 C   0  0  0  0  0  0  0  0  0  0  0  0
   11.2669    3.7280    0.3483 C   0  0  0  0  0  0  0  0  0  0  0  0
   10.5405    2.3847    0.1409 C   0  0  0  0  0  0  0  0  0  0  0  0
   10.5573    1.8081   -1.2904 C   0  0  0  0  0  0  0  0  0  0  0  0
    9.7201    0.5553   -1.4743 C   0  0  0  0  0  0  0  0  0  0  0  0
    9.0532   -0.0653   -0.4862 C   0  0  0  0  0  0  0  0  0  0  0  0
    8.2528   -1.2794   -0.7310 C   0  0  0  0  0  0  0  0  0  0  0  0
    7.6279   -1.8684    0.2952 C   0  0  0  0  0  0  0  0  0  0  0  0
    6.7796   -3.0965    0.1391 C   0  0  0  0  0  0  0  0  0  0  0  0
    5.3609   -2.8163    0.6339 C   0  0  0  0  0  0  0  0  0  0  0  0
    4.6328   -1.8286   -0.2512 C   0  0  0  0  0  0  0  0  0  0  0  0
    3.4535   -2.1563   -0.7915 C   0  0  0  0  0  0  0  0  0  0  0  0
    2.6366   -1.2108   -1.6500 C   0  0  1  0  0  0  0  0  0  0  0  0
    3.3064   -0.9458   -2.8573 O   0  0  0  0  0  0  0  0  0  0  0  0
    1.2251   -1.8081   -1.8912 C   0  0  2  0  0  0  0  0  0  0  0  0
    0.3549   -0.9072   -2.7822 C   0  0  0  0  0  0  0  0  0  0  0  0
   -0.9195   -1.4671   -2.9540 O   0  0  0  0  0  0  0  0  0  0  0  0
    0.5812   -1.9847   -0.5938 N   0  0  0  0  0  0  0  0  0  0  0  0
    0.3972   -3.2047   -0.0134 C   0  0  0  0  0  0  0  0  0  0  0  0
    0.7343   -4.2235   -0.5987 O   0  0  0  0  0  0  0  0  0  0  0  0
   -0.1344   -3.2943    1.4026 C   0  0  2  0  0  0  0  0  0  0  0  0
    0.0842   -4.5766    1.9477 O   0  0  0  0  0  0  0  0  0  0  0  0
   -1.5936   -2.8814    1.4631 C   0  0  0  0  0  0  0  0  0  0  0  0
   -2.5510   -3.7055    1.9172 C   0  0  0  0  0  0  0  0  0  0  0  0
   -4.0064   -3.3470    1.9634 C   0  0  0  0  0  0  0  0  0  0  0  0
   -4.7720   -4.3123    1.0472 C   0  0  0  0  0  0  0  0  0  0  0  0
   -6.2896   -4.2774    1.2454 C   0  0  0  0  0  0  0  0  0  0  0  0
   -6.9471   -2.9201    0.9650 C   0  0  0  0  0  0  0  0  0  0  0  0
   -8.4589   -3.0438    1.2071 C   0  0  0  0  0  0  0  0  0  0  0  0
   -9.2210   -1.7210    1.0955 C   0  0  0  0  0  0  0  0  0  0  0  0
   -9.2396   -1.1256   -0.3195 C   0  0  0  0  0  0  0  0  0  0  0  0
  -10.1222    0.1285   -0.3252 C   0  0  0  0  0  0  0  0  0  0  0  0
  -10.2214    0.7660   -1.7106 C   0  0  0  0  0  0  0  0  0  0  0  0
  -11.2697    1.9019   -1.8337 C   0  0  0  0  0  0  0  0  0  0  0  0
  -11.1066    3.1832   -0.9629 C   0  0  2  0  0  0  0  0  0  0  0  0
   -9.6921    3.7549   -1.1073 C   0  0  0  0  0  0  0  0  0  0  0  0
  -11.6205    2.9783    0.4977 C   0  0  0  0  0  0  0  0  0  0  0  0
  -11.6465    4.2193    1.4126 C   0  0  0  0  0  0  0  0  0  0  0  0
  -10.3059    4.5422    2.0843 C   0  0  0  0  0  0  0  0  0  0  0  0
   16.7321    4.8586   -0.1306 H   0  0  0  0  0  0  0  0  0  0  0  0
   15.2365    5.1857    0.7948 H   0  0  0  0  0  0  0  0  0  0  0  0
   15.3257    5.6259   -0.9613 H   0  0  0  0  0  0  0  0  0  0  0  0
   15.4321    2.7507    0.1819 H   0  0  0  0  0  0  0  0  0  0  0  0
   15.6040    3.2099   -1.5498 H   0  0  0  0  0  0  0  0  0  0  0  0
   13.3935    2.3882   -1.1324 H   0  0  0  0  0  0  0  0  0  0  0  0
   13.2929    4.1306   -1.5869 H   0  0  0  0  0  0  0  0  0  0  0  0
   13.0779    4.7154    0.8401 H   0  0  0  0  0  0  0  0  0  0  0  0
   13.0889    2.9750    1.2868 H   0  0  0  0  0  0  0  0  0  0  0  0
   10.9472    4.4697   -0.4153 H   0  0  0  0  0  0  0  0  0  0  0  0
   10.9047    4.0996    1.3332 H   0  0  0  0  0  0  0  0  0  0  0  0
    9.4703    2.5897    0.3683 H   0  0  0  0  0  0  0  0  0  0  0  0
   10.9224    1.6467    0.8794 H   0  0  0  0  0  0  0  0  0  0  0  0
   11.5735    1.5408   -1.6082 H   0  0  0  0  0  0  0  0  0  0  0  0
   10.1608    2.5814   -1.9826 H   0  0  0  0  0  0  0  0  0  0  0  0
    9.6716    0.1426   -2.4785 H   0  0  0  0  0  0  0  0  0  0  0  0
    9.0850    0.3119    0.5292 H   0  0  0  0  0  0  0  0  0  0  0  0
    8.1686   -1.6876   -1.7348 H   0  0  0  0  0  0  0  0  0  0  0  0
    7.7229   -1.4520    1.2956 H   0  0  0  0  0  0  0  0  0  0  0  0
    7.2263   -3.8918    0.7732 H   0  0  0  0  0  0  0  0  0  0  0  0
    6.7525   -3.4625   -0.9112 H   0  0  0  0  0  0  0  0  0  0  0  0
    5.4038   -2.4148    1.6697 H   0  0  0  0  0  0  0  0  0  0  0  0
    4.8099   -3.7818    0.6771 H   0  0  0  0  0  0  0  0  0  0  0  0
    5.0523   -0.8408   -0.4191 H   0  0  0  0  0  0  0  0  0  0  0  0
    3.0512   -3.1396   -0.5764 H   0  0  0  0  0  0  0  0  0  0  0  0
    2.5087   -0.2521   -1.1008 H   0  0  0  0  0  0  0  0  0  0  0  0
    3.3950   -1.8080   -3.3436 H   0  0  0  0  0  0  0  0  0  0  0  0
    1.3533   -2.7826   -2.4150 H   0  0  0  0  0  0  0  0  0  0  0  0
    0.8340   -0.7449   -3.7744 H   0  0  0  0  0  0  0  0  0  0  0  0
    0.2377    0.0919   -2.3100 H   0  0  0  0  0  0  0  0  0  0  0  0
   -0.8174   -2.2130   -3.6008 H   0  0  0  0  0  0  0  0  0  0  0  0
    0.3477   -1.1395   -0.0490 H   0  0  0  0  0  0  0  0  0  0  0  0
    0.4565   -2.5883    2.0253 H   0  0  0  0  0  0  0  0  0  0  0  0
   -0.3246   -5.2506    1.3426 H   0  0  0  0  0  0  0  0  0  0  0  0
   -1.8627   -1.8889    1.1108 H   0  0  0  0  0  0  0  0  0  0  0  0
   -2.3020   -4.7009    2.2678 H   0  0  0  0  0  0  0  0  0  0  0  0
   -4.1855   -2.2971    1.6452 H   0  0  0  0  0  0  0  0  0  0  0  0
   -4.3415   -3.4646    3.0163 H   0  0  0  0  0  0  0  0  0  0  0  0
   -4.4606   -5.3551    1.2817 H   0  0  0  0  0  0  0  0  0  0  0  0
   -4.5088   -4.1047   -0.0135 H   0  0  0  0  0  0  0  0  0  0  0  0
   -6.5083   -4.5778    2.2943 H   0  0  0  0  0  0  0  0  0  0  0  0
   -6.7352   -5.0391    0.5683 H   0  0  0  0  0  0  0  0  0  0  0  0
   -6.7433   -2.6116   -0.0825 H   0  0  0  0  0  0  0  0  0  0  0  0
   -6.5334   -2.1564    1.6577 H   0  0  0  0  0  0  0  0  0  0  0  0
   -8.6129   -3.4133    2.2452 H   0  0  0  0  0  0  0  0  0  0  0  0
   -8.8979   -3.7888    0.5073 H   0  0  0  0  0  0  0  0  0  0  0  0
   -8.7954   -0.9864    1.8141 H   0  0  0  0  0  0  0  0  0  0  0  0
  -10.2718   -1.9290    1.3962 H   0  0  0  0  0  0  0  0  0  0  0  0
   -9.6608   -1.8741   -1.0261 H   0  0  0  0  0  0  0  0  0  0  0  0
   -8.2101   -0.8611   -0.6432 H   0  0  0  0  0  0  0  0  0  0  0  0
   -9.6639    0.8509    0.3763 H   0  0  0  0  0  0  0  0  0  0  0  0
  -11.1443   -0.1540    0.0112 H   0  0  0  0  0  0  0  0  0  0  0  0
  -10.5299   -0.0202   -2.4346 H   0  0  0  0  0  0  0  0  0  0  0  0
   -9.2172    1.1286   -2.0192 H   0  0  0  0  0  0  0  0  0  0  0  0
  -12.2903    1.4875   -1.6798 H   0  0  0  0  0  0  0  0  0  0  0  0
  -11.2193    2.2249   -2.8973 H   0  0  0  0  0  0  0  0  0  0  0  0
  -11.7991    3.9327   -1.4091 H   0  0  0  0  0  0  0  0  0  0  0  0
   -8.9455    3.1103   -0.5985 H   0  0  0  0  0  0  0  0  0  0  0  0
   -9.6477    4.7858   -0.7136 H   0  0  0  0  0  0  0  0  0  0  0  0
   -9.4276    3.8369   -2.1831 H   0  0  0  0  0  0  0  0  0  0  0  0
  -11.1171    2.1747    1.0528 H   0  0  0  0  0  0  0  0  0  0  0  0
  -12.6805    2.6589    0.3856 H   0  0  0  0  0  0  0  0  0  0  0  0
  -12.3384    3.9876    2.2526 H   0  0  0  0  0  0  0  0  0  0  0  0
  -12.0576    5.0974    0.8702 H   0  0  0  0  0  0  0  0  0  0  0  0
   -9.9538    3.6649    2.6683 H   0  0  0  0  0  0  0  0  0  0  0  0
  -10.4470    5.3909    2.7860 H   0  0  0  0  0  0  0  0  0  0  0  0
   -9.5098    4.8300    1.3821 H   0  0  0  0  0  0  0  0  0  0  0  0
  1  2  1  0  0  0  0
  1 43  1  0  0  0  0
  1 44  1  0  0  0  0
  1 45  1  0  0  0  0
  2  3  1  0  0  0  0
  2 46  1  0  0  0  0
  2 47  1  0  0  0  0
  3  4  1  0  0  0  0
  3 48  1  0  0  0  0
  3 49  1  0  0  0  0
  4  5  1  0  0  0  0
  4 50  1  0  0  0  0
  4 51  1  0  0  0  0
  5  6  1  0  0  0  0
  5 52  1  0  0  0  0
  5 53  1  0  0  0  0
  6  7  1  0  0  0  0
  6 54  1  0  0  0  0
  6 55  1  0  0  0  0
  7  8  1  0  0  0  0
  7 56  1  0  0  0  0
  7 57  1  0  0  0  0
  8  9  2  0  0  0  0
  8 58  1  0  0  0  0
  9 10  1  0  0  0  0
  9 59  1  0  0  0  0
 10 11  2  0  0  0  0
 10 60  1  0  0  0  0
 11 12  1  0  0  0  0
 11 61  1  0  0  0  0
 12 13  1  0  0  0  0
 12 62  1  0  0  0  0
 12 63  1  0  0  0  0
 13 14  1  0  0  0  0
 13 64  1  0  0  0  0
 13 65  1  0  0  0  0
 14 15  2  0  0  0  0
 14 66  1  0  0  0  0
 15 16  1  0  0  0  0
 15 67  1  0  0  0  0
 16 17  1  0  0  0  0
 16 18  1  0  0  0  0
 16 68  1  1  0  0  0
 17 69  1  0  0  0  0
 18 19  1  0  0  0  0
 18 21  1  0  0  0  0
 18 70  1  6  0  0  0
 19 20  1  0  0  0  0
 19 71  1  0  0  0  0
 19 72  1  0  0  0  0
 20 73  1  0  0  0  0
 21 22  1  0  0  0  0
 21 74  1  0  0  0  0
 22 23  2  0  0  0  0
 22 24  1  0  0  0  0
 24 25  1  0  0  0  0
 24 26  1  0  0  0  0
 24 75  1  1  0  0  0
 25 76  1  0  0  0  0
 26 27  2  0  0  0  0
 26 77  1  0  0  0  0
 27 28  1  0  0  0  0
 27 78  1  0  0  0  0
 28 29  1  0  0  0  0
 28 79  1  0  0  0  0
 28 80  1  0  0  0  0
 29 30  1  0  0  0  0
 29 81  1  0  0  0  0
 29 82  1  0  0  0  0
 30 31  1  0  0  0  0
 30 83  1  0  0  0  0
 30 84  1  0  0  0  0
 31 32  1  0  0  0  0
 31 85  1  0  0  0  0
 31 86  1  0  0  0  0
 32 33  1  0  0  0  0
 32 87  1  0  0  0  0
 32 88  1  0  0  0  0
 33 34  1  0  0  0  0
 33 89  1  0  0  0  0
 33 90  1  0  0  0  0
 34 35  1  0  0  0  0
 34 91  1  0  0  0  0
 34 92  1  0  0  0  0
 35 36  1  0  0  0  0
 35 93  1  0  0  0  0
 35 94  1  0  0  0  0
 36 37  1  0  0  0  0
 36 95  1  0  0  0  0
 36 96  1  0  0  0  0
 37 38  1  0  0  0  0
 37 97  1  0  0  0  0
 37 98  1  0  0  0  0
 38 39  1  0  0  0  0
 38 40  1  0  0  0  0
 38 99  1  6  0  0  0
 39100  1  0  0  0  0
 39101  1  0  0  0  0
 39102  1  0  0  0  0
 40 41  1  0  0  0  0
 40103  1  0  0  0  0
 40104  1  0  0  0  0
 41 42  1  0  0  0  0
 41105  1  0  0  0  0
 41106  1  0  0  0  0
 42107  1  0  0  0  0
 42108  1  0  0  0  0
 42109  1  0  0  0  0
M  END
>  <IDENTIFIER>
CNP0180937.1

>  <Energy>
432.6

$$$$
