
 OpenBabel09072518203D

 59 61  0  0  0  0  0  0  0  0999 V2000
   -5.0403   -2.3429   -2.6962 C   0  0  0  0  0  0  0  0  0  0  0  0
   -5.2630   -2.5420   -1.1977 C   0  0  0  0  0  0  0  0  0  0  0  0
   -4.3370   -1.7725   -0.2632 C   0  0  0  0  0  0  0  0  0  0  0  0
   -4.5861   -1.9945    1.2123 C   0  0  0  0  0  0  0  0  0  0  0  0
   -3.3470   -0.9463   -0.7127 C   0  0  0  0  0  0  0  0  0  0  0  0
   -2.4094   -0.1742    0.1475 C   0  0  0  0  0  0  0  0  0  0  0  0
   -2.5037   -0.2223    1.3648 O   0  0  0  0  0  0  0  0  0  0  0  0
   -1.4263    0.5755   -0.4341 O   0  0  0  0  0  0  0  0  0  0  0  0
   -0.4588    1.2663    0.2858 C   0  0  2  0  0  0  0  0  0  0  0  0
   -0.5121    2.7551    0.0601 C   0  0  0  0  0  0  0  0  0  0  0  0
    0.5255    3.5668    0.4383 C   0  0  0  0  0  0  0  0  0  0  0  0
    0.2505    4.8235    0.1731 O   0  0  0  0  0  0  0  0  0  0  0  0
   -0.9415    4.8682   -0.3926 C   0  0  0  0  0  0  0  0  0  0  0  0
   -1.4602    3.5850   -0.4975 C   0  0  0  0  0  0  0  0  0  0  0  0
   -2.7824    3.2030   -1.0799 C   0  0  0  0  0  0  0  0  0  0  0  0
    1.7724    3.0222    1.0032 C   0  0  0  0  0  0  0  0  0  0  0  0
    2.6238    3.7690    1.4606 O   0  0  0  0  0  0  0  0  0  0  0  0
    1.9386    1.5033    1.0443 C   0  0  2  0  0  0  0  0  0  0  0  0
    3.4194    1.0466    0.9128 C   0  0  0  0  0  0  0  0  0  0  0  0
    3.5739   -0.4917    0.7234 C   0  0  1  0  0  0  0  0  0  0  0  0
    4.6464   -0.9399    1.4752 O   0  0  0  0  0  0  0  0  0  0  0  0
    5.7431   -1.5915    1.0167 C   0  0  0  0  0  0  0  0  0  0  0  0
    6.7414   -2.1130    2.0003 C   0  0  0  0  0  0  0  0  0  0  0  0
    5.9198   -1.7741   -0.1797 O   0  0  0  0  0  0  0  0  0  0  0  0
    2.3156   -1.2283    1.1817 C   0  0  0  0  0  0  0  0  0  0  0  0
    1.0637   -0.8186    0.3511 C   0  0  2  0  0  0  0  0  0  0  0  0
    0.9098   -1.7121   -0.9008 C   0  0  0  0  0  0  0  0  0  0  0  0
    0.9955    0.7436    0.0330 C   0  0  1  0  0  0  0  0  0  0  0  0
    1.4386    1.0734   -1.4328 C   0  0  0  0  0  0  0  0  0  0  0  0
   -5.7764   -2.9551   -3.2591 H   0  0  0  0  0  0  0  0  0  0  0  0
   -4.0197   -2.6729   -2.9841 H   0  0  0  0  0  0  0  0  0  0  0  0
   -5.1893   -1.2774   -2.9713 H   0  0  0  0  0  0  0  0  0  0  0  0
   -5.1519   -3.6265   -0.9782 H   0  0  0  0  0  0  0  0  0  0  0  0
   -6.3093   -2.2465   -0.9670 H   0  0  0  0  0  0  0  0  0  0  0  0
   -5.4265   -2.7018    1.3802 H   0  0  0  0  0  0  0  0  0  0  0  0
   -4.8547   -1.0364    1.7050 H   0  0  0  0  0  0  0  0  0  0  0  0
   -3.6841   -2.4311    1.6911 H   0  0  0  0  0  0  0  0  0  0  0  0
   -3.1914   -0.8180   -1.7765 H   0  0  0  0  0  0  0  0  0  0  0  0
   -0.6225    1.1362    1.3794 H   0  0  0  0  0  0  0  0  0  0  0  0
   -1.4242    5.7787   -0.7223 H   0  0  0  0  0  0  0  0  0  0  0  0
   -3.3222    4.1046   -1.4389 H   0  0  0  0  0  0  0  0  0  0  0  0
   -3.3999    2.6980   -0.3085 H   0  0  0  0  0  0  0  0  0  0  0  0
   -2.6270    2.5155   -1.9373 H   0  0  0  0  0  0  0  0  0  0  0  0
    1.6164    1.2123    2.0694 H   0  0  0  0  0  0  0  0  0  0  0  0
    3.9179    1.3714    1.8535 H   0  0  0  0  0  0  0  0  0  0  0  0
    3.9497    1.5494    0.0751 H   0  0  0  0  0  0  0  0  0  0  0  0
    3.7003   -0.7290   -0.3563 H   0  0  0  0  0  0  0  0  0  0  0  0
    6.4186   -1.8728    3.0364 H   0  0  0  0  0  0  0  0  0  0  0  0
    7.7329   -1.6512    1.8159 H   0  0  0  0  0  0  0  0  0  0  0  0
    6.8218   -3.2157    1.9009 H   0  0  0  0  0  0  0  0  0  0  0  0
    2.1557   -0.9611    2.2500 H   0  0  0  0  0  0  0  0  0  0  0  0
    2.4480   -2.3325    1.1584 H   0  0  0  0  0  0  0  0  0  0  0  0
    0.2169   -1.0994    1.0146 H   0  0  0  0  0  0  0  0  0  0  0  0
    1.7616   -1.5823   -1.6010 H   0  0  0  0  0  0  0  0  0  0  0  0
   -0.0370   -1.4835   -1.4330 H   0  0  0  0  0  0  0  0  0  0  0  0
    0.8787   -2.7827   -0.6083 H   0  0  0  0  0  0  0  0  0  0  0  0
    0.7421    0.6274   -2.1722 H   0  0  0  0  0  0  0  0  0  0  0  0
    2.4589    0.7048   -1.6525 H   0  0  0  0  0  0  0  0  0  0  0  0
    1.4498    2.1637   -1.6340 H   0  0  0  0  0  0  0  0  0  0  0  0
  1  2  1  0  0  0  0
  1 30  1  0  0  0  0
  1 31  1  0  0  0  0
  1 32  1  0  0  0  0
  2  3  1  0  0  0  0
  2 33  1  0  0  0  0
  2 34  1  0  0  0  0
  3  4  1  0  0  0  0
  3  5  2  0  0  0  0
  4 35  1  0  0  0  0
  4 36  1  0  0  0  0
  4 37  1  0  0  0  0
  5  6  1  0  0  0  0
  5 38  1  0  0  0  0
  6  7  2  0  0  0  0
  6  8  1  0  0  0  0
  9  8  1  0  0  0  0
  9 10  1  0  0  0  0
  9 39  1  1  0  0  0
 10 11  2  0  0  0  0
 11 12  1  0  0  0  0
 11 16  1  0  0  0  0
 12 13  1  0  0  0  0
 13 14  2  0  0  0  0
 13 40  1  0  0  0  0
 14 15  1  0  0  0  0
 14 10  1  0  0  0  0
 15 41  1  0  0  0  0
 15 42  1  0  0  0  0
 15 43  1  0  0  0  0
 16 17  2  0  0  0  0
 16 18  1  0  0  0  0
 18 19  1  0  0  0  0
 18 44  1  1  0  0  0
 19 20  1  0  0  0  0
 19 45  1  0  0  0  0
 19 46  1  0  0  0  0
 20 21  1  0  0  0  0
 20 25  1  0  0  0  0
 20 47  1  6  0  0  0
 21 22  1  0  0  0  0
 22 23  1  0  0  0  0
 22 24  2  0  0  0  0
 23 48  1  0  0  0  0
 23 49  1  0  0  0  0
 23 50  1  0  0  0  0
 25 26  1  0  0  0  0
 25 51  1  0  0  0  0
 25 52  1  0  0  0  0
 26 27  1  0  0  0  0
 26 28  1  0  0  0  0
 26 53  1  1  0  0  0
 27 54  1  0  0  0  0
 27 55  1  0  0  0  0
 27 56  1  0  0  0  0
 28 29  1  6  0  0  0
 28  9  1  0  0  0  0
 28 18  1  0  0  0  0
 29 57  1  0  0  0  0
 29 58  1  0  0  0  0
 29 59  1  0  0  0  0
M  END
>  <IDENTIFIER>
CNP0227847.1

>  <Energy>
608.346

$$$$
