
 OpenBabel09092507443D

 47 48  0  0  0  0  0  0  0  0999 V2000
    3.7608   -0.4860   -0.9405 C   0  0  0  0  0  0  0  0  0  0  0  0
    3.1081    0.3923    0.1577 C   0  0  0  0  0  0  0  0  0  0  0  0
    3.8173    0.1432    1.5122 C   0  0  0  0  0  0  0  0  0  0  0  0
    3.2956    1.7485   -0.1758 O   0  0  0  0  0  0  0  0  0  0  0  0
    1.5540    0.1145    0.2876 C   0  0  2  0  0  0  0  0  0  0  0  0
    1.2461   -1.3347    0.7903 C   0  0  0  0  0  0  0  0  0  0  0  0
    0.2313   -2.0869   -0.0791 C   0  0  0  0  0  0  0  0  0  0  0  0
   -1.0952   -1.3059   -0.2894 C   0  0  1  0  0  0  0  0  0  0  0  0
   -1.9322   -2.1692   -1.2726 C   0  0  0  0  0  0  0  0  0  0  0  0
   -1.8393   -1.2163    1.0679 C   0  0  0  0  0  0  0  0  0  0  0  0
   -3.1985   -0.5088    0.9638 C   0  0  0  0  0  0  0  0  0  0  0  0
   -3.1632    0.7724    0.0980 C   0  0  2  0  0  0  0  0  0  0  0  0
   -3.9284    0.5837   -1.0747 O   0  0  0  0  0  0  0  0  0  0  0  0
   -1.7070    1.3005   -0.1760 C   0  0  1  0  0  0  0  0  0  0  0  0
   -1.8406    2.5876   -1.0441 C   0  0  0  0  0  0  0  0  0  0  0  0
   -1.1088    1.6443    1.0523 O   0  0  0  0  0  0  0  0  0  0  0  0
   -0.8260    0.1625   -0.8822 C   0  0  1  0  0  0  0  0  0  0  0  0
    0.7252    0.4480   -1.0089 C   0  0  1  0  0  0  0  0  0  0  0  0
    0.9813    1.7388   -1.4942 O   0  0  0  0  0  0  0  0  0  0  0  0
    4.8490   -0.2730   -1.0080 H   0  0  0  0  0  0  0  0  0  0  0  0
    3.3258   -0.2682   -1.9364 H   0  0  0  0  0  0  0  0  0  0  0  0
    3.6501   -1.5691   -0.7360 H   0  0  0  0  0  0  0  0  0  0  0  0
    4.8980    0.3894    1.4319 H   0  0  0  0  0  0  0  0  0  0  0  0
    3.7513   -0.9118    1.8433 H   0  0  0  0  0  0  0  0  0  0  0  0
    3.3759    0.7890    2.3004 H   0  0  0  0  0  0  0  0  0  0  0  0
    4.2683    1.9177   -0.2851 H   0  0  0  0  0  0  0  0  0  0  0  0
    1.1822    0.8035    1.0750 H   0  0  0  0  0  0  0  0  0  0  0  0
    0.9132   -1.2862    1.8484 H   0  0  0  0  0  0  0  0  0  0  0  0
    2.1445   -1.9791    0.8058 H   0  0  0  0  0  0  0  0  0  0  0  0
    0.0357   -3.0846    0.3738 H   0  0  0  0  0  0  0  0  0  0  0  0
    0.7077   -2.2822   -1.0652 H   0  0  0  0  0  0  0  0  0  0  0  0
   -2.0880   -3.1898   -0.8603 H   0  0  0  0  0  0  0  0  0  0  0  0
   -1.4042   -2.2691   -2.2458 H   0  0  0  0  0  0  0  0  0  0  0  0
   -2.9316   -1.7539   -1.4792 H   0  0  0  0  0  0  0  0  0  0  0  0
   -1.2157   -0.6400    1.7786 H   0  0  0  0  0  0  0  0  0  0  0  0
   -1.9910   -2.2180    1.5273 H   0  0  0  0  0  0  0  0  0  0  0  0
   -3.5145   -0.2677    2.0026 H   0  0  0  0  0  0  0  0  0  0  0  0
   -3.9745   -1.1946    0.5589 H   0  0  0  0  0  0  0  0  0  0  0  0
   -3.7183    1.5561    0.6601 H   0  0  0  0  0  0  0  0  0  0  0  0
   -3.3440    0.3500   -1.8346 H   0  0  0  0  0  0  0  0  0  0  0  0
   -2.5183    3.3134   -0.5450 H   0  0  0  0  0  0  0  0  0  0  0  0
   -2.2674    2.3601   -2.0428 H   0  0  0  0  0  0  0  0  0  0  0  0
   -0.9005    3.1330   -1.2042 H   0  0  0  0  0  0  0  0  0  0  0  0
   -1.6574    2.3508    1.4840 H   0  0  0  0  0  0  0  0  0  0  0  0
   -1.1625    0.1450   -1.9421 H   0  0  0  0  0  0  0  0  0  0  0  0
    1.0991   -0.2419   -1.7913 H   0  0  0  0  0  0  0  0  0  0  0  0
    1.0172    2.3498   -0.7141 H   0  0  0  0  0  0  0  0  0  0  0  0
  1  2  1  0  0  0  0
  1 20  1  0  0  0  0
  1 21  1  0  0  0  0
  1 22  1  0  0  0  0
  2  3  1  0  0  0  0
  2  4  1  0  0  0  0
  3 23  1  0  0  0  0
  3 24  1  0  0  0  0
  3 25  1  0  0  0  0
  4 26  1  0  0  0  0
  5  2  1  0  0  0  0
  5  6  1  0  0  0  0
  5 27  1  1  0  0  0
  6  7  1  0  0  0  0
  6 28  1  0  0  0  0
  6 29  1  0  0  0  0
  7  8  1  0  0  0  0
  7 30  1  0  0  0  0
  7 31  1  0  0  0  0
  8  9  1  6  0  0  0
  8 10  1  0  0  0  0
  9 32  1  0  0  0  0
  9 33  1  0  0  0  0
  9 34  1  0  0  0  0
 10 11  1  0  0  0  0
 10 35  1  0  0  0  0
 10 36  1  0  0  0  0
 11 12  1  0  0  0  0
 11 37  1  0  0  0  0
 11 38  1  0  0  0  0
 12 13  1  0  0  0  0
 12 14  1  0  0  0  0
 12 39  1  1  0  0  0
 13 40  1  0  0  0  0
 14 15  1  0  0  0  0
 14 16  1  1  0  0  0
 14 17  1  0  0  0  0
 15 41  1  0  0  0  0
 15 42  1  0  0  0  0
 15 43  1  0  0  0  0
 16 44  1  0  0  0  0
 17 18  1  0  0  0  0
 17  8  1  0  0  0  0
 17 45  1  6  0  0  0
 18 19  1  0  0  0  0
 18  5  1  0  0  0  0
 18 46  1  6  0  0  0
 19 47  1  0  0  0  0
M  END
>  <IDENTIFIER>
CNP0236150.4

>  <Energy>
626.408

$$$$
