
 OpenBabel09092500123D

 91 96  0  0  0  0  0  0  0  0999 V2000
   -7.5108   -0.8381    2.8156 C   0  0  0  0  0  0  0  0  0  0  0  0
   -6.8876   -1.1102    1.4373 C   0  0  1  0  0  0  0  0  0  0  0  0
   -5.6139   -1.7364    1.6577 O   0  0  0  0  0  0  0  0  0  0  0  0
   -5.1625   -2.4232    0.5072 C   0  0  1  0  0  0  0  0  0  0  0  0
   -3.8143   -2.8198    0.6941 O   0  0  0  0  0  0  0  0  0  0  0  0
   -2.8801   -2.1032   -0.0973 C   0  0  1  0  0  0  0  0  0  0  0  0
   -2.4428   -0.8062    0.6209 C   0  0  2  0  0  0  0  0  0  0  0  0
   -3.5024    0.1110    0.7197 O   0  0  0  0  0  0  0  0  0  0  0  0
   -1.2335   -0.1841   -0.1067 C   0  0  1  0  0  0  0  0  0  0  0  0
   -0.7865    0.9676    0.6023 O   0  0  0  0  0  0  0  0  0  0  0  0
   -0.9686    2.1527   -0.1648 C   0  0  2  0  0  0  0  0  0  0  0  0
    0.2395    2.3731   -0.9060 O   0  0  0  0  0  0  0  0  0  0  0  0
    0.4313    3.7387   -1.2111 C   0  0  2  0  0  0  0  0  0  0  0  0
    1.5662    3.8917   -2.2227 C   0  0  0  0  0  0  0  0  0  0  0  0
    0.7207    4.5664    0.0807 C   0  0  1  0  0  0  0  0  0  0  0  0
    0.4356    5.9227   -0.1646 O   0  0  0  0  0  0  0  0  0  0  0  0
   -0.0874    4.0232    1.3033 C   0  0  2  0  0  0  0  0  0  0  0  0
    0.6708    3.1137    2.0723 O   0  0  0  0  0  0  0  0  0  0  0  0
   -1.3583    3.3397    0.7783 C   0  0  2  0  0  0  0  0  0  0  0  0
   -2.2418    2.9407    1.7976 O   0  0  0  0  0  0  0  0  0  0  0  0
   -0.1356   -1.2549   -0.1638 C   0  0  2  0  0  0  0  0  0  0  0  0
    1.0137   -0.7311   -0.7351 O   0  0  0  0  0  0  0  0  0  0  0  0
    2.2955   -0.9441   -0.3201 C   0  0  0  0  0  0  0  0  0  0  0  0
    2.6481   -1.9708    0.5824 C   0  0  0  0  0  0  0  0  0  0  0  0
    3.9792   -2.1566    0.9820 C   0  0  0  0  0  0  0  0  0  0  0  0
    4.2822   -3.1478    1.8487 O   0  0  0  0  0  0  0  0  0  0  0  0
    4.9888   -1.3098    0.4710 C   0  0  0  0  0  0  0  0  0  0  0  0
    6.3468   -1.4331    0.8236 C   0  0  0  0  0  0  0  0  0  0  0  0
    6.7248   -2.2908    1.6051 O   0  0  0  0  0  0  0  0  0  0  0  0
    7.2856   -0.5615    0.2714 C   0  0  0  0  0  0  0  0  0  0  0  0
    6.8648    0.4305   -0.6346 C   0  0  0  0  0  0  0  0  0  0  0  0
    7.8106    1.3968   -1.2745 C   0  0  0  0  0  0  0  0  0  0  0  0
    7.3030    2.3520   -2.1790 C   0  0  0  0  0  0  0  0  0  0  0  0
    8.1522    3.2712   -2.8040 C   0  0  0  0  0  0  0  0  0  0  0  0
    9.5255    3.2555   -2.5370 C   0  0  0  0  0  0  0  0  0  0  0  0
   10.3556    4.1355   -3.1326 O   0  0  0  0  0  0  0  0  0  0  0  0
   10.0435    2.3174   -1.6431 C   0  0  0  0  0  0  0  0  0  0  0  0
    9.1997    1.3952   -1.0159 C   0  0  0  0  0  0  0  0  0  0  0  0
    5.5705    0.5169   -0.9406 O   0  0  0  0  0  0  0  0  0  0  0  0
    4.6379   -0.2902   -0.4411 C   0  0  0  0  0  0  0  0  0  0  0  0
    3.3035   -0.1159   -0.8266 C   0  0  0  0  0  0  0  0  0  0  0  0
   -0.5925   -2.3331   -0.9650 O   0  0  0  0  0  0  0  0  0  0  0  0
   -1.6484   -3.0244   -0.3138 C   0  0  2  0  0  0  0  0  0  0  0  0
   -2.0505   -4.2248   -1.1827 C   0  0  0  0  0  0  0  0  0  0  0  0
   -0.9542   -5.0788   -1.3829 O   0  0  0  0  0  0  0  0  0  0  0  0
   -6.0386   -3.6923    0.2530 C   0  0  1  0  0  0  0  0  0  0  0  0
   -5.5499   -4.8610    0.8695 O   0  0  0  0  0  0  0  0  0  0  0  0
   -7.5335   -3.4499    0.6366 C   0  0  1  0  0  0  0  0  0  0  0  0
   -7.8421   -3.8884    1.9412 O   0  0  0  0  0  0  0  0  0  0  0  0
   -7.8288   -1.9435    0.4882 C   0  0  1  0  0  0  0  0  0  0  0  0
   -9.1898   -1.6174    0.6374 O   0  0  0  0  0  0  0  0  0  0  0  0
   -6.8159   -0.2143    3.4171 H   0  0  0  0  0  0  0  0  0  0  0  0
   -7.7122   -1.7649    3.3840 H   0  0  0  0  0  0  0  0  0  0  0  0
   -8.4610   -0.2743    2.7097 H   0  0  0  0  0  0  0  0  0  0  0  0
   -6.7427   -0.1044    0.9840 H   0  0  0  0  0  0  0  0  0  0  0  0
   -5.2826   -1.7374   -0.3680 H   0  0  0  0  0  0  0  0  0  0  0  0
   -3.2656   -1.8484   -1.1134 H   0  0  0  0  0  0  0  0  0  0  0  0
   -2.1228   -1.0672    1.6556 H   0  0  0  0  0  0  0  0  0  0  0  0
   -3.7611    0.3692   -0.2031 H   0  0  0  0  0  0  0  0  0  0  0  0
   -1.5058    0.0231   -1.1710 H   0  0  0  0  0  0  0  0  0  0  0  0
   -1.8420    2.0634   -0.8551 H   0  0  0  0  0  0  0  0  0  0  0  0
   -0.4959    4.1079   -1.7105 H   0  0  0  0  0  0  0  0  0  0  0  0
    2.5203    3.5225   -1.7883 H   0  0  0  0  0  0  0  0  0  0  0  0
    1.6871    4.9579   -2.5091 H   0  0  0  0  0  0  0  0  0  0  0  0
    1.3415    3.3002   -3.1353 H   0  0  0  0  0  0  0  0  0  0  0  0
    1.7932    4.5137    0.3699 H   0  0  0  0  0  0  0  0  0  0  0  0
   -0.5424    6.0053   -0.3203 H   0  0  0  0  0  0  0  0  0  0  0  0
   -0.3280    4.8772    1.9739 H   0  0  0  0  0  0  0  0  0  0  0  0
    1.2126    2.5456    1.4664 H   0  0  0  0  0  0  0  0  0  0  0  0
   -1.8880    4.1127    0.1789 H   0  0  0  0  0  0  0  0  0  0  0  0
   -1.7296    2.3965    2.4501 H   0  0  0  0  0  0  0  0  0  0  0  0
    0.0785   -1.5814    0.8780 H   0  0  0  0  0  0  0  0  0  0  0  0
    1.9066   -2.6469    0.9819 H   0  0  0  0  0  0  0  0  0  0  0  0
    3.6113   -3.7423    2.2139 H   0  0  0  0  0  0  0  0  0  0  0  0
    8.3186   -0.6807    0.5581 H   0  0  0  0  0  0  0  0  0  0  0  0
    6.2465    2.3927   -2.4107 H   0  0  0  0  0  0  0  0  0  0  0  0
    7.7379    3.9941   -3.4948 H   0  0  0  0  0  0  0  0  0  0  0  0
   10.0360    4.8012   -3.7582 H   0  0  0  0  0  0  0  0  0  0  0  0
   11.1057    2.2997   -1.4327 H   0  0  0  0  0  0  0  0  0  0  0  0
    9.6583    0.6959   -0.3370 H   0  0  0  0  0  0  0  0  0  0  0  0
    3.0464    0.6710   -1.5257 H   0  0  0  0  0  0  0  0  0  0  0  0
   -1.2865   -3.4202    0.6643 H   0  0  0  0  0  0  0  0  0  0  0  0
   -2.4552   -3.8813   -2.1650 H   0  0  0  0  0  0  0  0  0  0  0  0
   -2.8591   -4.8077   -0.6929 H   0  0  0  0  0  0  0  0  0  0  0  0
   -0.4825   -4.7551   -2.1947 H   0  0  0  0  0  0  0  0  0  0  0  0
   -5.9538   -3.8555   -0.8441 H   0  0  0  0  0  0  0  0  0  0  0  0
   -5.2109   -4.6231    1.7721 H   0  0  0  0  0  0  0  0  0  0  0  0
   -8.1593   -4.0576   -0.0522 H   0  0  0  0  0  0  0  0  0  0  0  0
   -7.0782   -3.6970    2.5412 H   0  0  0  0  0  0  0  0  0  0  0  0
   -7.5615   -1.7054   -0.5652 H   0  0  0  0  0  0  0  0  0  0  0  0
   -9.5304   -2.0840    1.4437 H   0  0  0  0  0  0  0  0  0  0  0  0
  1 52  1  0  0  0  0
  1 53  1  0  0  0  0
  1 54  1  0  0  0  0
  2  1  1  0  0  0  0
  2  3  1  0  0  0  0
  2 55  1  6  0  0  0
  3  4  1  0  0  0  0
  4  5  1  0  0  0  0
  4 46  1  0  0  0  0
  4 56  1  6  0  0  0
  6  5  1  0  0  0  0
  6  7  1  0  0  0  0
  6 57  1  6  0  0  0
  7  8  1  0  0  0  0
  7  9  1  0  0  0  0
  7 58  1  1  0  0  0
  8 59  1  0  0  0  0
  9 10  1  0  0  0  0
  9 21  1  0  0  0  0
  9 60  1  6  0  0  0
 11 10  1  0  0  0  0
 11 12  1  0  0  0  0
 11 61  1  6  0  0  0
 12 13  1  0  0  0  0
 13 14  1  0  0  0  0
 13 15  1  0  0  0  0
 13 62  1  6  0  0  0
 14 63  1  0  0  0  0
 14 64  1  0  0  0  0
 14 65  1  0  0  0  0
 15 16  1  0  0  0  0
 15 17  1  0  0  0  0
 15 66  1  1  0  0  0
 16 67  1  0  0  0  0
 17 18  1  0  0  0  0
 17 19  1  0  0  0  0
 17 68  1  1  0  0  0
 18 69  1  0  0  0  0
 19 20  1  0  0  0  0
 19 11  1  0  0  0  0
 19 70  1  6  0  0  0
 20 71  1  0  0  0  0
 21 22  1  0  0  0  0
 21 42  1  0  0  0  0
 21 72  1  1  0  0  0
 22 23  1  0  0  0  0
 23 24  2  0  0  0  0
 24 25  1  0  0  0  0
 24 73  1  0  0  0  0
 25 26  1  0  0  0  0
 25 27  2  0  0  0  0
 26 74  1  0  0  0  0
 27 28  1  0  0  0  0
 28 29  2  0  0  0  0
 28 30  1  0  0  0  0
 30 31  2  0  0  0  0
 30 75  1  0  0  0  0
 31 32  1  0  0  0  0
 31 39  1  0  0  0  0
 32 33  2  0  0  0  0
 33 34  1  0  0  0  0
 33 76  1  0  0  0  0
 34 35  2  0  0  0  0
 34 77  1  0  0  0  0
 35 36  1  0  0  0  0
 35 37  1  0  0  0  0
 36 78  1  0  0  0  0
 37 38  2  0  0  0  0
 37 79  1  0  0  0  0
 38 32  1  0  0  0  0
 38 80  1  0  0  0  0
 39 40  1  0  0  0  0
 40 41  2  0  0  0  0
 40 27  1  0  0  0  0
 41 23  1  0  0  0  0
 41 81  1  0  0  0  0
 42 43  1  0  0  0  0
 43 44  1  0  0  0  0
 43  6  1  0  0  0  0
 43 82  1  1  0  0  0
 44 45  1  0  0  0  0
 44 83  1  0  0  0  0
 44 84  1  0  0  0  0
 45 85  1  0  0  0  0
 46 47  1  0  0  0  0
 46 48  1  0  0  0  0
 46 86  1  6  0  0  0
 47 87  1  0  0  0  0
 48 49  1  0  0  0  0
 48 50  1  0  0  0  0
 48 88  1  6  0  0  0
 49 89  1  0  0  0  0
 50 51  1  0  0  0  0
 50  2  1  0  0  0  0
 50 90  1  6  0  0  0
 51 91  1  0  0  0  0
M  END
>  <IDENTIFIER>
CNP0269012.1

>  <Energy>
1061.31

$$$$
