
 OpenBabel09072502063D

 49 52  0  0  0  0  0  0  0  0999 V2000
    5.6199   -1.9894    0.7347 C   0  0  0  0  0  0  0  0  0  0  0  0
    4.6942   -0.9885    0.5207 O   0  0  0  0  0  0  0  0  0  0  0  0
    3.3584   -1.1473    0.3230 C   0  0  0  0  0  0  0  0  0  0  0  0
    2.7671   -2.4185    0.4181 C   0  0  0  0  0  0  0  0  0  0  0  0
    1.4034   -2.5809    0.2388 C   0  0  0  0  0  0  0  0  0  0  0  0
    0.5954   -1.4900   -0.0855 C   0  0  0  0  0  0  0  0  0  0  0  0
   -0.8838   -1.6918   -0.2740 C   0  0  0  0  0  0  0  0  0  0  0  0
   -1.6298   -0.5622    0.4787 C   0  0  1  0  0  0  0  0  0  0  0  0
   -1.1883    0.7603   -0.1687 C   0  0  0  0  0  0  0  0  0  0  0  0
   -2.1241    1.7888   -0.4123 C   0  0  0  0  0  0  0  0  0  0  0  0
   -1.7340    2.9443   -1.0865 C   0  0  0  0  0  0  0  0  0  0  0  0
   -0.4207    3.1071   -1.5195 C   0  0  0  0  0  0  0  0  0  0  0  0
   -0.0723    4.2216   -2.1979 O   0  0  0  0  0  0  0  0  0  0  0  0
    0.5400    2.1145   -1.2601 C   0  0  0  0  0  0  0  0  0  0  0  0
    1.7858    2.2762   -1.7525 O   0  0  0  0  0  0  0  0  0  0  0  0
    0.1788    0.9309   -0.5495 C   0  0  0  0  0  0  0  0  0  0  0  0
    1.1470   -0.1943   -0.2247 C   0  0  0  0  0  0  0  0  0  0  0  0
    2.5441   -0.0162    0.0250 C   0  0  0  0  0  0  0  0  0  0  0  0
    3.0441    1.2500    0.0339 O   0  0  0  0  0  0  0  0  0  0  0  0
    4.2999    1.6925    0.3933 C   0  0  0  0  0  0  0  0  0  0  0  0
   -3.5531    1.6808    0.0377 C   0  0  0  0  0  0  0  0  0  0  0  0
   -3.7540    0.5059    1.0018 C   0  0  0  0  0  0  0  0  0  0  0  0
   -3.1291   -0.7486    0.5098 N   0  3  0  0  0  0  0  0  0  0  0  0
   -3.6984   -1.1218   -0.8153 C   0  0  0  0  0  0  0  0  0  0  0  0
   -3.4818   -1.8230    1.4753 C   0  0  0  0  0  0  0  0  0  0  0  0
    6.6260   -1.5342    0.8396 H   0  0  0  0  0  0  0  0  0  0  0  0
    5.6373   -2.6838   -0.1329 H   0  0  0  0  0  0  0  0  0  0  0  0
    5.3828   -2.5441    1.6667 H   0  0  0  0  0  0  0  0  0  0  0  0
    3.3556   -3.2948    0.6529 H   0  0  0  0  0  0  0  0  0  0  0  0
    0.9772   -3.5720    0.3399 H   0  0  0  0  0  0  0  0  0  0  0  0
   -1.1729   -2.7050    0.0709 H   0  0  0  0  0  0  0  0  0  0  0  0
   -1.1114   -1.6199   -1.3599 H   0  0  0  0  0  0  0  0  0  0  0  0
   -1.2387   -0.5519    1.5244 H   0  0  0  0  0  0  0  0  0  0  0  0
   -2.4612    3.7236   -1.2834 H   0  0  0  0  0  0  0  0  0  0  0  0
   -0.7059    4.9250   -2.4018 H   0  0  0  0  0  0  0  0  0  0  0  0
    2.0666    3.0498   -2.2611 H   0  0  0  0  0  0  0  0  0  0  0  0
    4.3260    2.7982    0.3068 H   0  0  0  0  0  0  0  0  0  0  0  0
    5.0732    1.2801   -0.2870 H   0  0  0  0  0  0  0  0  0  0  0  0
    4.5105    1.4238    1.4508 H   0  0  0  0  0  0  0  0  0  0  0  0
   -4.1994    1.5915   -0.8613 H   0  0  0  0  0  0  0  0  0  0  0  0
   -3.8586    2.6018    0.5811 H   0  0  0  0  0  0  0  0  0  0  0  0
   -4.8474    0.3870    1.1812 H   0  0  0  0  0  0  0  0  0  0  0  0
   -3.2918    0.7824    1.9793 H   0  0  0  0  0  0  0  0  0  0  0  0
   -4.8110   -1.1290   -0.7830 H   0  0  0  0  0  0  0  0  0  0  0  0
   -3.3802   -2.1413   -1.1240 H   0  0  0  0  0  0  0  0  0  0  0  0
   -3.3751   -0.4245   -1.6164 H   0  0  0  0  0  0  0  0  0  0  0  0
   -4.5864   -1.9429    1.5560 H   0  0  0  0  0  0  0  0  0  0  0  0
   -3.0943   -1.5957    2.4940 H   0  0  0  0  0  0  0  0  0  0  0  0
   -3.0763   -2.8088    1.1689 H   0  0  0  0  0  0  0  0  0  0  0  0
  1  2  1  0  0  0  0
  1 26  1  0  0  0  0
  1 27  1  0  0  0  0
  1 28  1  0  0  0  0
  2  3  1  0  0  0  0
  3  4  2  0  0  0  0
  4  5  1  0  0  0  0
  4 29  1  0  0  0  0
  5  6  2  0  0  0  0
  5 30  1  0  0  0  0
  6  7  1  0  0  0  0
  7 31  1  0  0  0  0
  7 32  1  0  0  0  0
  8  7  1  0  0  0  0
  8  9  1  0  0  0  0
  8 33  1  1  0  0  0
  9 10  2  0  0  0  0
 10 11  1  0  0  0  0
 10 21  1  0  0  0  0
 11 12  2  0  0  0  0
 11 34  1  0  0  0  0
 12 13  1  0  0  0  0
 12 14  1  0  0  0  0
 13 35  1  0  0  0  0
 14 15  1  0  0  0  0
 14 16  2  0  0  0  0
 15 36  1  0  0  0  0
 16 17  1  0  0  0  0
 16  9  1  0  0  0  0
 17 18  2  0  0  0  0
 17  6  1  0  0  0  0
 18 19  1  0  0  0  0
 18  3  1  0  0  0  0
 19 20  1  0  0  0  0
 20 37  1  0  0  0  0
 20 38  1  0  0  0  0
 20 39  1  0  0  0  0
 21 22  1  0  0  0  0
 21 40  1  0  0  0  0
 21 41  1  0  0  0  0
 22 23  1  0  0  0  0
 22 42  1  0  0  0  0
 22 43  1  0  0  0  0
 23 24  1  0  0  0  0
 23 25  1  0  0  0  0
 23  8  1  0  0  0  0
 24 44  1  0  0  0  0
 24 45  1  0  0  0  0
 24 46  1  0  0  0  0
 25 47  1  0  0  0  0
 25 48  1  0  0  0  0
 25 49  1  0  0  0  0
M  CHG  1  23   1
M  END
>  <IDENTIFIER>
CNP0493870.1

>  <Energy>
450.01

$$$$
