
 OpenBabel09082501563D

 61 56  0  0  0  0  0  0  0  0999 V2000
    2.7822   -2.6948   -2.1710 N   0  0  0  0  0  0  0  0  0  0  0  0
    1.4214   -3.1232   -2.5126 C   0  0  1  0  0  0  0  0  0  0  0  0
    0.7033   -2.0966   -3.4428 C   0  0  2  0  0  0  0  0  0  0  0  0
    0.6857   -0.8132   -2.8851 O   0  0  0  0  0  0  0  0  0  0  0  0
   -0.6170   -2.5211   -3.8162 O   0  0  0  0  0  0  0  0  0  0  0  0
   -1.4771   -2.9585   -2.7525 C   0  0  2  0  0  0  0  0  0  0  0  0
   -2.7491   -2.0232   -2.6807 C   0  0  0  0  0  0  0  0  0  0  0  0
   -2.3794   -0.6756   -2.4331 O   0  0  0  0  0  0  0  0  0  0  0  0
   -0.8120   -2.9573   -1.3858 C   0  0  1  0  0  0  0  0  0  0  0  0
   -1.6664   -3.3903   -0.3696 O   0  0  0  0  0  0  0  0  0  0  0  0
    0.6042   -3.5094   -1.2468 C   0  0  2  0  0  0  0  0  0  0  0  0
    1.1623   -2.9576   -0.0693 O   0  0  0  0  0  0  0  0  0  0  0  0
   -4.5217   -2.4152    3.2794 N   0  0  0  0  0  0  0  0  0  0  0  0
   -3.2014   -2.3642    2.6489 C   0  0  1  0  0  0  0  0  0  0  0  0
   -2.3338   -1.1828    3.1591 C   0  0  1  0  0  0  0  0  0  0  0  0
   -3.1217   -0.0645    3.4838 O   0  0  0  0  0  0  0  0  0  0  0  0
   -1.5738   -1.5610    4.2863 O   0  0  0  0  0  0  0  0  0  0  0  0
   -0.5078   -2.4507    3.9343 C   0  0  2  0  0  0  0  0  0  0  0  0
    0.7424   -1.6382    3.5309 C   0  0  0  0  0  0  0  0  0  0  0  0
    1.8496   -2.4679    3.3254 O   0  0  0  0  0  0  0  0  0  0  0  0
   -0.9174   -3.5234    2.8679 C   0  0  1  0  0  0  0  0  0  0  0  0
   -0.2722   -4.7444    3.1525 O   0  0  0  0  0  0  0  0  0  0  0  0
   -2.4581   -3.7096    2.9098 C   0  0  2  0  0  0  0  0  0  0  0  0
   -2.9530   -4.7176    2.0567 O   0  0  0  0  0  0  0  0  0  0  0  0
    7.0611   -1.5289    0.6471 O   0  0  0  0  0  0  0  0  0  0  0  0
    5.5382   -1.5818    0.8376 S   0  0  0  0  0  0  0  0  0  0  0  0
    5.3730   -1.5542    2.3655 O   0  0  0  0  0  0  0  0  0  0  0  0
    4.8455   -0.1619    0.1634 O   0  0  0  0  0  0  0  0  0  0  0  0
    4.9577   -3.0752    0.2161 O   0  0  0  0  0  0  0  0  0  0  0  0
    0.0000    0.0000    0.0000 Cl  0  5  0  0  0  0  0  0  0  0  0  0
    0.0000    0.0000    0.0000 Cl  0  5  0  0  0  0  0  0  0  0  0  0
    0.0000    0.0000    0.0000 K   0  3  0  0  0  0  0  0  0  0  0  0
    0.0000    0.0000    0.0000 K   0  3  0  0  0  0  0  0  0  0  0  0
    2.7506   -1.7891   -1.6389 H   0  0  0  0  0  0  0  0  0  0  0  0
    3.3331   -2.5206   -3.0450 H   0  0  0  0  0  0  0  0  0  0  0  0
    1.4886   -4.0500   -3.1186 H   0  0  0  0  0  0  0  0  0  0  0  0
    1.3110   -2.0367   -4.3718 H   0  0  0  0  0  0  0  0  0  0  0  0
    0.1164   -0.2415   -3.4627 H   0  0  0  0  0  0  0  0  0  0  0  0
   -1.7995   -3.9972   -2.9656 H   0  0  0  0  0  0  0  0  0  0  0  0
   -3.4239   -2.3893   -1.8781 H   0  0  0  0  0  0  0  0  0  0  0  0
   -3.3002   -2.0545   -3.6351 H   0  0  0  0  0  0  0  0  0  0  0  0
   -2.9662   -0.3331   -1.7205 H   0  0  0  0  0  0  0  0  0  0  0  0
   -0.6763   -1.9247   -1.3214 H   0  0  0  0  0  0  0  0  0  0  0  0
   -1.8951   -2.5845    0.1545 H   0  0  0  0  0  0  0  0  0  0  0  0
    0.5750   -4.6164   -1.1433 H   0  0  0  0  0  0  0  0  0  0  0  0
    1.8829   -3.5653    0.2415 H   0  0  0  0  0  0  0  0  0  0  0  0
   -5.0853   -3.1448    2.7832 H   0  0  0  0  0  0  0  0  0  0  0  0
   -5.0250   -1.5144    3.1075 H   0  0  0  0  0  0  0  0  0  0  0  0
   -3.3695   -2.1579    1.5719 H   0  0  0  0  0  0  0  0  0  0  0  0
   -1.6305   -0.9039    2.3405 H   0  0  0  0  0  0  0  0  0  0  0  0
   -2.9355    0.6488    2.8199 H   0  0  0  0  0  0  0  0  0  0  0  0
   -0.2808   -3.0018    4.8725 H   0  0  0  0  0  0  0  0  0  0  0  0
    0.9669   -0.9072    4.3384 H   0  0  0  0  0  0  0  0  0  0  0  0
    0.5392   -1.0742    2.6003 H   0  0  0  0  0  0  0  0  0  0  0  0
    2.5912   -1.8572    3.0634 H   0  0  0  0  0  0  0  0  0  0  0  0
   -0.6417   -3.1550    1.8615 H   0  0  0  0  0  0  0  0  0  0  0  0
    0.3010   -4.9827    2.3790 H   0  0  0  0  0  0  0  0  0  0  0  0
   -2.6687   -4.0255    3.9533 H   0  0  0  0  0  0  0  0  0  0  0  0
   -2.2755   -4.9264    1.3650 H   0  0  0  0  0  0  0  0  0  0  0  0
    3.9508   -0.0913    0.5821 H   0  0  0  0  0  0  0  0  0  0  0  0
    4.3825   -3.4485    0.9304 H   0  0  0  0  0  0  0  0  0  0  0  0
  1 34  1  0  0  0  0
  1 35  1  0  0  0  0
  2  1  1  0  0  0  0
  2  3  1  0  0  0  0
  2 36  1  1  0  0  0
  3  4  1  0  0  0  0
  3  5  1  0  0  0  0
  3 37  1  6  0  0  0
  4 38  1  0  0  0  0
  5  6  1  0  0  0  0
  6  7  1  0  0  0  0
  6  9  1  0  0  0  0
  6 39  1  6  0  0  0
  7  8  1  0  0  0  0
  7 40  1  0  0  0  0
  7 41  1  0  0  0  0
  8 42  1  0  0  0  0
  9 10  1  0  0  0  0
  9 11  1  0  0  0  0
  9 43  1  1  0  0  0
 10 44  1  0  0  0  0
 11 12  1  0  0  0  0
 11  2  1  0  0  0  0
 11 45  1  1  0  0  0
 12 46  1  0  0  0  0
 13 47  1  0  0  0  0
 13 48  1  0  0  0  0
 14 13  1  0  0  0  0
 14 15  1  0  0  0  0
 14 49  1  6  0  0  0
 15 16  1  0  0  0  0
 15 17  1  0  0  0  0
 15 50  1  6  0  0  0
 16 51  1  0  0  0  0
 17 18  1  0  0  0  0
 18 19  1  0  0  0  0
 18 21  1  0  0  0  0
 18 52  1  1  0  0  0
 19 20  1  0  0  0  0
 19 53  1  0  0  0  0
 19 54  1  0  0  0  0
 20 55  1  0  0  0  0
 21 22  1  0  0  0  0
 21 23  1  0  0  0  0
 21 56  1  6  0  0  0
 22 57  1  0  0  0  0
 23 24  1  0  0  0  0
 23 14  1  0  0  0  0
 23 58  1  1  0  0  0
 24 59  1  0  0  0  0
 25 26  2  0  0  0  0
 26 27  2  0  0  0  0
 26 28  1  0  0  0  0
 26 29  1  0  0  0  0
 28 60  1  0  0  0  0
 29 61  1  0  0  0  0
M  CHG  4  30  -1  31  -1  32   1  33   1
M  END
>  <IDENTIFIER>
CNP0194094.4

>  <Energy>
3.22848e+37

$$$$
