
 OpenBabel09112506243D

 56 59  0  0  0  0  0  0  0  0999 V2000
    5.9199    2.2288   -0.9758 C   0  0  0  0  0  0  0  0  0  0  0  0
    4.6902    1.5648   -0.3311 C   0  0  0  0  0  0  0  0  0  0  0  0
    5.1823    0.5461    0.7097 C   0  0  0  0  0  0  0  0  0  0  0  0
    3.7854    0.9231   -1.3821 C   0  0  0  0  0  0  0  0  0  0  0  0
    4.1415    0.8992   -2.5523 O   0  0  0  0  0  0  0  0  0  0  0  0
    2.5718    0.3968   -1.0614 N   0  0  0  0  0  0  0  0  0  0  0  0
    1.5480   -0.1961   -1.8795 C   0  0  0  0  0  0  0  0  0  0  0  0
    0.7053   -0.4599   -0.6120 C   0  0  0  0  0  0  0  0  0  0  0  0
   -0.7000    0.1939   -0.5483 C   0  0  0  0  0  0  0  0  0  0  0  0
   -1.3856   -0.1159    0.7149 N   0  0  0  0  0  0  0  0  0  0  0  0
   -2.6968    0.2364    1.0020 C   0  0  0  0  0  0  0  0  0  0  0  0
   -3.1416   -0.1012    2.0929 O   0  0  0  0  0  0  0  0  0  0  0  0
   -3.6849    0.9902    0.1118 C   0  0  0  0  0  0  0  0  0  0  0  0
   -3.4227    1.5310   -1.1706 C   0  0  0  0  0  0  0  0  0  0  0  0
   -4.4186    2.1895   -1.8936 C   0  0  0  0  0  0  0  0  0  0  0  0
   -5.6997    2.3331   -1.3724 C   0  0  0  0  0  0  0  0  0  0  0  0
   -6.0151    1.8209   -0.1072 C   0  0  0  0  0  0  0  0  0  0  0  0
   -7.4036    1.9893    0.4316 C   0  0  0  0  0  0  0  0  0  0  0  0
   -8.2397    2.5693   -0.2448 O   0  0  0  0  0  0  0  0  0  0  0  0
   -7.7856    1.5240    1.6440 O   0  0  0  0  0  0  0  0  0  0  0  0
   -5.0041    1.1581    0.6167 C   0  0  0  0  0  0  0  0  0  0  0  0
   -0.6212   -0.9007    1.6965 C   0  0  0  0  0  0  0  0  0  0  0  0
   -0.0986   -2.1725    1.0046 C   0  0  2  0  0  0  0  0  0  0  0  0
    0.8813   -2.9826    1.8506 C   0  0  0  0  0  0  0  0  0  0  0  0
    1.5381   -3.8359    0.7820 C   0  0  1  0  0  0  0  0  0  0  0  0
    0.6279   -4.8293    0.3504 O   0  0  0  0  0  0  0  0  0  0  0  0
    1.8078   -2.7592   -0.2808 C   0  0  0  0  0  0  0  0  0  0  0  0
    0.5977   -1.9066   -0.2754 N   0  0  2  0  0  0  0  0  0  0  0  0
    1.8151    0.3060    0.1541 C   0  0  0  0  0  0  0  0  0  0  0  0
    6.5387    2.7293   -0.2001 H   0  0  0  0  0  0  0  0  0  0  0  0
    5.6020    2.9993   -1.7098 H   0  0  0  0  0  0  0  0  0  0  0  0
    6.5490    1.4731   -1.4954 H   0  0  0  0  0  0  0  0  0  0  0  0
    4.1124    2.3633    0.1832 H   0  0  0  0  0  0  0  0  0  0  0  0
    5.7602   -0.2663    0.2197 H   0  0  0  0  0  0  0  0  0  0  0  0
    4.3565    0.0934    1.2793 H   0  0  0  0  0  0  0  0  0  0  0  0
    5.8365    1.0498    1.4536 H   0  0  0  0  0  0  0  0  0  0  0  0
    1.9204   -1.1035   -2.4003 H   0  0  0  0  0  0  0  0  0  0  0  0
    1.1358    0.5772   -2.5639 H   0  0  0  0  0  0  0  0  0  0  0  0
   -1.2778   -0.2685   -1.3768 H   0  0  0  0  0  0  0  0  0  0  0  0
   -0.5994    1.2920   -0.6824 H   0  0  0  0  0  0  0  0  0  0  0  0
   -2.4812    1.4827   -1.6666 H   0  0  0  0  0  0  0  0  0  0  0  0
   -4.1951    2.5935   -2.8730 H   0  0  0  0  0  0  0  0  0  0  0  0
   -6.4448    2.8487   -1.9653 H   0  0  0  0  0  0  0  0  0  0  0  0
   -7.2138    1.0544    2.2626 H   0  0  0  0  0  0  0  0  0  0  0  0
   -5.2430    0.7602    1.5875 H   0  0  0  0  0  0  0  0  0  0  0  0
   -1.1941   -1.1912    2.6019 H   0  0  0  0  0  0  0  0  0  0  0  0
    0.2230   -0.2860    2.0658 H   0  0  0  0  0  0  0  0  0  0  0  0
   -0.9748   -2.8130    0.7557 H   0  0  0  0  0  0  0  0  0  0  0  0
    0.4143   -3.5440    2.6876 H   0  0  0  0  0  0  0  0  0  0  0  0
    1.6569   -2.3003    2.2687 H   0  0  0  0  0  0  0  0  0  0  0  0
    2.4696   -4.3438    1.1112 H   0  0  0  0  0  0  0  0  0  0  0  0
    0.2666   -4.6007   -0.5455 H   0  0  0  0  0  0  0  0  0  0  0  0
    2.0250   -3.1900   -1.2812 H   0  0  0  0  0  0  0  0  0  0  0  0
    2.7003   -2.1869    0.0410 H   0  0  0  0  0  0  0  0  0  0  0  0
    2.2988   -0.2795    0.9523 H   0  0  0  0  0  0  0  0  0  0  0  0
    1.5403    1.3345    0.4756 H   0  0  0  0  0  0  0  0  0  0  0  0
  1  2  1  0  0  0  0
  1 30  1  0  0  0  0
  1 31  1  0  0  0  0
  1 32  1  0  0  0  0
  2  3  1  0  0  0  0
  2  4  1  0  0  0  0
  2 33  1  0  0  0  0
  3 34  1  0  0  0  0
  3 35  1  0  0  0  0
  3 36  1  0  0  0  0
  4  5  2  0  0  0  0
  4  6  1  0  0  0  0
  6  7  1  0  0  0  0
  7  8  1  0  0  0  0
  7 37  1  0  0  0  0
  7 38  1  0  0  0  0
  8  9  1  0  0  0  0
  8 29  1  0  0  0  0
  9 10  1  0  0  0  0
  9 39  1  0  0  0  0
  9 40  1  0  0  0  0
 10 11  1  0  0  0  0
 10 22  1  0  0  0  0
 11 12  2  0  0  0  0
 11 13  1  0  0  0  0
 13 14  2  0  0  0  0
 14 15  1  0  0  0  0
 14 41  1  0  0  0  0
 15 16  2  0  0  0  0
 15 42  1  0  0  0  0
 16 17  1  0  0  0  0
 16 43  1  0  0  0  0
 17 18  1  0  0  0  0
 17 21  2  0  0  0  0
 18 19  2  0  0  0  0
 18 20  1  0  0  0  0
 20 44  1  0  0  0  0
 21 13  1  0  0  0  0
 21 45  1  0  0  0  0
 22 46  1  0  0  0  0
 22 47  1  0  0  0  0
 23 22  1  0  0  0  0
 23 24  1  0  0  0  0
 23 48  1  6  0  0  0
 24 25  1  0  0  0  0
 24 49  1  0  0  0  0
 24 50  1  0  0  0  0
 25 26  1  0  0  0  0
 25 27  1  0  0  0  0
 25 51  1  1  0  0  0
 26 52  1  0  0  0  0
 27 53  1  0  0  0  0
 27 54  1  0  0  0  0
 28 27  1  1  0  0  0
 28  8  1  0  0  0  0
 28 23  1  0  0  0  0
 29  6  1  0  0  0  0
 29 55  1  0  0  0  0
 29 56  1  0  0  0  0
M  END
>  <IDENTIFIER>
CNP0016831.2

>  <Energy>
1071.82

$$$$
