
 OpenBabel09062500353D

110114  0  0  0  0  0  0  0  0999 V2000
    4.2621    6.2437   -1.3881 C   0  0  0  0  0  0  0  0  0  0  0  0
    4.8823    5.1566   -0.5476 C   0  0  0  0  0  0  0  0  0  0  0  0
    6.3803    4.9808   -0.5418 C   0  0  0  0  0  0  0  0  0  0  0  0
    4.1400    4.3226    0.2108 C   0  0  0  0  0  0  0  0  0  0  0  0
    2.6443    4.3575    0.3567 C   0  0  0  0  0  0  0  0  0  0  0  0
    1.8856    3.1199   -0.1885 C   0  0  0  0  0  0  0  0  0  0  0  0
    2.2487    1.6857    0.2996 C   0  0  2  0  0  0  0  0  0  0  0  0
    2.2471    1.7195    1.8647 C   0  0  0  0  0  0  0  0  0  0  0  0
    3.4831    1.3165   -0.3522 O   0  0  0  0  0  0  0  0  0  0  0  0
    4.6373    0.9510    0.3983 C   0  0  0  0  0  0  0  0  0  0  0  0
    5.2726   -0.3302   -0.1627 C   0  0  2  0  0  0  0  0  0  0  0  0
    4.4415   -1.4463    0.0673 O   0  0  0  0  0  0  0  0  0  0  0  0
    4.8675   -2.6024   -0.6672 C   0  0  2  0  0  0  0  0  0  0  0  0
    4.2973   -3.8536    0.0317 C   0  0  0  0  0  0  0  0  0  0  0  0
    2.8943   -3.8097    0.0449 O   0  0  0  0  0  0  0  0  0  0  0  0
    6.4326   -2.7138   -0.8228 C   0  0  1  0  0  0  0  0  0  0  0  0
    6.8739   -2.0362   -1.9733 O   0  0  0  0  0  0  0  0  0  0  0  0
    7.0986   -2.0609    0.4043 C   0  0  2  0  0  0  0  0  0  0  0  0
    6.7480   -2.7690    1.5732 O   0  0  0  0  0  0  0  0  0  0  0  0
    6.6756   -0.5581    0.4842 C   0  0  1  0  0  0  0  0  0  0  0  0
    7.6271    0.2926   -0.1110 O   0  0  0  0  0  0  0  0  0  0  0  0
    1.1850    0.6295   -0.2410 C   0  0  1  0  0  0  0  0  0  0  0  0
    1.5249   -0.8052    0.2805 C   0  0  0  0  0  0  0  0  0  0  0  0
    0.2263   -1.3608    0.8614 C   0  0  0  0  0  0  0  0  0  0  0  0
   -0.8662   -0.7394   -0.0164 C   0  0  2  0  0  0  0  0  0  0  0  0
   -0.7322   -1.4171   -1.4514 C   0  0  0  0  0  0  0  0  0  0  0  0
   -0.3774    0.7505   -0.0131 C   0  0  2  0  0  0  0  0  0  0  0  0
   -1.3041    1.5667   -0.9783 C   0  0  2  0  0  0  0  0  0  0  0  0
   -0.9501    2.9166   -1.0880 O   0  0  0  0  0  0  0  0  0  0  0  0
   -2.8000    1.4573   -0.5434 C   0  0  0  0  0  0  0  0  0  0  0  0
   -3.3078   -0.0130   -0.4328 C   0  0  2  0  0  0  0  0  0  0  0  0
   -4.8889   -0.1619   -0.2749 C   0  0  1  0  0  0  0  0  0  0  0  0
   -5.4203    0.6176    0.9682 C   0  0  0  0  0  0  0  0  0  0  0  0
   -5.5692    0.4654   -1.5670 C   0  0  0  0  0  0  0  0  0  0  0  0
   -6.7104   -0.3712   -2.1979 C   0  0  0  0  0  0  0  0  0  0  0  0
   -7.6296   -0.9587   -1.1294 C   0  0  2  0  0  0  0  0  0  0  0  0
   -8.1845    0.0835   -0.3706 O   0  0  0  0  0  0  0  0  0  0  0  0
   -6.8344   -2.0102   -0.2437 C   0  0  0  0  0  0  0  0  0  0  0  0
   -7.4642   -2.0931    1.1725 C   0  0  0  0  0  0  0  0  0  0  0  0
   -7.0669   -3.4050   -0.9031 C   0  0  0  0  0  0  0  0  0  0  0  0
   -5.2534   -1.7026   -0.2283 C   0  0  2  0  0  0  0  0  0  0  0  0
   -4.4024   -2.4711    0.8458 C   0  0  1  0  0  0  0  0  0  0  0  0
   -4.7011   -3.8430    0.8757 O   0  0  0  0  0  0  0  0  0  0  0  0
   -2.8828   -2.3137    0.5584 C   0  0  0  0  0  0  0  0  0  0  0  0
   -2.3801   -0.8438    0.5510 C   0  0  1  0  0  0  0  0  0  0  0  0
   -2.4339   -0.3372    2.0362 C   0  0  0  0  0  0  0  0  0  0  0  0
    5.0327    6.8189   -1.9423 H   0  0  0  0  0  0  0  0  0  0  0  0
    3.7105    6.9548   -0.7378 H   0  0  0  0  0  0  0  0  0  0  0  0
    3.5657    5.7968   -2.1285 H   0  0  0  0  0  0  0  0  0  0  0  0
    6.8853    5.7204   -1.1970 H   0  0  0  0  0  0  0  0  0  0  0  0
    6.6404    3.9623   -0.9014 H   0  0  0  0  0  0  0  0  0  0  0  0
    6.7696    5.1092    0.4908 H   0  0  0  0  0  0  0  0  0  0  0  0
    4.6488    3.5885    0.8069 H   0  0  0  0  0  0  0  0  0  0  0  0
    2.2071    5.2414   -0.1510 H   0  0  0  0  0  0  0  0  0  0  0  0
    2.4306    4.4897    1.4387 H   0  0  0  0  0  0  0  0  0  0  0  0
    1.9126    3.1337   -1.3004 H   0  0  0  0  0  0  0  0  0  0  0  0
    0.8701    3.3249    0.1630 H   0  0  0  0  0  0  0  0  0  0  0  0
    3.0094    2.4251    2.2521 H   0  0  0  0  0  0  0  0  0  0  0  0
    2.4531    0.7462    2.3439 H   0  0  0  0  0  0  0  0  0  0  0  0
    1.2600    2.0537    2.2449 H   0  0  0  0  0  0  0  0  0  0  0  0
    4.4863    0.8175    1.4813 H   0  0  0  0  0  0  0  0  0  0  0  0
    5.3968    1.7395    0.2425 H   0  0  0  0  0  0  0  0  0  0  0  0
    5.3796   -0.1883   -1.2628 H   0  0  0  0  0  0  0  0  0  0  0  0
    4.3952   -2.6073   -1.6747 H   0  0  0  0  0  0  0  0  0  0  0  0
    4.6900   -3.9843    1.0611 H   0  0  0  0  0  0  0  0  0  0  0  0
    4.5984   -4.7633   -0.5293 H   0  0  0  0  0  0  0  0  0  0  0  0
    2.6185   -3.5175    0.9526 H   0  0  0  0  0  0  0  0  0  0  0  0
    6.7502   -3.7767   -0.9273 H   0  0  0  0  0  0  0  0  0  0  0  0
    6.3601   -2.3859   -2.7460 H   0  0  0  0  0  0  0  0  0  0  0  0
    8.2082   -2.1105    0.3452 H   0  0  0  0  0  0  0  0  0  0  0  0
    5.9531   -2.3491    1.9954 H   0  0  0  0  0  0  0  0  0  0  0  0
    6.6674   -0.2942    1.5665 H   0  0  0  0  0  0  0  0  0  0  0  0
    7.7053    0.0520   -1.0710 H   0  0  0  0  0  0  0  0  0  0  0  0
    1.2994    0.5991   -1.3478 H   0  0  0  0  0  0  0  0  0  0  0  0
    2.3210   -0.8972    1.0371 H   0  0  0  0  0  0  0  0  0  0  0  0
    1.8724   -1.4168   -0.5768 H   0  0  0  0  0  0  0  0  0  0  0  0
    0.1751   -0.9458    1.8866 H   0  0  0  0  0  0  0  0  0  0  0  0
    0.2085   -2.4702    0.9415 H   0  0  0  0  0  0  0  0  0  0  0  0
    0.2531   -1.2894   -1.9282 H   0  0  0  0  0  0  0  0  0  0  0  0
   -1.4060   -1.0397   -2.2338 H   0  0  0  0  0  0  0  0  0  0  0  0
   -0.8658   -2.5143   -1.3905 H   0  0  0  0  0  0  0  0  0  0  0  0
   -0.4780    1.1674    1.0053 H   0  0  0  0  0  0  0  0  0  0  0  0
   -1.2189    1.1485   -1.9999 H   0  0  0  0  0  0  0  0  0  0  0  0
   -1.2811    3.3899   -0.2790 H   0  0  0  0  0  0  0  0  0  0  0  0
   -3.4026    2.0185   -1.2868 H   0  0  0  0  0  0  0  0  0  0  0  0
   -2.9285    1.9663    0.4325 H   0  0  0  0  0  0  0  0  0  0  0  0
   -3.1639   -0.4575   -1.4267 H   0  0  0  0  0  0  0  0  0  0  0  0
   -5.0801    1.6713    0.9541 H   0  0  0  0  0  0  0  0  0  0  0  0
   -5.1728    0.1763    1.9337 H   0  0  0  0  0  0  0  0  0  0  0  0
   -6.5079    0.6965    0.9978 H   0  0  0  0  0  0  0  0  0  0  0  0
   -4.8506    0.5918   -2.4057 H   0  0  0  0  0  0  0  0  0  0  0  0
   -5.9264    1.4928   -1.3347 H   0  0  0  0  0  0  0  0  0  0  0  0
   -6.2856   -1.2145   -2.7818 H   0  0  0  0  0  0  0  0  0  0  0  0
   -7.2711    0.2647   -2.9182 H   0  0  0  0  0  0  0  0  0  0  0  0
   -8.4890   -1.4819   -1.6138 H   0  0  0  0  0  0  0  0  0  0  0  0
   -8.8608    0.5356   -0.9401 H   0  0  0  0  0  0  0  0  0  0  0  0
   -8.5485   -2.3264    1.0984 H   0  0  0  0  0  0  0  0  0  0  0  0
   -7.3651   -1.1556    1.7451 H   0  0  0  0  0  0  0  0  0  0  0  0
   -6.9914   -2.8972    1.7733 H   0  0  0  0  0  0  0  0  0  0  0  0
   -8.1535   -3.6279   -0.9797 H   0  0  0  0  0  0  0  0  0  0  0  0
   -6.6473   -4.2444   -0.3255 H   0  0  0  0  0  0  0  0  0  0  0  0
   -6.6458   -3.4400   -1.9305 H   0  0  0  0  0  0  0  0  0  0  0  0
   -4.8808   -2.0858   -1.2055 H   0  0  0  0  0  0  0  0  0  0  0  0
   -4.6496   -2.0852    1.8506 H   0  0  0  0  0  0  0  0  0  0  0  0
   -4.4021   -4.2433    0.0173 H   0  0  0  0  0  0  0  0  0  0  0  0
   -2.7343   -2.7685   -0.4376 H   0  0  0  0  0  0  0  0  0  0  0  0
   -2.2923   -2.9104    1.2883 H   0  0  0  0  0  0  0  0  0  0  0  0
   -3.3867   -0.4836    2.5388 H   0  0  0  0  0  0  0  0  0  0  0  0
   -2.1860    0.7308    2.1601 H   0  0  0  0  0  0  0  0  0  0  0  0
   -1.7650   -0.9298    2.6866 H   0  0  0  0  0  0  0  0  0  0  0  0
  1  2  1  0  0  0  0
  1 47  1  0  0  0  0
  1 48  1  0  0  0  0
  1 49  1  0  0  0  0
  2  3  1  0  0  0  0
  2  4  2  0  0  0  0
  3 50  1  0  0  0  0
  3 51  1  0  0  0  0
  3 52  1  0  0  0  0
  4  5  1  0  0  0  0
  4 53  1  0  0  0  0
  5  6  1  0  0  0  0
  5 54  1  0  0  0  0
  5 55  1  0  0  0  0
  6  7  1  0  0  0  0
  6 56  1  0  0  0  0
  6 57  1  0  0  0  0
  7  8  1  0  0  0  0
  7  9  1  6  0  0  0
  7 22  1  0  0  0  0
  8 58  1  0  0  0  0
  8 59  1  0  0  0  0
  8 60  1  0  0  0  0
  9 10  1  0  0  0  0
 10 61  1  0  0  0  0
 10 62  1  0  0  0  0
 11 10  1  0  0  0  0
 11 12  1  0  0  0  0
 11 63  1  6  0  0  0
 12 13  1  0  0  0  0
 13 14  1  0  0  0  0
 13 16  1  0  0  0  0
 13 64  1  6  0  0  0
 14 15  1  0  0  0  0
 14 65  1  0  0  0  0
 14 66  1  0  0  0  0
 15 67  1  0  0  0  0
 16 17  1  0  0  0  0
 16 18  1  0  0  0  0
 16 68  1  6  0  0  0
 17 69  1  0  0  0  0
 18 19  1  0  0  0  0
 18 20  1  0  0  0  0
 18 70  1  6  0  0  0
 19 71  1  0  0  0  0
 20 21  1  0  0  0  0
 20 11  1  0  0  0  0
 20 72  1  1  0  0  0
 21 73  1  0  0  0  0
 22 23  1  0  0  0  0
 22 74  1  6  0  0  0
 23 24  1  0  0  0  0
 23 75  1  0  0  0  0
 23 76  1  0  0  0  0
 24 25  1  0  0  0  0
 24 77  1  0  0  0  0
 24 78  1  0  0  0  0
 25 26  1  6  0  0  0
 25 27  1  0  0  0  0
 26 79  1  0  0  0  0
 26 80  1  0  0  0  0
 26 81  1  0  0  0  0
 27 28  1  0  0  0  0
 27 22  1  0  0  0  0
 27 82  1  1  0  0  0
 28 29  1  0  0  0  0
 28 30  1  0  0  0  0
 28 83  1  6  0  0  0
 29 84  1  0  0  0  0
 30 85  1  0  0  0  0
 30 86  1  0  0  0  0
 31 30  1  0  0  0  0
 31 32  1  0  0  0  0
 31 87  1  6  0  0  0
 32 33  1  1  0  0  0
 32 34  1  0  0  0  0
 33 88  1  0  0  0  0
 33 89  1  0  0  0  0
 33 90  1  0  0  0  0
 34 35  1  0  0  0  0
 34 91  1  0  0  0  0
 34 92  1  0  0  0  0
 35 36  1  0  0  0  0
 35 93  1  0  0  0  0
 35 94  1  0  0  0  0
 36 37  1  0  0  0  0
 36 38  1  0  0  0  0
 36 95  1  6  0  0  0
 37 96  1  0  0  0  0
 38 39  1  0  0  0  0
 38 40  1  0  0  0  0
 39 97  1  0  0  0  0
 39 98  1  0  0  0  0
 39 99  1  0  0  0  0
 40100  1  0  0  0  0
 40101  1  0  0  0  0
 40102  1  0  0  0  0
 41 38  1  0  0  0  0
 41 42  1  0  0  0  0
 41 32  1  0  0  0  0
 41103  1  6  0  0  0
 42 43  1  0  0  0  0
 42 44  1  0  0  0  0
 42104  1  1  0  0  0
 43105  1  0  0  0  0
 44 45  1  0  0  0  0
 44106  1  0  0  0  0
 44107  1  0  0  0  0
 45 46  1  1  0  0  0
 45 31  1  0  0  0  0
 45 25  1  0  0  0  0
 46108  1  0  0  0  0
 46109  1  0  0  0  0
 46110  1  0  0  0  0
M  END
>  <IDENTIFIER>
CNP0205748.1

>  <Energy>
1509.1

$$$$
