
 OpenBabel09082509123D

 60 62  0  0  0  0  0  0  0  0999 V2000
    4.6786   -1.9687    0.2820 C   0  0  0  0  0  0  0  0  0  0  0  0
    4.9633   -0.6589    0.1144 C   0  0  0  0  0  0  0  0  0  0  0  0
    6.1251   -0.0141    0.8603 C   0  0  0  0  0  0  0  0  0  0  0  0
    6.8245   -0.9186    1.6751 O   0  0  0  0  0  0  0  0  0  0  0  0
    4.1549    0.2420   -0.8309 C   0  0  1  0  0  0  0  0  0  0  0  0
    3.1004   -0.4604   -1.7155 C   0  0  0  0  0  0  0  0  0  0  0  0
    1.7976   -0.6794   -0.9871 C   0  0  0  0  0  0  0  0  0  0  0  0
    1.1577   -1.8608   -1.1008 C   0  0  0  0  0  0  0  0  0  0  0  0
   -0.2264   -2.0348   -0.6031 C   0  0  0  0  0  0  0  0  0  0  0  0
   -0.8009   -3.0759   -0.8689 O   0  0  0  0  0  0  0  0  0  0  0  0
   -0.9002   -0.8767    0.1402 C   0  0  2  0  0  0  0  0  0  0  0  0
   -2.4306   -0.9727    0.6485 C   0  0  0  0  0  0  0  0  0  0  0  0
   -2.5118   -0.7673    2.1941 C   0  0  0  0  0  0  0  0  0  0  0  0
   -3.0846   -2.3521    0.3799 C   0  0  0  0  0  0  0  0  0  0  0  0
   -3.2770    0.1145   -0.0520 C   0  0  1  0  0  0  0  0  0  0  0  0
   -4.5873    0.1059    0.4069 O   0  0  0  0  0  0  0  0  0  0  0  0
   -5.7050   -0.1429   -0.3207 C   0  0  0  0  0  0  0  0  0  0  0  0
   -7.0367   -0.0894    0.3571 C   0  0  0  0  0  0  0  0  0  0  0  0
   -5.6410   -0.4090   -1.5122 O   0  0  0  0  0  0  0  0  0  0  0  0
   -2.7162    1.5423    0.1454 C   0  0  0  0  0  0  0  0  0  0  0  0
   -1.1669    1.6518    0.2539 C   0  0  2  0  0  0  0  0  0  0  0  0
   -0.7806    2.9543   -0.1051 O   0  0  0  0  0  0  0  0  0  0  0  0
   -0.4025    0.5181   -0.4964 C   0  0  2  0  0  0  0  0  0  0  0  0
   -0.6625    0.6562   -2.0320 C   0  0  0  0  0  0  0  0  0  0  0  0
    1.1704    0.5033   -0.2329 C   0  0  2  0  0  0  0  0  0  0  0  0
    2.0635    1.7809   -0.4416 C   0  0  1  0  0  0  0  0  0  0  0  0
    1.6515    2.8637    0.3511 O   0  0  0  0  0  0  0  0  0  0  0  0
    3.5223    1.4267   -0.0376 C   0  0  0  0  0  0  0  0  0  0  0  0
    5.2572   -2.5995    0.9474 H   0  0  0  0  0  0  0  0  0  0  0  0
    3.8626   -2.4575   -0.2318 H   0  0  0  0  0  0  0  0  0  0  0  0
    5.7709    0.8430    1.4754 H   0  0  0  0  0  0  0  0  0  0  0  0
    6.8387    0.4018    0.1190 H   0  0  0  0  0  0  0  0  0  0  0  0
    6.3217   -0.9806    2.5295 H   0  0  0  0  0  0  0  0  0  0  0  0
    4.8827    0.6523   -1.5665 H   0  0  0  0  0  0  0  0  0  0  0  0
    3.5065   -1.3617   -2.2244 H   0  0  0  0  0  0  0  0  0  0  0  0
    2.8534    0.2461   -2.5379 H   0  0  0  0  0  0  0  0  0  0  0  0
    1.6082   -2.6705   -1.6695 H   0  0  0  0  0  0  0  0  0  0  0  0
   -0.3646   -0.9661    1.1084 H   0  0  0  0  0  0  0  0  0  0  0  0
   -1.9361   -1.5597    2.7199 H   0  0  0  0  0  0  0  0  0  0  0  0
   -3.5617   -0.8273    2.5533 H   0  0  0  0  0  0  0  0  0  0  0  0
   -2.1118    0.2073    2.5252 H   0  0  0  0  0  0  0  0  0  0  0  0
   -2.5229   -3.1643    0.8892 H   0  0  0  0  0  0  0  0  0  0  0  0
   -3.1486   -2.5583   -0.7096 H   0  0  0  0  0  0  0  0  0  0  0  0
   -4.1244   -2.3878    0.7704 H   0  0  0  0  0  0  0  0  0  0  0  0
   -3.2447   -0.1385   -1.1296 H   0  0  0  0  0  0  0  0  0  0  0  0
   -6.9096    0.1665    1.4309 H   0  0  0  0  0  0  0  0  0  0  0  0
   -7.5377   -1.0768    0.2820 H   0  0  0  0  0  0  0  0  0  0  0  0
   -7.6716    0.6849   -0.1217 H   0  0  0  0  0  0  0  0  0  0  0  0
   -3.1225    2.0144    1.0678 H   0  0  0  0  0  0  0  0  0  0  0  0
   -3.1136    2.1326   -0.7095 H   0  0  0  0  0  0  0  0  0  0  0  0
   -0.8924    1.5179    1.3186 H   0  0  0  0  0  0  0  0  0  0  0  0
   -1.0915    3.1332   -1.0280 H   0  0  0  0  0  0  0  0  0  0  0  0
   -0.2027    1.5885   -2.4182 H   0  0  0  0  0  0  0  0  0  0  0  0
   -1.7276    0.6943   -2.3079 H   0  0  0  0  0  0  0  0  0  0  0  0
   -0.2197   -0.1745   -2.6144 H   0  0  0  0  0  0  0  0  0  0  0  0
    1.2939    0.2824    0.8503 H   0  0  0  0  0  0  0  0  0  0  0  0
    2.0328    2.1053   -1.5029 H   0  0  0  0  0  0  0  0  0  0  0  0
    1.6053    2.5572    1.2948 H   0  0  0  0  0  0  0  0  0  0  0  0
    3.4560    1.1376    1.0361 H   0  0  0  0  0  0  0  0  0  0  0  0
    4.1965    2.3096   -0.0799 H   0  0  0  0  0  0  0  0  0  0  0  0
  1  2  2  0  0  0  0
  1 29  1  0  0  0  0
  1 30  1  0  0  0  0
  2  3  1  0  0  0  0
  3  4  1  0  0  0  0
  3 31  1  0  0  0  0
  3 32  1  0  0  0  0
  4 33  1  0  0  0  0
  5  2  1  0  0  0  0
  5  6  1  0  0  0  0
  5 34  1  6  0  0  0
  6  7  1  0  0  0  0
  6 35  1  0  0  0  0
  6 36  1  0  0  0  0
  7  8  2  0  0  0  0
  8  9  1  0  0  0  0
  8 37  1  0  0  0  0
  9 10  2  0  0  0  0
  9 11  1  0  0  0  0
 11 12  1  0  0  0  0
 11 38  1  1  0  0  0
 12 13  1  0  0  0  0
 12 14  1  0  0  0  0
 12 15  1  0  0  0  0
 13 39  1  0  0  0  0
 13 40  1  0  0  0  0
 13 41  1  0  0  0  0
 14 42  1  0  0  0  0
 14 43  1  0  0  0  0
 14 44  1  0  0  0  0
 15 16  1  0  0  0  0
 15 20  1  0  0  0  0
 15 45  1  6  0  0  0
 16 17  1  0  0  0  0
 17 18  1  0  0  0  0
 17 19  2  0  0  0  0
 18 46  1  0  0  0  0
 18 47  1  0  0  0  0
 18 48  1  0  0  0  0
 20 21  1  0  0  0  0
 20 49  1  0  0  0  0
 20 50  1  0  0  0  0
 21 22  1  0  0  0  0
 21 23  1  0  0  0  0
 21 51  1  1  0  0  0
 22 52  1  0  0  0  0
 23 24  1  6  0  0  0
 23 25  1  0  0  0  0
 23 11  1  0  0  0  0
 24 53  1  0  0  0  0
 24 54  1  0  0  0  0
 24 55  1  0  0  0  0
 25 26  1  0  0  0  0
 25  7  1  0  0  0  0
 25 56  1  1  0  0  0
 26 27  1  0  0  0  0
 26 28  1  0  0  0  0
 26 57  1  6  0  0  0
 27 58  1  0  0  0  0
 28  5  1  0  0  0  0
 28 59  1  0  0  0  0
 28 60  1  0  0  0  0
M  END
>  <IDENTIFIER>
CNP0106309.2

>  <Energy>
763.754

$$$$
