
 OpenBabel09122520473D

 61 62  0  0  0  0  0  0  0  0999 V2000
   -7.5192    1.5384   -1.2287 C   0  0  0  0  0  0  0  0  0  0  0  0
   -7.4939    0.2014   -1.2337 C   0  0  0  0  0  0  0  0  0  0  0  0
   -7.1381   -0.6117    0.0024 C   0  0  2  0  0  0  0  0  0  0  0  0
   -7.2778   -2.1215   -0.3021 C   0  0  0  0  0  0  0  0  0  0  0  0
   -8.0182   -0.2829    1.0521 O   0  0  0  0  0  0  0  0  0  0  0  0
   -5.6963   -0.2856    0.4875 C   0  0  0  0  0  0  0  0  0  0  0  0
   -4.5885   -0.5430   -0.5489 C   0  0  0  0  0  0  0  0  0  0  0  0
   -3.2386   -0.2328    0.0589 C   0  0  0  0  0  0  0  0  0  0  0  0
   -2.2423   -1.1211    0.3134 C   0  0  0  0  0  0  0  0  0  0  0  0
   -2.3248   -2.6108    0.0344 C   0  0  0  0  0  0  0  0  0  0  0  0
   -0.9671   -0.6382    0.9108 C   0  0  0  0  0  0  0  0  0  0  0  0
   -0.1216   -1.4558    1.2515 O   0  0  0  0  0  0  0  0  0  0  0  0
   -0.7187    0.6958    1.0367 O   0  0  0  0  0  0  0  0  0  0  0  0
    0.5153    1.2313    1.3719 C   0  0  0  0  0  0  0  0  0  0  0  0
    1.5806    0.9218    0.2968 C   0  0  2  0  0  0  0  0  0  0  0  0
    2.8385    1.3945    0.7585 O   0  0  0  0  0  0  0  0  0  0  0  0
    3.8813    0.9302   -0.0866 C   0  0  2  0  0  0  0  0  0  0  0  0
    5.0932    1.3172    0.4612 O   0  0  0  0  0  0  0  0  0  0  0  0
    6.1165    0.5439    0.9213 C   0  0  0  0  0  0  0  0  0  0  0  0
    6.0603   -0.8667    1.0189 C   0  0  0  0  0  0  0  0  0  0  0  0
    7.1564   -1.5842    1.5063 C   0  0  0  0  0  0  0  0  0  0  0  0
    8.3201   -0.9141    1.9057 C   0  0  0  0  0  0  0  0  0  0  0  0
    9.3828   -1.5976    2.3784 O   0  0  0  0  0  0  0  0  0  0  0  0
    8.3806    0.4776    1.8142 C   0  0  0  0  0  0  0  0  0  0  0  0
    7.2864    1.1989    1.3272 C   0  0  0  0  0  0  0  0  0  0  0  0
    3.7408    1.5649   -1.4874 C   0  0  1  0  0  0  0  0  0  0  0  0
    4.7772    1.1482   -2.3425 O   0  0  0  0  0  0  0  0  0  0  0  0
    2.3624    1.2077   -2.0774 C   0  0  2  0  0  0  0  0  0  0  0  0
    2.1582    1.8292   -3.3212 O   0  0  0  0  0  0  0  0  0  0  0  0
    1.2510    1.5770   -1.0719 C   0  0  1  0  0  0  0  0  0  0  0  0
   -0.0069    1.1827   -1.5616 O   0  0  0  0  0  0  0  0  0  0  0  0
   -7.7838    2.0779   -2.1321 H   0  0  0  0  0  0  0  0  0  0  0  0
   -7.2835    2.1029   -0.3324 H   0  0  0  0  0  0  0  0  0  0  0  0
   -7.7479   -0.3130   -2.1566 H   0  0  0  0  0  0  0  0  0  0  0  0
   -8.3265   -2.3623   -0.5803 H   0  0  0  0  0  0  0  0  0  0  0  0
   -7.0118   -2.7227    0.5934 H   0  0  0  0  0  0  0  0  0  0  0  0
   -6.6394   -2.4390   -1.1506 H   0  0  0  0  0  0  0  0  0  0  0  0
   -8.9458   -0.4673    0.7461 H   0  0  0  0  0  0  0  0  0  0  0  0
   -5.4879   -0.9025    1.3904 H   0  0  0  0  0  0  0  0  0  0  0  0
   -5.6447    0.7811    0.7992 H   0  0  0  0  0  0  0  0  0  0  0  0
   -4.7295    0.1036   -1.4407 H   0  0  0  0  0  0  0  0  0  0  0  0
   -4.6569   -1.5774   -0.8985 H   0  0  0  0  0  0  0  0  0  0  0  0
   -3.0862    0.8109    0.3216 H   0  0  0  0  0  0  0  0  0  0  0  0
   -3.2669   -2.9782   -0.3975 H   0  0  0  0  0  0  0  0  0  0  0  0
   -2.1724   -3.1681    0.9816 H   0  0  0  0  0  0  0  0  0  0  0  0
   -1.5145   -2.8865   -0.6741 H   0  0  0  0  0  0  0  0  0  0  0  0
    0.8374    0.8148    2.3518 H   0  0  0  0  0  0  0  0  0  0  0  0
    0.4166    2.3318    1.4866 H   0  0  0  0  0  0  0  0  0  0  0  0
    1.6228   -0.1831    0.1841 H   0  0  0  0  0  0  0  0  0  0  0  0
    3.8231   -0.1706   -0.1894 H   0  0  0  0  0  0  0  0  0  0  0  0
    5.1912   -1.4373    0.7347 H   0  0  0  0  0  0  0  0  0  0  0  0
    7.0984   -2.6636    1.5769 H   0  0  0  0  0  0  0  0  0  0  0  0
    9.3795   -2.5619    2.4586 H   0  0  0  0  0  0  0  0  0  0  0  0
    9.2756    1.0040    2.1215 H   0  0  0  0  0  0  0  0  0  0  0  0
    7.3495    2.2783    1.2634 H   0  0  0  0  0  0  0  0  0  0  0  0
    3.8084    2.6702   -1.3722 H   0  0  0  0  0  0  0  0  0  0  0  0
    4.7326    0.1576   -2.4064 H   0  0  0  0  0  0  0  0  0  0  0  0
    2.3295    0.1057   -2.2358 H   0  0  0  0  0  0  0  0  0  0  0  0
    2.1819    2.8105   -3.1721 H   0  0  0  0  0  0  0  0  0  0  0  0
    1.2369    2.6810   -0.9331 H   0  0  0  0  0  0  0  0  0  0  0  0
    0.0107    0.1968   -1.6770 H   0  0  0  0  0  0  0  0  0  0  0  0
  1  2  2  0  0  0  0
  1 32  1  0  0  0  0
  1 33  1  0  0  0  0
  2 34  1  0  0  0  0
  3  2  1  6  0  0  0
  3  4  1  0  0  0  0
  3  5  1  0  0  0  0
  3  6  1  0  0  0  0
  4 35  1  0  0  0  0
  4 36  1  0  0  0  0
  4 37  1  0  0  0  0
  5 38  1  0  0  0  0
  6  7  1  0  0  0  0
  6 39  1  0  0  0  0
  6 40  1  0  0  0  0
  7  8  1  0  0  0  0
  7 41  1  0  0  0  0
  7 42  1  0  0  0  0
  8  9  2  0  0  0  0
  8 43  1  0  0  0  0
  9 10  1  0  0  0  0
  9 11  1  0  0  0  0
 10 44  1  0  0  0  0
 10 45  1  0  0  0  0
 10 46  1  0  0  0  0
 11 12  2  0  0  0  0
 11 13  1  0  0  0  0
 13 14  1  0  0  0  0
 14 47  1  0  0  0  0
 14 48  1  0  0  0  0
 15 14  1  0  0  0  0
 15 16  1  0  0  0  0
 15 49  1  6  0  0  0
 16 17  1  0  0  0  0
 17 18  1  0  0  0  0
 17 26  1  0  0  0  0
 17 50  1  6  0  0  0
 18 19  1  0  0  0  0
 19 20  2  0  0  0  0
 20 21  1  0  0  0  0
 20 51  1  0  0  0  0
 21 22  2  0  0  0  0
 21 52  1  0  0  0  0
 22 23  1  0  0  0  0
 22 24  1  0  0  0  0
 23 53  1  0  0  0  0
 24 25  2  0  0  0  0
 24 54  1  0  0  0  0
 25 19  1  0  0  0  0
 25 55  1  0  0  0  0
 26 27  1  0  0  0  0
 26 28  1  0  0  0  0
 26 56  1  1  0  0  0
 27 57  1  0  0  0  0
 28 29  1  0  0  0  0
 28 30  1  0  0  0  0
 28 58  1  6  0  0  0
 29 59  1  0  0  0  0
 30 31  1  0  0  0  0
 30 15  1  0  0  0  0
 30 60  1  1  0  0  0
 31 61  1  0  0  0  0
M  END
>  <IDENTIFIER>
CNP0284042.3

>  <Energy>
364.595

$$$$
