
 OpenBabel09062522073D

 43 45  0  0  0  0  0  0  0  0999 V2000
   -6.3789    0.1531   -0.4731 C   0  0  0  0  0  0  0  0  0  0  0  0
   -5.1510   -0.4340   -0.1034 O   0  0  0  0  0  0  0  0  0  0  0  0
   -4.0985    0.0686   -0.9047 C   0  0  0  0  0  0  0  0  0  0  0  0
   -3.4075    1.2811   -0.2598 C   0  0  0  0  0  0  0  0  0  0  0  0
   -2.8573    0.9486    1.0480 N   0  0  0  0  0  0  0  0  0  0  0  0
   -3.6021    0.8197    2.1736 C   0  0  0  0  0  0  0  0  0  0  0  0
   -4.8148    0.9628    2.1972 O   0  0  0  0  0  0  0  0  0  0  0  0
   -2.7699    0.6901    3.4008 C   0  0  0  0  0  0  0  0  0  0  0  0
   -1.4419    0.2858    2.7772 C   0  0  0  0  0  0  0  0  0  0  0  0
   -1.4511    0.9698    1.4026 C   0  0  1  0  0  0  0  0  0  0  0  0
   -0.5424    0.2793    0.4136 C   0  0  0  0  0  0  0  0  0  0  0  0
    0.1725   -0.8324    0.6703 N   0  0  0  0  0  0  0  0  0  0  0  0
    0.8696   -1.0054   -0.4667 C   0  0  0  0  0  0  0  0  0  0  0  0
    1.8474   -2.1241   -0.6764 C   0  0  0  0  0  0  0  0  0  0  0  0
    3.2146   -1.6343   -0.6783 N   0  0  0  0  0  0  0  0  0  0  0  0
    3.7348   -0.8094   -1.6320 C   0  0  0  0  0  0  0  0  0  0  0  0
    3.0533   -0.4642   -2.5870 O   0  0  0  0  0  0  0  0  0  0  0  0
    5.1341   -0.3212   -1.5153 C   0  0  0  0  0  0  0  0  0  0  0  0
    5.6942    0.5391   -2.4745 C   0  0  0  0  0  0  0  0  0  0  0  0
    6.9730    0.9744   -2.3207 N   0  0  0  0  0  0  0  0  0  0  0  0
    7.7249    0.5949   -1.2551 C   0  0  0  0  0  0  0  0  0  0  0  0
    7.1759   -0.2593   -0.2998 C   0  0  0  0  0  0  0  0  0  0  0  0
    5.8987   -0.6947   -0.4513 N   0  0  0  0  0  0  0  0  0  0  0  0
    0.5902   -0.0456   -1.3686 N   0  0  0  0  0  0  0  0  0  0  0  0
   -0.2851    0.7258   -0.7940 O   0  0  0  0  0  0  0  0  0  0  0  0
   -7.1530   -0.1730    0.2517 H   0  0  0  0  0  0  0  0  0  0  0  0
   -6.6973   -0.1955   -1.4796 H   0  0  0  0  0  0  0  0  0  0  0  0
   -6.3374    1.2632   -0.4200 H   0  0  0  0  0  0  0  0  0  0  0  0
   -4.4306    0.3245   -1.9391 H   0  0  0  0  0  0  0  0  0  0  0  0
   -3.3493   -0.7425   -1.0274 H   0  0  0  0  0  0  0  0  0  0  0  0
   -4.1054    2.1408   -0.1687 H   0  0  0  0  0  0  0  0  0  0  0  0
   -2.5962    1.6003   -0.9446 H   0  0  0  0  0  0  0  0  0  0  0  0
   -3.1129   -0.0860    4.1181 H   0  0  0  0  0  0  0  0  0  0  0  0
   -2.7222    1.6893    3.8845 H   0  0  0  0  0  0  0  0  0  0  0  0
   -1.5386   -0.8104    2.5921 H   0  0  0  0  0  0  0  0  0  0  0  0
   -0.5386    0.4462    3.4029 H   0  0  0  0  0  0  0  0  0  0  0  0
   -1.1316    2.0307    1.5085 H   0  0  0  0  0  0  0  0  0  0  0  0
    1.6183   -2.6865   -1.6068 H   0  0  0  0  0  0  0  0  0  0  0  0
    1.7400   -2.8254    0.1804 H   0  0  0  0  0  0  0  0  0  0  0  0
    3.8159   -1.9407    0.1016 H   0  0  0  0  0  0  0  0  0  0  0  0
    5.1235    0.8661   -3.3340 H   0  0  0  0  0  0  0  0  0  0  0  0
    8.7399    0.9540   -1.1501 H   0  0  0  0  0  0  0  0  0  0  0  0
    7.7574   -0.5728    0.5571 H   0  0  0  0  0  0  0  0  0  0  0  0
  1  2  1  0  0  0  0
  1 26  1  0  0  0  0
  1 27  1  0  0  0  0
  1 28  1  0  0  0  0
  2  3  1  0  0  0  0
  3  4  1  0  0  0  0
  3 29  1  0  0  0  0
  3 30  1  0  0  0  0
  4  5  1  0  0  0  0
  4 31  1  0  0  0  0
  4 32  1  0  0  0  0
  5  6  1  0  0  0  0
  6  7  2  0  0  0  0
  6  8  1  0  0  0  0
  8  9  1  0  0  0  0
  8 33  1  0  0  0  0
  8 34  1  0  0  0  0
  9 10  1  0  0  0  0
  9 35  1  0  0  0  0
  9 36  1  0  0  0  0
 10 11  1  0  0  0  0
 10  5  1  0  0  0  0
 10 37  1  1  0  0  0
 11 12  2  0  0  0  0
 12 13  1  0  0  0  0
 13 14  1  0  0  0  0
 13 24  2  0  0  0  0
 14 15  1  0  0  0  0
 14 38  1  0  0  0  0
 14 39  1  0  0  0  0
 15 16  1  0  0  0  0
 15 40  1  0  0  0  0
 16 17  2  0  0  0  0
 16 18  1  0  0  0  0
 18 19  2  0  0  0  0
 19 20  1  0  0  0  0
 19 41  1  0  0  0  0
 20 21  2  0  0  0  0
 21 22  1  0  0  0  0
 21 42  1  0  0  0  0
 22 23  2  0  0  0  0
 22 43  1  0  0  0  0
 23 18  1  0  0  0  0
 24 25  1  0  0  0  0
 25 11  1  0  0  0  0
M  END
>  <IDENTIFIER>
CNP0557657.1

>  <Energy>
499.178

$$$$
