
 OpenBabel09072513163D

 60 63  0  0  0  0  0  0  0  0999 V2000
    7.4430   -1.2900    1.7661 C   0  0  0  0  0  0  0  0  0  0  0  0
    6.0500   -0.7475    1.7903 C   0  0  0  0  0  0  0  0  0  0  0  0
    5.6137   -0.2376    2.8126 O   0  0  0  0  0  0  0  0  0  0  0  0
    5.2957   -0.8237    0.6633 O   0  0  0  0  0  0  0  0  0  0  0  0
    4.0013   -0.3541    0.5140 C   0  0  1  0  0  0  0  0  0  0  0  0
    3.9775    0.7620   -0.5341 C   0  0  0  0  0  0  0  0  0  0  0  0
    2.5489    1.3206   -0.5770 C   0  0  0  0  0  0  0  0  0  0  0  0
    1.5131    0.2769   -1.1150 C   0  0  1  0  0  0  0  0  0  0  0  0
    1.6889    0.2979   -2.6661 C   0  0  0  0  0  0  0  0  0  0  0  0
    1.7782   -1.1355   -0.5584 C   0  0  0  0  0  0  0  0  0  0  0  0
    0.8501   -2.1029   -0.7368 C   0  0  0  0  0  0  0  0  0  0  0  0
   -0.4035   -1.8430   -1.5237 C   0  0  0  0  0  0  0  0  0  0  0  0
   -1.0196   -0.4349   -1.2733 C   0  0  2  0  0  0  0  0  0  0  0  0
    0.0269    0.6602   -0.7385 C   0  0  1  0  0  0  0  0  0  0  0  0
   -0.2168    0.8653    0.7930 C   0  0  0  0  0  0  0  0  0  0  0  0
   -1.6513    1.3933    1.1042 C   0  0  0  0  0  0  0  0  0  0  0  0
   -2.7553    0.7757    0.1921 C   0  0  2  0  0  0  0  0  0  0  0  0
   -3.1252    1.7648   -0.9692 C   0  0  0  0  0  0  0  0  0  0  0  0
   -4.0080    0.2729    0.9639 C   0  0  1  0  0  0  0  0  0  0  0  0
   -4.9535    1.2933    1.5690 C   0  0  0  0  0  0  0  0  0  0  0  0
   -6.1801    0.8505    2.3104 C   0  0  0  0  0  0  0  0  0  0  0  0
   -4.7225    2.4890    1.4859 O   0  0  0  0  0  0  0  0  0  0  0  0
   -4.6710   -0.6896   -0.0424 C   0  0  0  0  0  0  0  0  0  0  0  0
   -3.5099   -1.2546   -0.8955 C   0  0  0  0  0  0  0  0  0  0  0  0
   -2.2548   -0.5692   -0.3350 C   0  0  1  0  0  0  0  0  0  0  0  0
    3.0739   -1.5213    0.1406 C   0  0  0  0  0  0  0  0  0  0  0  0
    7.9388   -1.1511    2.7505 H   0  0  0  0  0  0  0  0  0  0  0  0
    8.0325   -0.7599    0.9889 H   0  0  0  0  0  0  0  0  0  0  0  0
    7.4145   -2.3732    1.5259 H   0  0  0  0  0  0  0  0  0  0  0  0
    3.6232    0.0888    1.4647 H   0  0  0  0  0  0  0  0  0  0  0  0
    4.3309    0.4055   -1.5227 H   0  0  0  0  0  0  0  0  0  0  0  0
    4.6621    1.5719   -0.1990 H   0  0  0  0  0  0  0  0  0  0  0  0
    2.5011    2.2588   -1.1723 H   0  0  0  0  0  0  0  0  0  0  0  0
    2.3420    1.6272    0.4603 H   0  0  0  0  0  0  0  0  0  0  0  0
    2.7052   -0.0287   -2.9633 H   0  0  0  0  0  0  0  0  0  0  0  0
    1.5309    1.3275   -3.0533 H   0  0  0  0  0  0  0  0  0  0  0  0
    0.9911   -0.3210   -3.2387 H   0  0  0  0  0  0  0  0  0  0  0  0
    1.0084   -3.0983   -0.3308 H   0  0  0  0  0  0  0  0  0  0  0  0
   -1.1325   -2.6778   -1.4623 H   0  0  0  0  0  0  0  0  0  0  0  0
   -0.0895   -1.9084   -2.5777 H   0  0  0  0  0  0  0  0  0  0  0  0
   -1.3914   -0.0808   -2.2600 H   0  0  0  0  0  0  0  0  0  0  0  0
   -0.1839    1.6519   -1.1868 H   0  0  0  0  0  0  0  0  0  0  0  0
    0.4669    1.5713    1.2934 H   0  0  0  0  0  0  0  0  0  0  0  0
   -0.0692   -0.1212    1.2841 H   0  0  0  0  0  0  0  0  0  0  0  0
   -1.6962    2.5011    1.0195 H   0  0  0  0  0  0  0  0  0  0  0  0
   -1.8310    1.1598    2.1766 H   0  0  0  0  0  0  0  0  0  0  0  0
   -3.5164    2.7208   -0.5720 H   0  0  0  0  0  0  0  0  0  0  0  0
   -3.8905    1.3606   -1.6584 H   0  0  0  0  0  0  0  0  0  0  0  0
   -2.2570    2.0356   -1.5926 H   0  0  0  0  0  0  0  0  0  0  0  0
   -3.6435   -0.3593    1.8082 H   0  0  0  0  0  0  0  0  0  0  0  0
   -6.2629   -0.2559    2.3285 H   0  0  0  0  0  0  0  0  0  0  0  0
   -7.0826    1.2675    1.8160 H   0  0  0  0  0  0  0  0  0  0  0  0
   -6.1353    1.2177    3.3569 H   0  0  0  0  0  0  0  0  0  0  0  0
   -5.3369   -0.1116   -0.7211 H   0  0  0  0  0  0  0  0  0  0  0  0
   -5.2888   -1.4695    0.4512 H   0  0  0  0  0  0  0  0  0  0  0  0
   -3.6763   -0.9293   -1.9461 H   0  0  0  0  0  0  0  0  0  0  0  0
   -3.4319   -2.3621   -0.8831 H   0  0  0  0  0  0  0  0  0  0  0  0
   -1.9484   -1.1666    0.5591 H   0  0  0  0  0  0  0  0  0  0  0  0
    3.5995   -2.1909   -0.5758 H   0  0  0  0  0  0  0  0  0  0  0  0
    2.8799   -2.1043    1.0679 H   0  0  0  0  0  0  0  0  0  0  0  0
  1  2  1  0  0  0  0
  1 27  1  0  0  0  0
  1 28  1  0  0  0  0
  1 29  1  0  0  0  0
  2  3  2  0  0  0  0
  2  4  1  0  0  0  0
  5  4  1  0  0  0  0
  5  6  1  0  0  0  0
  5 30  1  1  0  0  0
  6  7  1  0  0  0  0
  6 31  1  0  0  0  0
  6 32  1  0  0  0  0
  7  8  1  0  0  0  0
  7 33  1  0  0  0  0
  7 34  1  0  0  0  0
  8  9  1  6  0  0  0
  8 10  1  0  0  0  0
  9 35  1  0  0  0  0
  9 36  1  0  0  0  0
  9 37  1  0  0  0  0
 10 11  2  0  0  0  0
 10 26  1  0  0  0  0
 11 12  1  0  0  0  0
 11 38  1  0  0  0  0
 12 39  1  0  0  0  0
 12 40  1  0  0  0  0
 13 12  1  0  0  0  0
 13 14  1  0  0  0  0
 13 41  1  6  0  0  0
 14 15  1  0  0  0  0
 14  8  1  0  0  0  0
 14 42  1  6  0  0  0
 15 16  1  0  0  0  0
 15 43  1  0  0  0  0
 15 44  1  0  0  0  0
 16 17  1  0  0  0  0
 16 45  1  0  0  0  0
 16 46  1  0  0  0  0
 17 18  1  6  0  0  0
 17 19  1  0  0  0  0
 18 47  1  0  0  0  0
 18 48  1  0  0  0  0
 18 49  1  0  0  0  0
 19 20  1  0  0  0  0
 19 23  1  0  0  0  0
 19 50  1  1  0  0  0
 20 21  1  0  0  0  0
 20 22  2  0  0  0  0
 21 51  1  0  0  0  0
 21 52  1  0  0  0  0
 21 53  1  0  0  0  0
 23 24  1  0  0  0  0
 23 54  1  0  0  0  0
 23 55  1  0  0  0  0
 24 56  1  0  0  0  0
 24 57  1  0  0  0  0
 25 24  1  0  0  0  0
 25 17  1  0  0  0  0
 25 13  1  0  0  0  0
 25 58  1  1  0  0  0
 26  5  1  0  0  0  0
 26 59  1  0  0  0  0
 26 60  1  0  0  0  0
M  END
>  <IDENTIFIER>
CNP0185982.5

>  <Energy>
780.052

$$$$
