
 OpenBabel09102502493D

 43 43  0  0  0  0  0  0  0  0999 V2000
   -4.8618   -0.2350   -1.8593 C   0  0  0  0  0  0  0  0  0  0  0  0
   -4.2931    0.9778   -1.0981 C   0  0  2  0  0  0  0  0  0  0  0  0
   -2.8700    1.0535   -1.1838 O   0  0  0  0  0  0  0  0  0  0  0  0
   -2.2068    0.0511   -0.4188 C   0  0  1  0  0  0  0  0  0  0  0  0
   -0.8069    0.2552   -0.5519 O   0  0  0  0  0  0  0  0  0  0  0  0
   -0.1631   -0.9193   -1.0076 C   0  0  0  0  0  0  0  0  0  0  0  0
    1.3236   -0.6538   -1.2441 C   0  0  0  0  0  0  0  0  0  0  0  0
    2.0534   -0.2327    0.0385 C   0  0  0  0  0  0  0  0  0  0  0  0
    3.5507   -0.0427   -0.2360 C   0  0  0  0  0  0  0  0  0  0  0  0
    4.2999    0.3928    1.0341 C   0  0  0  0  0  0  0  0  0  0  0  0
    5.8042    0.6111    0.7864 C   0  0  0  0  0  0  0  0  0  0  0  0
    6.5859   -0.6459    0.4722 C   0  0  0  0  0  0  0  0  0  0  0  0
    6.0468   -1.7413    0.4589 O   0  0  0  0  0  0  0  0  0  0  0  0
    7.9099   -0.5663    0.2239 O   0  0  0  0  0  0  0  0  0  0  0  0
   -2.5788    0.1464    1.0792 C   0  0  2  0  0  0  0  0  0  0  0  0
   -1.9150   -0.8351    1.8355 O   0  0  0  0  0  0  0  0  0  0  0  0
   -4.1008    0.0196    1.2383 C   0  0  0  0  0  0  0  0  0  0  0  0
   -4.7879    1.0808    0.3724 C   0  0  1  0  0  0  0  0  0  0  0  0
   -4.5566    2.3659    0.9056 O   0  0  0  0  0  0  0  0  0  0  0  0
   -4.5060   -0.2114   -2.9110 H   0  0  0  0  0  0  0  0  0  0  0  0
   -5.9713   -0.1848   -1.8664 H   0  0  0  0  0  0  0  0  0  0  0  0
   -4.5772   -1.2058   -1.4109 H   0  0  0  0  0  0  0  0  0  0  0  0
   -4.7031    1.8636   -1.6312 H   0  0  0  0  0  0  0  0  0  0  0  0
   -2.5173   -0.9539   -0.7919 H   0  0  0  0  0  0  0  0  0  0  0  0
   -0.5928   -1.2426   -1.9836 H   0  0  0  0  0  0  0  0  0  0  0  0
   -0.2642   -1.7355   -0.2569 H   0  0  0  0  0  0  0  0  0  0  0  0
    1.4357    0.1387   -2.0162 H   0  0  0  0  0  0  0  0  0  0  0  0
    1.7815   -1.5906   -1.6316 H   0  0  0  0  0  0  0  0  0  0  0  0
    1.9230   -1.0203    0.8132 H   0  0  0  0  0  0  0  0  0  0  0  0
    1.6198    0.7186    0.4180 H   0  0  0  0  0  0  0  0  0  0  0  0
    3.6849    0.7351   -1.0199 H   0  0  0  0  0  0  0  0  0  0  0  0
    3.9626   -0.9996   -0.6176 H   0  0  0  0  0  0  0  0  0  0  0  0
    4.1611   -0.3526    1.8476 H   0  0  0  0  0  0  0  0  0  0  0  0
    3.8659    1.3592    1.3727 H   0  0  0  0  0  0  0  0  0  0  0  0
    6.2489    1.0534    1.7034 H   0  0  0  0  0  0  0  0  0  0  0  0
    5.9308    1.3390   -0.0440 H   0  0  0  0  0  0  0  0  0  0  0  0
    8.3755    0.2815    0.2298 H   0  0  0  0  0  0  0  0  0  0  0  0
   -2.2533    1.1380    1.4608 H   0  0  0  0  0  0  0  0  0  0  0  0
   -2.1904   -1.7227    1.4866 H   0  0  0  0  0  0  0  0  0  0  0  0
   -4.3997    0.1346    2.3027 H   0  0  0  0  0  0  0  0  0  0  0  0
   -4.4199   -0.9916    0.9048 H   0  0  0  0  0  0  0  0  0  0  0  0
   -5.8885    0.9258    0.3955 H   0  0  0  0  0  0  0  0  0  0  0  0
   -3.6795    2.6998    0.5856 H   0  0  0  0  0  0  0  0  0  0  0  0
  1 20  1  0  0  0  0
  1 21  1  0  0  0  0
  1 22  1  0  0  0  0
  2  1  1  0  0  0  0
  2  3  1  0  0  0  0
  2 23  1  6  0  0  0
  3  4  1  0  0  0  0
  4  5  1  0  0  0  0
  4 15  1  0  0  0  0
  4 24  1  6  0  0  0
  5  6  1  0  0  0  0
  6  7  1  0  0  0  0
  6 25  1  0  0  0  0
  6 26  1  0  0  0  0
  7  8  1  0  0  0  0
  7 27  1  0  0  0  0
  7 28  1  0  0  0  0
  8  9  1  0  0  0  0
  8 29  1  0  0  0  0
  8 30  1  0  0  0  0
  9 10  1  0  0  0  0
  9 31  1  0  0  0  0
  9 32  1  0  0  0  0
 10 11  1  0  0  0  0
 10 33  1  0  0  0  0
 10 34  1  0  0  0  0
 11 12  1  0  0  0  0
 11 35  1  0  0  0  0
 11 36  1  0  0  0  0
 12 13  2  0  0  0  0
 12 14  1  0  0  0  0
 14 37  1  0  0  0  0
 15 16  1  0  0  0  0
 15 17  1  0  0  0  0
 15 38  1  1  0  0  0
 16 39  1  0  0  0  0
 17 18  1  0  0  0  0
 17 40  1  0  0  0  0
 17 41  1  0  0  0  0
 18 19  1  0  0  0  0
 18  2  1  0  0  0  0
 18 42  1  1  0  0  0
 19 43  1  0  0  0  0
M  END
>  <IDENTIFIER>
CNP0083130.1

>  <Energy>
246.808

$$$$
