
 OpenBabel09092516452D

238237  0  0  0  0  0  0  0  0999 V2000
   11.2500    1.2990    0.0000 C   0  0  0  0  0  0  0  0  0  0  0  0
    9.7500    1.2990    0.0000 C   0  0  0  0  0  2  0  0  0  0  0  0
    8.2500    1.2990    0.0000 C   0  0  0  0  0  2  0  0  0  0  0  0
    6.7500    1.2990    0.0000 C   0  0  0  0  0  2  0  0  0  0  0  0
    5.2500    1.2990    0.0000 C   0  0  0  0  0  2  0  0  0  0  0  0
    3.7500    1.2990    0.0000 C   0  0  0  0  0  2  0  0  0  0  0  0
    2.2500    1.2990    0.0000 C   0  0  0  0  0  0  0  0  0  0  0  0
    1.9686   -0.1053    0.0683 C   0  0  0  0  0  0  0  0  0  0  0  0
    3.1521   -1.2507    0.2356 C   0  0  0  0  0  0  0  0  0  0  0  0
    3.0976   -2.8497    0.1424 C   0  0  0  0  0  0  0  0  0  0  0  0
    4.5070   -3.6481    0.4344 C   0  0  0  0  0  0  0  0  0  0  0  0
    4.5000   -5.1962    0.0000 C   0  0  0  0  0  0  0  0  0  0  0  0
    5.2500   -6.4952    0.0000 C   0  0  0  0  0  0  0  0  0  0  0  0
    6.0000   -7.7942    0.0000 C   0  0  0  0  0  0  0  0  0  0  0  0
    6.7500   -9.0933    0.0000 C   0  0  0  0  0  0  0  0  0  0  0  0
    7.5000  -10.3923    0.0000 C   0  0  0  0  0  0  0  0  0  0  0  0
    8.2500  -11.6913    0.0000 C   0  0  0  0  0  0  0  0  0  0  0  0
    9.0770  -12.2072    2.1972 C   0  0  0  0  0  0  0  0  0  0  0  0
    9.8082  -13.8191    2.4009 C   0  0  0  0  0  0  0  0  0  0  0  0
   10.8634  -15.1406    2.1589 C   0  0  0  0  0  0  0  0  0  0  0  0
   12.0476  -14.8717    2.3207 O   0  0  0  0  0  0  0  0  0  0  0  0
   10.5755  -16.5321    1.8003 O   0  0  0  0  0  0  0  0  0  0  0  0
   11.3839  -17.5971    1.1032 C   0  0  1  0  0  0  0  0  0  0  0  0
   12.9174  -17.3739    0.9573 C   0  0  0  0  0  0  0  0  0  0  0  0
   13.2128  -16.2363    0.2028 O   0  0  0  0  0  0  0  0  0  0  0  0
   14.4541  -15.8446   -0.2388 C   0  0  0  0  0  0  0  0  0  0  0  0
   14.5637  -14.7533   -0.7759 O   0  0  0  0  0  0  0  0  0  0  0  0
   15.6962  -16.6865    0.0000 C   0  0  0  0  0  0  0  0  0  0  0  0
   16.9952  -15.9365    0.0000 C   0  0  0  0  0  0  0  0  0  0  0  0
   18.2942  -15.1865    0.0000 C   0  0  0  0  0  0  0  0  0  0  0  0
   19.5933  -14.4365    0.0000 C   0  0  0  0  0  0  0  0  0  0  0  0
   20.8923  -13.6865    0.0000 C   0  0  0  0  0  2  0  0  0  0  0  0
   22.1913  -12.9365    0.0000 C   0  0  0  0  0  0  0  0  0  0  0  0
   23.8386  -12.6059    0.0104 C   0  0  0  0  0  0  0  0  0  0  0  0
   24.4412  -11.0171   -0.0104 C   0  0  0  0  0  0  0  0  0  0  0  0
   26.0885  -10.6865    0.0000 C   0  0  0  0  0  0  0  0  0  0  0  0
   27.3875   -9.9365    0.0000 C   0  0  0  0  0  2  0  0  0  0  0  0
   28.6865   -9.1865    0.0000 C   0  0  0  0  0  0  0  0  0  0  0  0
   29.9856   -8.4365    0.0000 C   0  0  0  0  0  0  0  0  0  0  0  0
   31.2846   -7.6865   -0.0000 C   0  0  0  0  0  0  0  0  0  0  0  0
   32.5836   -6.9365    0.0000 C   0  0  0  0  0  0  0  0  0  0  0  0
   34.0931   -6.3615    0.4654 C   0  0  0  0  0  0  0  0  0  0  0  0
   34.9578   -5.2242   -0.4658 C   0  0  0  0  0  0  0  0  0  0  0  0
   36.4808   -4.6865    0.0000 C   0  0  0  0  0  0  0  0  0  0  0  0
   37.7798   -3.9365    0.0000 C   0  0  0  0  0  0  0  0  0  0  0  0
   39.0788   -3.1865    0.0000 C   0  0  0  0  0  0  0  0  0  0  0  0
   10.9458  -19.2688    0.9471 C   0  0  0  0  0  0  0  0  0  0  0  0
   11.5778  -20.6602    1.2788 O   0  0  0  0  0  0  0  0  0  0  0  0
   11.2500  -22.0836    0.0000 P   0  0  3  0  0  0  0  0  0  0  0  0
   12.5490  -22.8336    0.0000 O   0  0  0  0  0  0  0  0  0  0  0  0
    9.9510  -21.3336    0.0000 O   0  0  0  0  0  0  0  0  0  0  0  0
   10.5000  -23.3827    0.0000 O   0  0  0  0  0  0  0  0  0  0  0  0
    9.0000  -23.3827    0.0000 C   0  0  0  0  0  2  0  0  0  0  0  0
    7.5000  -23.3827    0.0000 C   0  0  3  0  0  0  0  0  0  0  0  0
    7.5000  -21.8827    0.0000 O   0  0  0  0  0  0  0  0  0  0  0  0
    7.5000  -24.8827    0.0000 C   0  0  0  0  0  2  0  0  0  0  0  0
    7.5000  -26.3827    0.0000 O   0  0  0  0  0  0  0  0  0  0  0  0
    5.8418  -26.7685    0.5176 P   0  0  3  0  0  0  0  0  0  0  0  0
    5.5652  -28.2025   -0.0121 O   0  0  0  0  0  0  0  0  0  0  0  0
    5.7605  -26.8663    2.2527 O   0  0  0  0  0  0  0  0  0  0  0  0
    4.5509  -25.7392   -0.1461 O   0  0  0  0  0  0  0  0  0  0  0  0
    3.3364  -25.8674    0.6051 C   0  0  0  0  0  0  0  0  0  0  0  0
    2.1483  -25.1194   -0.1136 C   0  0  1  0  0  0  0  0  0  0  0  0
    2.4421  -23.6469   -0.2665 C   0  0  0  0  0  0  0  0  0  0  0  0
    3.5654  -23.4059   -1.0363 O   0  0  0  0  0  0  0  0  0  0  0  0
    4.1609  -22.1880   -1.0593 C   0  0  0  0  0  0  0  0  0  0  0  0
    4.9965  -21.9387   -1.9126 O   0  0  0  0  0  0  0  0  0  0  0  0
    3.8038  -21.1865    0.0000 C   0  0  0  0  0  0  0  0  0  0  0  0
    4.5538  -19.8875    0.0000 C   0  0  0  0  0  2  0  0  0  0  0  0
    5.3038  -18.5885    0.0000 C   0  0  0  0  0  0  0  0  0  0  0  0
    5.6838  -16.9621    0.1928 C   0  0  0  0  0  0  0  0  0  0  0  0
    7.2114  -16.3232   -0.1994 C   0  0  0  0  0  0  0  0  0  0  0  0
    7.5538  -14.6913    0.0000 C   0  0  0  0  0  0  0  0  0  0  0  0
    8.3038  -13.3923    0.0000 C   0  0  0  0  0  0  0  0  0  0  0  0
    9.0538  -12.0933    0.0000 C   0  0  0  0  0  0  0  0  0  0  0  0
    8.3038  -10.7942    0.0000 C   0  0  0  0  0  0  0  0  0  0  0  0
    6.8038  -10.7942    0.0000 C   0  0  0  0  0  2  0  0  0  0  0  0
    5.3038  -10.7942    0.0000 C   0  0  0  0  0  2  0  0  0  0  0  0
    3.8038  -10.7942    0.0000 C   0  0  0  0  0  2  0  0  0  0  0  0
    2.3038  -10.7942    0.0000 C   0  0  0  0  0  2  0  0  0  0  0  0
    0.8038  -10.7942    0.0000 C   0  0  0  0  0  2  0  0  0  0  0  0
   -0.6962  -10.7942    0.0000 C   0  0  0  0  0  2  0  0  0  0  0  0
   -2.1962  -10.7942    0.0000 C   0  0  0  0  0  2  0  0  0  0  0  0
   -3.6962  -10.7942    0.0000 C   0  0  0  0  0  0  0  0  0  0  0  0
    0.9136  -25.1740    0.5677 O   0  0  0  0  0  0  0  0  0  0  0  0
   -0.0907  -25.9914    0.1530 C   0  0  0  0  0  0  0  0  0  0  0  0
    0.2344  -27.1045   -0.2503 O   0  0  0  0  0  0  0  0  0  0  0  0
   -1.5933  -25.6327    0.0000 C   0  0  0  0  0  0  0  0  0  0  0  0
   -2.8923  -24.8827   -0.0000 C   0  0  0  0  0  0  0  0  0  0  0  0
   -4.1913  -24.1327    0.0000 C   0  0  0  0  0  0  0  0  0  0  0  0
   -5.8258  -23.7870    0.1928 C   0  0  0  0  0  0  0  0  0  0  0  0
   -6.4398  -22.1992    0.1018 C   0  0  0  0  0  0  0  0  0  0  0  0
   -8.0885  -21.8827    0.0000 C   0  0  0  0  0  0  0  0  0  0  0  0
   -9.3875  -21.1327    0.0000 C   0  0  0  0  0  0  0  0  0  0  0  0
  -10.6865  -20.3827    0.0000 C   0  0  0  0  0  0  0  0  0  0  0  0
  -11.9856  -19.6327    0.0000 C   0  0  0  0  0  0  0  0  0  0  0  0
  -13.2846  -18.8827    0.0000 C   0  0  0  0  0  0  0  0  0  0  0  0
  -14.5836  -18.1327    0.0000 C   0  0  0  0  0  0  0  0  0  0  0  0
  -16.0750  -17.5355    0.4956 C   0  0  0  0  0  0  0  0  0  0  0  0
  -16.9731  -16.4559   -0.4746 C   0  0  0  0  0  0  0  0  0  0  0  0
  -18.4808  -15.8827    0.0000 C   0  0  0  0  0  0  0  0  0  0  0  0
  -19.7798  -15.1327    0.0000 C   0  0  0  0  0  0  0  0  0  0  0  0
  -21.0788  -14.3827    0.0000 C   0  0  0  0  0  0  0  0  0  0  0  0
  -22.8022  -14.3663   -0.0127 C   0  0  0  0  0  0  0  0  0  0  0  0
  -23.6769  -12.8827    0.0000 C   0  0  0  0  0  0  0  0  0  0  0  0
  -24.9760  -12.1327    0.0000 C   0  0  0  0  0  0  0  0  0  0  0  0
   11.3302    0.3917    0.6333 H   0  0  0  0  0  0  0  0  0  0  0  0
   11.3302    2.2033    0.6376 H   0  0  0  0  0  0  0  0  0  0  0  0
   12.3200    1.2990    0.0000 H   0  0  0  0  0  0  0  0  0  0  0  0
    1.5495    2.1189   -0.1141 H   0  0  0  0  0  0  0  0  0  0  0  0
    0.9372   -0.4354    0.0092 H   0  0  0  0  0  0  0  0  0  0  0  0
    3.8932   -1.0512   -0.5677 H   0  0  0  0  0  0  0  0  0  0  0  0
    3.6273   -1.0384    1.2179 H   0  0  0  0  0  0  0  0  0  0  0  0
    2.3281   -3.2383    0.8421 H   0  0  0  0  0  0  0  0  0  0  0  0
    2.7675   -3.0881   -0.8914 H   0  0  0  0  0  0  0  0  0  0  0  0
    4.7320   -3.5598    1.5178 H   0  0  0  0  0  0  0  0  0  0  0  0
    5.3293   -3.1587   -0.1298 H   0  0  0  0  0  0  0  0  0  0  0  0
    4.3097   -5.0851   -1.0944 H   0  0  0  0  0  0  0  0  0  0  0  0
    3.4824   -5.4931    0.3632 H   0  0  0  0  0  0  0  0  0  0  0  0
    4.9642   -6.6648    1.0749 H   0  0  0  0  0  0  0  0  0  0  0  0
    6.1036   -5.7328   -0.0449 H   0  0  0  0  0  0  0  0  0  0  0  0
    6.8140   -7.3729    0.7277 H   0  0  0  0  0  0  0  0  0  0  0  0
    6.5893   -7.3568   -0.9144 H   0  0  0  0  0  0  0  0  0  0  0  0
    6.0147   -9.0668   -1.0195 H   0  0  0  0  0  0  0  0  0  0  0  0
    6.0272   -9.0284    1.0157 H   0  0  0  0  0  0  0  0  0  0  0  0
    7.7653   -9.5215   -1.3571 H   0  0  0  0  0  0  0  0  0  0  0  0
    7.7718   -9.5123    1.3490 H   0  0  0  0  0  0  0  0  0  0  0  0
    7.4390  -12.1609    1.3418 H   0  0  0  0  0  0  0  0  0  0  0  0
    7.4390  -12.1609    1.3418 H   0  0  0  0  0  0  0  0  0  0  0  0
    9.9140  -11.4883    2.3756 H   0  0  0  0  0  0  0  0  0  0  0  0
    8.4360  -11.9836    3.1008 H   0  0  0  0  0  0  0  0  0  0  0  0
    8.8851  -14.4082    2.3199 H   0  0  0  0  0  0  0  0  0  0  0  0
   10.4421  -13.4495    1.5885 H   0  0  0  0  0  0  0  0  0  0  0  0
   11.0789  -17.3023    0.0711 H   0  0  0  0  0  0  0  0  0  0  0  0
   13.3970  -17.3404    1.9581 H   0  0  0  0  0  0  0  0  0  0  0  0
   13.3270  -18.2474    0.4036 H   0  0  0  0  0  0  0  0  0  0  0  0
   15.5570  -16.9589    1.0735 H   0  0  0  0  0  0  0  0  0  0  0  0
   15.6796  -17.6569   -0.5545 H   0  0  0  0  0  0  0  0  0  0  0  0
   17.0704  -16.1370   -1.1032 H   0  0  0  0  0  0  0  0  0  0  0  0
   17.5278  -16.7929    0.4927 H   0  0  0  0  0  0  0  0  0  0  0  0
   17.8651  -14.3702   -0.6500 H   0  0  0  0  0  0  0  0  0  0  0  0
   18.0591  -14.8235    1.0382 H   0  0  0  0  0  0  0  0  0  0  0  0
   20.0573  -15.1430    0.7319 H   0  0  0  0  0  0  0  0  0  0  0  0
   19.8589  -14.8227   -1.0144 H   0  0  0  0  0  0  0  0  0  0  0  0
   21.9386  -12.2976    0.8718 H   0  0  0  0  0  0  0  0  0  0  0  0
   21.9557  -12.3274   -0.8975 H   0  0  0  0  0  0  0  0  0  0  0  0
   24.2736  -13.1231   -0.8704 H   0  0  0  0  0  0  0  0  0  0  0  0
   24.2563  -13.0931    0.9164 H   0  0  0  0  0  0  0  0  0  0  0  0
   24.0235  -10.5299   -0.9164 H   0  0  0  0  0  0  0  0  0  0  0  0
   24.0062  -10.4999    0.8704 H   0  0  0  0  0  0  0  0  0  0  0  0
   26.3241  -11.2957    0.8975 H   0  0  0  0  0  0  0  0  0  0  0  0
   26.3412  -11.3254   -0.8718 H   0  0  0  0  0  0  0  0  0  0  0  0
   28.2891   -8.6193    0.8833 H   0  0  0  0  0  0  0  0  0  0  0  0
   28.2965   -8.6265   -0.8879 H   0  0  0  0  0  0  0  0  0  0  0  0
   30.2371   -9.0858    0.9028 H   0  0  0  0  0  0  0  0  0  0  0  0
   30.2872   -8.9609   -0.9507 H   0  0  0  0  0  0  0  0  0  0  0  0
   31.9551   -8.5962    0.1357 H   0  0  0  0  0  0  0  0  0  0  0  0
   31.0269   -7.2144    0.9868 H   0  0  0  0  0  0  0  0  0  0  0  0
   32.9196   -7.2243   -1.0298 H   0  0  0  0  0  0  0  0  0  0  0  0
   32.1538   -5.9159   -0.1564 H   0  0  0  0  0  0  0  0  0  0  0  0
   33.9703   -5.9178    1.4757 H   0  0  0  0  0  0  0  0  0  0  0  0
   34.7493   -7.2503    0.5757 H   0  0  0  0  0  0  0  0  0  0  0  0
   34.3102   -4.3278   -0.5661 H   0  0  0  0  0  0  0  0  0  0  0  0
   35.0691   -5.6620   -1.4805 H   0  0  0  0  0  0  0  0  0  0  0  0
   36.8384   -5.7515    0.0943 H   0  0  0  0  0  0  0  0  0  0  0  0
   36.1306   -4.3470    1.0045 H   0  0  0  0  0  0  0  0  0  0  0  0
   38.2048   -4.5211    0.8678 H   0  0  0  0  0  0  0  0  0  0  0  0
   38.0616   -4.4333   -0.9646 H   0  0  0  0  0  0  0  0  0  0  0  0
   38.8795   -2.5798    0.9187 H   0  0  0  0  0  0  0  0  0  0  0  0
   38.8463   -2.5240   -0.8694 H   0  0  0  0  0  0  0  0  0  0  0  0
   40.0054   -2.6515    0.0000 H   0  0  0  0  0  0  0  0  0  0  0  0
    9.8711  -19.2975    1.2285 H   0  0  0  0  0  0  0  0  0  0  0  0
   10.9669  -19.3022   -0.1644 H   0  0  0  0  0  0  0  0  0  0  0  0
    9.8330  -21.0399   -0.9431 H   0  0  0  0  0  0  0  0  0  0  0  0
    7.1109  -23.4465    1.0370 H   0  0  0  0  0  0  0  0  0  0  0  0
    7.2319  -21.6181   -0.9160 H   0  0  0  0  0  0  0  0  0  0  0  0
    5.3916  -27.7636    2.4513 H   0  0  0  0  0  0  0  0  0  0  0  0
    3.4750  -25.4353    1.6202 H   0  0  0  0  0  0  0  0  0  0  0  0
    3.0539  -26.9396    0.6911 H   0  0  0  0  0  0  0  0  0  0  0  0
    2.0442  -25.5593   -1.1330 H   0  0  0  0  0  0  0  0  0  0  0  0
    2.5652  -23.2682    0.7703 H   0  0  0  0  0  0  0  0  0  0  0  0
    1.5747  -23.1290   -0.7342 H   0  0  0  0  0  0  0  0  0  0  0  0
    4.0145  -21.6349    0.9929 H   0  0  0  0  0  0  0  0  0  0  0  0
    2.7222  -20.9454   -0.0662 H   0  0  0  0  0  0  0  0  0  0  0  0
    5.6056  -18.6503   -1.0664 H   0  0  0  0  0  0  0  0  0  0  0  0
    6.1676  -18.9758    0.5799 H   0  0  0  0  0  0  0  0  0  0  0  0
    4.9398  -16.3911   -0.4013 H   0  0  0  0  0  0  0  0  0  0  0  0
    5.5049  -16.7192    1.2613 H   0  0  0  0  0  0  0  0  0  0  0  0
    7.9602  -16.8857    0.3973 H   0  0  0  0  0  0  0  0  0  0  0  0
    7.3955  -16.5620   -1.2678 H   0  0  0  0  0  0  0  0  0  0  0  0
    6.6418  -14.3412   -0.5480 H   0  0  0  0  0  0  0  0  0  0  0  0
    7.2033  -14.6458    1.0506 H   0  0  0  0  0  0  0  0  0  0  0  0
    8.4409  -13.5763   -1.1397 H   0  0  0  0  0  0  0  0  0  0  0  0
    9.2003  -14.0238    0.1185 H   0  0  0  0  0  0  0  0  0  0  0  0
   10.2846  -12.1462   -0.0735 H   0  0  0  0  0  0  0  0  0  0  0  0
    9.4134   -9.8753   -0.0283 H   0  0  0  0  0  0  0  0  0  0  0  0
   -3.7764   -9.8885   -0.6356 H   0  0  0  0  0  0  0  0  0  0  0  0
   -3.7764  -11.7001   -0.6353 H   0  0  0  0  0  0  0  0  0  0  0  0
   -4.7662  -10.7942    0.0000 H   0  0  0  0  0  0  0  0  0  0  0  0
   -1.5596  -25.7811   -1.1097 H   0  0  0  0  0  0  0  0  0  0  0  0
   -1.9233  -26.5932    0.4955 H   0  0  0  0  0  0  0  0  0  0  0  0
   -2.9314  -24.9450    1.1210 H   0  0  0  0  0  0  0  0  0  0  0  0
   -3.4862  -25.7241   -0.4628 H   0  0  0  0  0  0  0  0  0  0  0  0
   -3.8472  -23.2226    0.5536 H   0  0  0  0  0  0  0  0  0  0  0  0
   -4.1489  -23.7991   -1.0653 H   0  0  0  0  0  0  0  0  0  0  0  0
   -6.3569  -24.3990   -0.5669 H   0  0  0  0  0  0  0  0  0  0  0  0
   -6.1350  -24.1703    1.1876 H   0  0  0  0  0  0  0  0  0  0  0  0
   -5.9778  -21.7035   -0.7782 H   0  0  0  0  0  0  0  0  0  0  0  0
   -6.0534  -21.6793    1.0033 H   0  0  0  0  0  0  0  0  0  0  0  0
   -8.3675  -22.7354    0.6732 H   0  0  0  0  0  0  0  0  0  0  0  0
   -8.2177  -22.3429   -1.0083 H   0  0  0  0  0  0  0  0  0  0  0  0
   -8.7466  -20.3123   -0.4528 H   0  0  0  0  0  0  0  0  0  0  0  0
   -9.3489  -21.0647    1.1243 H   0  0  0  0  0  0  0  0  0  0  0  0
  -10.6039  -20.2588   -1.1218 H   0  0  0  0  0  0  0  0  0  0  0  0
  -10.2813  -19.4339    0.4800 H   0  0  0  0  0  0  0  0  0  0  0  0
  -12.1903  -20.0687    1.0217 H   0  0  0  0  0  0  0  0  0  0  0  0
  -12.4958  -20.4104   -0.6476 H   0  0  0  0  0  0  0  0  0  0  0  0
  -12.9444  -18.4425   -0.9860 H   0  0  0  0  0  0  0  0  0  0  0  0
  -12.9241  -18.2222    0.8378 H   0  0  0  0  0  0  0  0  0  0  0  0
  -15.0030  -18.5796   -0.9343 H   0  0  0  0  0  0  0  0  0  0  0  0
  -14.2373  -17.0877   -0.2468 H   0  0  0  0  0  0  0  0  0  0  0  0
  -15.9101  -17.0206    1.4657 H   0  0  0  0  0  0  0  0  0  0  0  0
  -16.7240  -18.4136    0.6987 H   0  0  0  0  0  0  0  0  0  0  0  0
  -16.3284  -15.5691   -0.6513 H   0  0  0  0  0  0  0  0  0  0  0  0
  -17.1166  -16.9549   -1.4565 H   0  0  0  0  0  0  0  0  0  0  0  0
  -18.8436  -16.9379    0.1558 H   0  0  0  0  0  0  0  0  0  0  0  0
  -18.1013  -15.4942    0.9758 H   0  0  0  0  0  0  0  0  0  0  0  0
  -20.0918  -15.6589   -0.9369 H   0  0  0  0  0  0  0  0  0  0  0  0
  -20.1749  -15.6539    0.9188 H   0  0  0  0  0  0  0  0  0  0  0  0
  -20.9109  -13.7065   -0.8717 H   0  0  0  0  0  0  0  0  0  0  0  0
  -20.9220  -13.7063    0.8759 H   0  0  0  0  0  0  0  0  0  0  0  0
  -23.1266  -14.9284   -0.9133 H   0  0  0  0  0  0  0  0  0  0  0  0
  -23.1346  -14.9438    0.8752 H   0  0  0  0  0  0  0  0  0  0  0  0
  -23.1577  -12.4391    0.8861 H   0  0  0  0  0  0  0  0  0  0  0  0
  -23.1939  -12.4198   -0.8905 H   0  0  0  0  0  0  0  0  0  0  0  0
  -24.5691  -11.0970    0.1074 H   0  0  0  0  0  0  0  0  0  0  0  0
  -25.3396  -12.5440    0.9677 H   0  0  0  0  0  0  0  0  0  0  0  0
  -25.9027  -11.5977    0.0000 H   0  0  0  0  0  0  0  0  0  0  0  0
  1  2  1  0  0  0  0
  1107  1  0  0  0  0
  1108  1  0  0  0  0
  1109  1  0  0  0  0
  2  3  1  0  0  0  0
  3  4  1  0  0  0  0
  4  5  1  0  0  0  0
  5  6  1  0  0  0  0
  6  7  1  0  0  0  0
  7  8  2  0  0  0  0
  7110  1  0  0  0  0
  8  9  1  0  0  0  0
  8111  1  0  0  0  0
  9 10  1  0  0  0  0
  9112  1  0  0  0  0
  9113  1  0  0  0  0
 10 11  1  0  0  0  0
 10114  1  0  0  0  0
 10115  1  0  0  0  0
 11 12  1  0  0  0  0
 11116  1  0  0  0  0
 11117  1  0  0  0  0
 12 13  1  0  0  0  0
 12118  1  0  0  0  0
 12119  1  0  0  0  0
 13 14  1  0  0  0  0
 13120  1  0  0  0  0
 13121  1  0  0  0  0
 14 15  1  0  0  0  0
 14122  1  0  0  0  0
 14123  1  0  0  0  0
 15 16  1  0  0  0  0
 15124  1  0  0  0  0
 15125  1  0  0  0  0
 16 17  1  0  0  0  0
 16126  1  0  0  0  0
 16127  1  0  0  0  0
 17 18  1  0  0  0  0
 17128  1  0  0  0  0
 17129  1  0  0  0  0
 18 19  1  0  0  0  0
 18130  1  0  0  0  0
 18131  1  0  0  0  0
 19 20  1  0  0  0  0
 19132  1  0  0  0  0
 19133  1  0  0  0  0
 20 21  2  0  0  0  0
 20 22  1  0  0  0  0
 22 23  1  0  0  0  0
 23 24  1  0  0  0  0
 23 47  1  0  0  0  0
 23134  1  6  0  0  0
 24 25  1  0  0  0  0
 24135  1  0  0  0  0
 24136  1  0  0  0  0
 25 26  1  0  0  0  0
 26 27  2  0  0  0  0
 26 28  1  0  0  0  0
 28 29  1  0  0  0  0
 28137  1  0  0  0  0
 28138  1  0  0  0  0
 29 30  1  0  0  0  0
 29139  1  0  0  0  0
 29140  1  0  0  0  0
 30 31  1  0  0  0  0
 30141  1  0  0  0  0
 30142  1  0  0  0  0
 31 32  1  0  0  0  0
 31143  1  0  0  0  0
 31144  1  0  0  0  0
 32 33  1  0  0  0  0
 33 34  1  0  0  0  0
 33145  1  0  0  0  0
 33146  1  0  0  0  0
 34 35  1  0  0  0  0
 34147  1  0  0  0  0
 34148  1  0  0  0  0
 35 36  1  0  0  0  0
 35149  1  0  0  0  0
 35150  1  0  0  0  0
 36 37  1  0  0  0  0
 36151  1  0  0  0  0
 36152  1  0  0  0  0
 37 38  1  0  0  0  0
 38 39  1  0  0  0  0
 38153  1  0  0  0  0
 38154  1  0  0  0  0
 39 40  1  0  0  0  0
 39155  1  0  0  0  0
 39156  1  0  0  0  0
 40 41  1  0  0  0  0
 40157  1  0  0  0  0
 40158  1  0  0  0  0
 41 42  1  0  0  0  0
 41159  1  0  0  0  0
 41160  1  0  0  0  0
 42 43  1  0  0  0  0
 42161  1  0  0  0  0
 42162  1  0  0  0  0
 43 44  1  0  0  0  0
 43163  1  0  0  0  0
 43164  1  0  0  0  0
 44 45  1  0  0  0  0
 44165  1  0  0  0  0
 44166  1  0  0  0  0
 45 46  1  0  0  0  0
 45167  1  0  0  0  0
 45168  1  0  0  0  0
 46169  1  0  0  0  0
 46170  1  0  0  0  0
 46171  1  0  0  0  0
 47 48  1  0  0  0  0
 47172  1  0  0  0  0
 47173  1  0  0  0  0
 48 49  1  0  0  0  0
 49 50  2  0  0  0  0
 49 51  1  0  0  0  0
 49 52  1  0  0  0  0
 51174  1  0  0  0  0
 52 53  1  0  0  0  0
 53 54  1  0  0  0  0
 54 55  1  0  0  0  0
 54 56  1  0  0  0  0
 54175  1  0  0  0  0
 55176  1  0  0  0  0
 56 57  1  0  0  0  0
 57 58  1  0  0  0  0
 58 59  2  0  0  0  0
 58 60  1  0  0  0  0
 58 61  1  0  0  0  0
 60177  1  0  0  0  0
 61 62  1  0  0  0  0
 62178  1  0  0  0  0
 62179  1  0  0  0  0
 63 62  1  0  0  0  0
 63 64  1  0  0  0  0
 63 85  1  0  0  0  0
 63180  1  1  0  0  0
 64 65  1  0  0  0  0
 64181  1  0  0  0  0
 64182  1  0  0  0  0
 65 66  1  0  0  0  0
 66 67  2  0  0  0  0
 66 68  1  0  0  0  0
 68 69  1  0  0  0  0
 68183  1  0  0  0  0
 68184  1  0  0  0  0
 69 70  1  0  0  0  0
 70 71  1  0  0  0  0
 70185  1  0  0  0  0
 70186  1  0  0  0  0
 71 72  1  0  0  0  0
 71187  1  0  0  0  0
 71188  1  0  0  0  0
 72 73  1  0  0  0  0
 72189  1  0  0  0  0
 72190  1  0  0  0  0
 73 74  1  0  0  0  0
 73191  1  0  0  0  0
 73192  1  0  0  0  0
 74 75  1  0  0  0  0
 74193  1  0  0  0  0
 74194  1  0  0  0  0
 75 76  2  0  0  0  0
 75195  1  0  0  0  0
 76 77  1  0  0  0  0
 76196  1  0  0  0  0
 77 78  1  0  0  0  0
 78 79  1  0  0  0  0
 79 80  1  0  0  0  0
 80 81  1  0  0  0  0
 81 82  1  0  0  0  0
 82 83  1  0  0  0  0
 83 84  1  0  0  0  0
 84197  1  0  0  0  0
 84198  1  0  0  0  0
 84199  1  0  0  0  0
 85 86  1  0  0  0  0
 86 87  2  0  0  0  0
 86 88  1  0  0  0  0
 88 89  1  0  0  0  0
 88200  1  0  0  0  0
 88201  1  0  0  0  0
 89 90  1  0  0  0  0
 89202  1  0  0  0  0
 89203  1  0  0  0  0
 90 91  1  0  0  0  0
 90204  1  0  0  0  0
 90205  1  0  0  0  0
 91 92  1  0  0  0  0
 91206  1  0  0  0  0
 91207  1  0  0  0  0
 92 93  1  0  0  0  0
 92208  1  0  0  0  0
 92209  1  0  0  0  0
 93 94  1  0  0  0  0
 93210  1  0  0  0  0
 93211  1  0  0  0  0
 94 95  1  0  0  0  0
 94212  1  0  0  0  0
 94213  1  0  0  0  0
 95 96  1  0  0  0  0
 95214  1  0  0  0  0
 95215  1  0  0  0  0
 96 97  1  0  0  0  0
 96216  1  0  0  0  0
 96217  1  0  0  0  0
 97 98  1  0  0  0  0
 97218  1  0  0  0  0
 97219  1  0  0  0  0
 98 99  1  0  0  0  0
 98220  1  0  0  0  0
 98221  1  0  0  0  0
 99100  1  0  0  0  0
 99222  1  0  0  0  0
 99223  1  0  0  0  0
100101  1  0  0  0  0
100224  1  0  0  0  0
100225  1  0  0  0  0
101102  1  0  0  0  0
101226  1  0  0  0  0
101227  1  0  0  0  0
102103  1  0  0  0  0
102228  1  0  0  0  0
102229  1  0  0  0  0
103104  1  0  0  0  0
103230  1  0  0  0  0
103231  1  0  0  0  0
104105  1  0  0  0  0
104232  1  0  0  0  0
104233  1  0  0  0  0
105106  1  0  0  0  0
105234  1  0  0  0  0
105235  1  0  0  0  0
106236  1  0  0  0  0
106237  1  0  0  0  0
106238  1  0  0  0  0
M  END
>  <IDENTIFIER>
CNP0530546.1

>  <Energy>
1.14792e+08

$$$$
