
 OpenBabel09102517213D

 87 91  0  0  0  0  0  0  0  0999 V2000
   -5.9262   -1.8212   -2.6715 C   0  0  0  0  0  0  0  0  0  0  0  0
   -5.2278   -0.6326   -1.9785 C   0  0  0  0  0  0  0  0  0  0  0  0
   -5.0575    0.4843   -3.0429 C   0  0  0  0  0  0  0  0  0  0  0  0
   -6.1120   -0.1430   -0.8033 C   0  0  0  0  0  0  0  0  0  0  0  0
   -5.4178    0.9648    0.0116 C   0  0  0  0  0  0  0  0  0  0  0  0
   -4.0341    0.5221    0.5840 C   0  0  1  0  0  0  0  0  0  0  0  0
   -4.2428   -0.5964    1.6697 C   0  0  0  0  0  0  0  0  0  0  0  0
   -5.0415   -0.1368    2.7264 O   0  0  0  0  0  0  0  0  0  0  0  0
   -3.1308   -0.0090   -0.5798 C   0  0  2  0  0  0  0  0  0  0  0  0
   -3.8539   -1.1081   -1.4163 C   0  0  0  0  0  0  0  0  0  0  0  0
   -1.7291   -0.3793   -0.0359 C   0  0  0  0  0  0  0  0  0  0  0  0
   -1.2116   -1.6268   -0.2072 C   0  0  0  0  0  0  0  0  0  0  0  0
    0.1659   -1.9755    0.1939 C   0  0  0  0  0  0  0  0  0  0  0  0
    0.5101   -3.1462    0.2056 O   0  0  0  0  0  0  0  0  0  0  0  0
    1.1169   -0.8439    0.5296 C   0  0  2  0  0  0  0  0  0  0  0  0
    2.6459   -1.1797    0.8488 C   0  0  1  0  0  0  0  0  0  0  0  0
    2.8031   -2.0874    2.1064 C   0  0  0  0  0  0  0  0  0  0  0  0
    3.2333   -1.9841   -0.3436 C   0  0  0  0  0  0  0  0  0  0  0  0
    4.7669   -2.1593   -0.3409 C   0  0  0  0  0  0  0  0  0  0  0  0
    5.5921   -0.9588    0.1982 C   0  0  2  0  0  0  0  0  0  0  0  0
    6.1494   -1.3065    1.4498 O   0  0  0  0  0  0  0  0  0  0  0  0
    4.8304    0.4178    0.2404 C   0  0  1  0  0  0  0  0  0  0  0  0
    5.7126    1.4212    1.0575 C   0  0  0  0  0  0  0  0  0  0  0  0
    4.6499    1.0833   -1.2036 C   0  0  2  0  0  0  0  0  0  0  0  0
    3.8175    0.3579   -2.0613 O   0  0  0  0  0  0  0  0  0  0  0  0
    5.9645    1.4465   -1.9559 C   0  0  0  0  0  0  0  0  0  0  0  0
    5.6658    2.0915   -3.1667 O   0  0  0  0  0  0  0  0  0  0  0  0
    3.4566    0.2068    1.0463 C   0  0  1  0  0  0  0  0  0  0  0  0
    2.5379    1.4700    1.0650 C   0  0  0  0  0  0  0  0  0  0  0  0
    1.3469    1.2333    2.0112 C   0  0  0  0  0  0  0  0  0  0  0  0
    0.3585    0.1289    1.5035 C   0  0  2  0  0  0  0  0  0  0  0  0
   -0.1399   -0.6520    2.7747 C   0  0  0  0  0  0  0  0  0  0  0  0
   -0.9319    0.7392    0.7048 C   0  0  1  0  0  0  0  0  0  0  0  0
   -0.5115    1.7899   -0.3710 C   0  0  0  0  0  0  0  0  0  0  0  0
   -1.9057    1.4616    1.7178 C   0  0  0  0  0  0  0  0  0  0  0  0
   -3.3136    1.7939    1.1613 C   0  0  2  0  0  0  0  0  0  0  0  0
   -4.1068    2.4498    2.1267 O   0  0  0  0  0  0  0  0  0  0  0  0
   -6.9202   -1.5172   -3.0661 H   0  0  0  0  0  0  0  0  0  0  0  0
   -6.0795   -2.6607   -1.9598 H   0  0  0  0  0  0  0  0  0  0  0  0
   -5.3136   -2.1942   -3.5209 H   0  0  0  0  0  0  0  0  0  0  0  0
   -6.0504    0.7917   -3.4377 H   0  0  0  0  0  0  0  0  0  0  0  0
   -4.4449    0.1192   -3.8941 H   0  0  0  0  0  0  0  0  0  0  0  0
   -4.5688    1.3979   -2.6577 H   0  0  0  0  0  0  0  0  0  0  0  0
   -6.3489   -0.9949   -0.1330 H   0  0  0  0  0  0  0  0  0  0  0  0
   -7.0850    0.2353   -1.1865 H   0  0  0  0  0  0  0  0  0  0  0  0
   -6.0914    1.2857    0.8356 H   0  0  0  0  0  0  0  0  0  0  0  0
   -5.2864    1.8513   -0.6409 H   0  0  0  0  0  0  0  0  0  0  0  0
   -3.2681   -0.9466    2.0658 H   0  0  0  0  0  0  0  0  0  0  0  0
   -4.7265   -1.4950    1.2432 H   0  0  0  0  0  0  0  0  0  0  0  0
   -4.9628   -0.8119    3.4505 H   0  0  0  0  0  0  0  0  0  0  0  0
   -2.9669    0.8172   -1.2941 H   0  0  0  0  0  0  0  0  0  0  0  0
   -4.0196   -2.0030   -0.7816 H   0  0  0  0  0  0  0  0  0  0  0  0
   -3.2059   -1.4170   -2.2665 H   0  0  0  0  0  0  0  0  0  0  0  0
   -1.7846   -2.4180   -0.6737 H   0  0  0  0  0  0  0  0  0  0  0  0
    1.2103   -0.2947   -0.4237 H   0  0  0  0  0  0  0  0  0  0  0  0
    2.1413   -2.9747    2.0574 H   0  0  0  0  0  0  0  0  0  0  0  0
    2.6268   -1.5391    3.0461 H   0  0  0  0  0  0  0  0  0  0  0  0
    3.8249   -2.4868    2.2127 H   0  0  0  0  0  0  0  0  0  0  0  0
    2.9267   -1.4869   -1.2650 H   0  0  0  0  0  0  0  0  0  0  0  0
    2.7822   -2.9906   -0.4597 H   0  0  0  0  0  0  0  0  0  0  0  0
    5.0652   -2.4003   -1.3841 H   0  0  0  0  0  0  0  0  0  0  0  0
    5.0479   -3.0566    0.2540 H   0  0  0  0  0  0  0  0  0  0  0  0
    6.4910   -0.8603   -0.4421 H   0  0  0  0  0  0  0  0  0  0  0  0
    5.4910   -1.1675    2.1689 H   0  0  0  0  0  0  0  0  0  0  0  0
    6.7463    1.4792    0.6618 H   0  0  0  0  0  0  0  0  0  0  0  0
    5.8234    1.1163    2.1185 H   0  0  0  0  0  0  0  0  0  0  0  0
    5.2863    2.4448    1.0561 H   0  0  0  0  0  0  0  0  0  0  0  0
    4.1499    2.0631   -1.0546 H   0  0  0  0  0  0  0  0  0  0  0  0
    4.3698   -0.3352   -2.5113 H   0  0  0  0  0  0  0  0  0  0  0  0
    6.5891    0.5465   -2.1510 H   0  0  0  0  0  0  0  0  0  0  0  0
    6.5897    2.1473   -1.3716 H   0  0  0  0  0  0  0  0  0  0  0  0
    5.5857    1.3860   -3.8607 H   0  0  0  0  0  0  0  0  0  0  0  0
    3.7763    0.1535    2.1078 H   0  0  0  0  0  0  0  0  0  0  0  0
    2.1834    1.7315    0.0501 H   0  0  0  0  0  0  0  0  0  0  0  0
    3.1076    2.3381    1.4527 H   0  0  0  0  0  0  0  0  0  0  0  0
    0.8050    2.1717    2.2402 H   0  0  0  0  0  0  0  0  0  0  0  0
    1.8091    0.9282    2.9763 H   0  0  0  0  0  0  0  0  0  0  0  0
   -0.5133    0.0310    3.5622 H   0  0  0  0  0  0  0  0  0  0  0  0
    0.6388   -1.2053    3.3003 H   0  0  0  0  0  0  0  0  0  0  0  0
   -0.9290   -1.3908    2.5294 H   0  0  0  0  0  0  0  0  0  0  0  0
    0.0291    2.6408    0.0882 H   0  0  0  0  0  0  0  0  0  0  0  0
   -1.3731    2.2412   -0.8951 H   0  0  0  0  0  0  0  0  0  0  0  0
    0.1190    1.3570   -1.1699 H   0  0  0  0  0  0  0  0  0  0  0  0
   -1.4371    2.3845    2.1194 H   0  0  0  0  0  0  0  0  0  0  0  0
   -2.1310    0.8248    2.5796 H   0  0  0  0  0  0  0  0  0  0  0  0
   -3.1810    2.5274    0.3395 H   0  0  0  0  0  0  0  0  0  0  0  0
   -3.9458    2.0432    3.0163 H   0  0  0  0  0  0  0  0  0  0  0  0
  1  2  1  0  0  0  0
  1 38  1  0  0  0  0
  1 39  1  0  0  0  0
  1 40  1  0  0  0  0
  2  3  1  0  0  0  0
  2  4  1  0  0  0  0
  3 41  1  0  0  0  0
  3 42  1  0  0  0  0
  3 43  1  0  0  0  0
  4  5  1  0  0  0  0
  4 44  1  0  0  0  0
  4 45  1  0  0  0  0
  5  6  1  0  0  0  0
  5 46  1  0  0  0  0
  5 47  1  0  0  0  0
  6  7  1  1  0  0  0
  6  9  1  0  0  0  0
  7  8  1  0  0  0  0
  7 48  1  0  0  0  0
  7 49  1  0  0  0  0
  8 50  1  0  0  0  0
  9 10  1  0  0  0  0
  9 11  1  0  0  0  0
  9 51  1  6  0  0  0
 10  2  1  0  0  0  0
 10 52  1  0  0  0  0
 10 53  1  0  0  0  0
 11 12  2  0  0  0  0
 12 13  1  0  0  0  0
 12 54  1  0  0  0  0
 13 14  2  0  0  0  0
 15 13  1  0  0  0  0
 15 16  1  0  0  0  0
 15 55  1  6  0  0  0
 16 17  1  1  0  0  0
 16 18  1  0  0  0  0
 17 56  1  0  0  0  0
 17 57  1  0  0  0  0
 17 58  1  0  0  0  0
 18 19  1  0  0  0  0
 18 59  1  0  0  0  0
 18 60  1  0  0  0  0
 19 20  1  0  0  0  0
 19 61  1  0  0  0  0
 19 62  1  0  0  0  0
 20 21  1  0  0  0  0
 20 22  1  0  0  0  0
 20 63  1  6  0  0  0
 21 64  1  0  0  0  0
 22 23  1  1  0  0  0
 22 24  1  0  0  0  0
 22 28  1  0  0  0  0
 23 65  1  0  0  0  0
 23 66  1  0  0  0  0
 23 67  1  0  0  0  0
 24 25  1  0  0  0  0
 24 26  1  0  0  0  0
 24 68  1  1  0  0  0
 25 69  1  0  0  0  0
 26 27  1  0  0  0  0
 26 70  1  0  0  0  0
 26 71  1  0  0  0  0
 27 72  1  0  0  0  0
 28 29  1  0  0  0  0
 28 16  1  0  0  0  0
 28 73  1  1  0  0  0
 29 30  1  0  0  0  0
 29 74  1  0  0  0  0
 29 75  1  0  0  0  0
 30 31  1  0  0  0  0
 30 76  1  0  0  0  0
 30 77  1  0  0  0  0
 31 32  1  1  0  0  0
 31 33  1  0  0  0  0
 31 15  1  0  0  0  0
 32 78  1  0  0  0  0
 32 79  1  0  0  0  0
 32 80  1  0  0  0  0
 33 34  1  6  0  0  0
 33 35  1  0  0  0  0
 33 11  1  0  0  0  0
 34 81  1  0  0  0  0
 34 82  1  0  0  0  0
 34 83  1  0  0  0  0
 35 36  1  0  0  0  0
 35 84  1  0  0  0  0
 35 85  1  0  0  0  0
 36 37  1  0  0  0  0
 36  6  1  0  0  0  0
 36 86  1  6  0  0  0
 37 87  1  0  0  0  0
M  END
>  <IDENTIFIER>
CNP0421488.1

>  <Energy>
1084.96

$$$$
