
 OpenBabel09082506003D

 77 80  0  0  0  0  0  0  0  0999 V2000
   10.0732   -0.2139   -0.2684 C   0  0  0  0  0  0  0  0  0  0  0  0
    8.6830   -0.4909   -0.7426 C   0  0  0  0  0  0  0  0  0  0  0  0
    8.5033   -0.9596   -1.8579 O   0  0  0  0  0  0  0  0  0  0  0  0
    7.6396   -0.2091    0.0811 O   0  0  0  0  0  0  0  0  0  0  0  0
    6.2951   -0.3134   -0.2390 C   0  0  1  0  0  0  0  0  0  0  0  0
    5.6107   -1.3073    0.7014 C   0  0  0  0  0  0  0  0  0  0  0  0
    4.1132   -1.5182    0.3501 C   0  0  0  0  0  0  0  0  0  0  0  0
    3.3779   -0.2791   -0.2892 C   0  0  2  0  0  0  0  0  0  0  0  0
    3.3897   -0.4149   -1.8459 C   0  0  0  0  0  0  0  0  0  0  0  0
    4.1221    1.0175    0.0820 C   0  0  0  0  0  0  0  0  0  0  0  0
    3.4820    2.1213    0.5504 C   0  0  0  0  0  0  0  0  0  0  0  0
    1.9811    2.2296    0.7080 C   0  0  0  0  0  0  0  0  0  0  0  0
    1.2641    1.1409   -0.0994 C   0  0  2  0  0  0  0  0  0  0  0  0
   -0.2885    1.1590    0.0143 C   0  0  1  0  0  0  0  0  0  0  0  0
   -0.9845    1.0397   -1.3610 C   0  0  0  0  0  0  0  0  0  0  0  0
   -2.2103    0.1785   -1.1254 C   0  0  0  0  0  0  0  0  0  0  0  0
   -2.4368    0.1867    0.3960 C   0  0  1  0  0  0  0  0  0  0  0  0
   -3.5332   -0.8791    0.7693 C   0  0  1  0  0  0  0  0  0  0  0  0
   -3.6901   -1.1230    2.2709 C   0  0  0  0  0  0  0  0  0  0  0  0
   -4.9236   -0.5632    0.2062 C   0  0  0  0  0  0  0  0  0  0  0  0
   -5.3027    0.6053   -0.3617 C   0  0  0  0  0  0  0  0  0  0  0  0
   -6.6621    0.9187   -0.9544 C   0  0  0  0  0  0  0  0  0  0  0  0
   -7.7647   -0.1613   -0.8493 C   0  0  0  0  0  0  0  0  0  0  0  0
   -8.9549    0.2414   -1.7336 C   0  0  0  0  0  0  0  0  0  0  0  0
   -8.2576   -0.3361    0.5982 C   0  0  0  0  0  0  0  0  0  0  0  0
   -0.9550    0.0785    0.9175 C   0  0  2  0  0  0  0  0  0  0  0  0
   -0.7897    0.5070    2.4011 C   0  0  0  0  0  0  0  0  0  0  0  0
   -0.3119   -1.3487    0.6860 C   0  0  0  0  0  0  0  0  0  0  0  0
    0.9694   -1.3690   -0.1841 C   0  0  0  0  0  0  0  0  0  0  0  0
    1.8995   -0.2244    0.2483 C   0  0  1  0  0  0  0  0  0  0  0  0
    5.6400    1.0672   -0.0088 C   0  0  0  0  0  0  0  0  0  0  0  0
   10.8189   -0.4964   -1.0420 H   0  0  0  0  0  0  0  0  0  0  0  0
   10.2733   -0.7936    0.6563 H   0  0  0  0  0  0  0  0  0  0  0  0
   10.1767    0.8697   -0.0491 H   0  0  0  0  0  0  0  0  0  0  0  0
    6.1779   -0.6725   -1.2752 H   0  0  0  0  0  0  0  0  0  0  0  0
    5.6810   -0.8736    1.7252 H   0  0  0  0  0  0  0  0  0  0  0  0
    6.1233   -2.2930    0.7314 H   0  0  0  0  0  0  0  0  0  0  0  0
    3.6434   -1.8396    1.3056 H   0  0  0  0  0  0  0  0  0  0  0  0
    3.9973   -2.3842   -0.3374 H   0  0  0  0  0  0  0  0  0  0  0  0
    4.3950   -0.4631   -2.2857 H   0  0  0  0  0  0  0  0  0  0  0  0
    2.9001    0.4349   -2.3550 H   0  0  0  0  0  0  0  0  0  0  0  0
    2.8700   -1.3432   -2.1629 H   0  0  0  0  0  0  0  0  0  0  0  0
    4.0695    2.9808    0.8630 H   0  0  0  0  0  0  0  0  0  0  0  0
    1.6472    3.2132    0.3115 H   0  0  0  0  0  0  0  0  0  0  0  0
    1.7376    2.1911    1.7887 H   0  0  0  0  0  0  0  0  0  0  0  0
    1.4739    1.4104   -1.1515 H   0  0  0  0  0  0  0  0  0  0  0  0
   -0.6219    2.1627    0.3754 H   0  0  0  0  0  0  0  0  0  0  0  0
   -0.3832    0.5714   -2.1704 H   0  0  0  0  0  0  0  0  0  0  0  0
   -1.2636    2.0644   -1.6949 H   0  0  0  0  0  0  0  0  0  0  0  0
   -1.9325   -0.8612   -1.4061 H   0  0  0  0  0  0  0  0  0  0  0  0
   -3.0554    0.4488   -1.7891 H   0  0  0  0  0  0  0  0  0  0  0  0
   -2.7948    1.1907    0.7178 H   0  0  0  0  0  0  0  0  0  0  0  0
   -3.2346   -1.8476    0.3165 H   0  0  0  0  0  0  0  0  0  0  0  0
   -3.9416   -0.1796    2.8008 H   0  0  0  0  0  0  0  0  0  0  0  0
   -2.7743   -1.5794    2.6865 H   0  0  0  0  0  0  0  0  0  0  0  0
   -4.4980   -1.8640    2.4566 H   0  0  0  0  0  0  0  0  0  0  0  0
   -5.6370   -1.3735    0.2829 H   0  0  0  0  0  0  0  0  0  0  0  0
   -4.6037    1.4249   -0.4455 H   0  0  0  0  0  0  0  0  0  0  0  0
   -6.4682    1.1243   -2.0297 H   0  0  0  0  0  0  0  0  0  0  0  0
   -7.0414    1.8582   -0.4961 H   0  0  0  0  0  0  0  0  0  0  0  0
   -7.3737   -1.1254   -1.2412 H   0  0  0  0  0  0  0  0  0  0  0  0
   -9.3875    1.2087   -1.3968 H   0  0  0  0  0  0  0  0  0  0  0  0
   -9.7455   -0.5377   -1.6949 H   0  0  0  0  0  0  0  0  0  0  0  0
   -8.6309    0.3477   -2.7911 H   0  0  0  0  0  0  0  0  0  0  0  0
   -8.6895    0.6149    0.9779 H   0  0  0  0  0  0  0  0  0  0  0  0
   -7.4475   -0.6364    1.2888 H   0  0  0  0  0  0  0  0  0  0  0  0
   -9.0428   -1.1211    0.6376 H   0  0  0  0  0  0  0  0  0  0  0  0
   -1.2563   -0.1924    3.1111 H   0  0  0  0  0  0  0  0  0  0  0  0
   -1.2330    1.5102    2.5759 H   0  0  0  0  0  0  0  0  0  0  0  0
    0.2809    0.5553    2.6811 H   0  0  0  0  0  0  0  0  0  0  0  0
   -1.0219   -2.0918    0.2763 H   0  0  0  0  0  0  0  0  0  0  0  0
   -0.0354   -1.7631    1.6812 H   0  0  0  0  0  0  0  0  0  0  0  0
    0.7157   -1.2555   -1.2577 H   0  0  0  0  0  0  0  0  0  0  0  0
    1.4508   -2.3614   -0.0530 H   0  0  0  0  0  0  0  0  0  0  0  0
    1.9632   -0.2920    1.3586 H   0  0  0  0  0  0  0  0  0  0  0  0
    5.9910    1.4139    0.9899 H   0  0  0  0  0  0  0  0  0  0  0  0
    5.9832    1.8081   -0.7626 H   0  0  0  0  0  0  0  0  0  0  0  0
  1  2  1  0  0  0  0
  1 32  1  0  0  0  0
  1 33  1  0  0  0  0
  1 34  1  0  0  0  0
  2  3  2  0  0  0  0
  2  4  1  0  0  0  0
  5  4  1  0  0  0  0
  5  6  1  0  0  0  0
  5 35  1  6  0  0  0
  6  7  1  0  0  0  0
  6 36  1  0  0  0  0
  6 37  1  0  0  0  0
  7  8  1  0  0  0  0
  7 38  1  0  0  0  0
  7 39  1  0  0  0  0
  8  9  1  6  0  0  0
  8 10  1  0  0  0  0
  9 40  1  0  0  0  0
  9 41  1  0  0  0  0
  9 42  1  0  0  0  0
 10 11  2  0  0  0  0
 10 31  1  0  0  0  0
 11 12  1  0  0  0  0
 11 43  1  0  0  0  0
 12 44  1  0  0  0  0
 12 45  1  0  0  0  0
 13 12  1  0  0  0  0
 13 14  1  0  0  0  0
 13 46  1  6  0  0  0
 14 15  1  0  0  0  0
 14 47  1  1  0  0  0
 15 16  1  0  0  0  0
 15 48  1  0  0  0  0
 15 49  1  0  0  0  0
 16 50  1  0  0  0  0
 16 51  1  0  0  0  0
 17 16  1  0  0  0  0
 17 18  1  0  0  0  0
 17 26  1  0  0  0  0
 17 52  1  1  0  0  0
 18 19  1  0  0  0  0
 18 20  1  0  0  0  0
 18 53  1  6  0  0  0
 19 54  1  0  0  0  0
 19 55  1  0  0  0  0
 19 56  1  0  0  0  0
 20 21  2  0  0  0  0
 20 57  1  0  0  0  0
 21 22  1  0  0  0  0
 21 58  1  0  0  0  0
 22 23  1  0  0  0  0
 22 59  1  0  0  0  0
 22 60  1  0  0  0  0
 23 24  1  0  0  0  0
 23 25  1  0  0  0  0
 23 61  1  0  0  0  0
 24 62  1  0  0  0  0
 24 63  1  0  0  0  0
 24 64  1  0  0  0  0
 25 65  1  0  0  0  0
 25 66  1  0  0  0  0
 25 67  1  0  0  0  0
 26 27  1  1  0  0  0
 26 28  1  0  0  0  0
 26 14  1  0  0  0  0
 27 68  1  0  0  0  0
 27 69  1  0  0  0  0
 27 70  1  0  0  0  0
 28 29  1  0  0  0  0
 28 71  1  0  0  0  0
 28 72  1  0  0  0  0
 29 73  1  0  0  0  0
 29 74  1  0  0  0  0
 30 29  1  0  0  0  0
 30  8  1  0  0  0  0
 30 13  1  0  0  0  0
 30 75  1  1  0  0  0
 31  5  1  0  0  0  0
 31 76  1  0  0  0  0
 31 77  1  0  0  0  0
M  END
>  <IDENTIFIER>
CNP0230131.6

>  <Energy>
892.453

$$$$
