
 OpenBabel09092508243D

 61 66  0  0  0  0  0  0  0  0999 V2000
   -8.6134   -2.2761   -2.1744 C   0  0  0  0  0  0  0  0  0  0  0  0
   -9.0272   -1.6510   -0.8514 C   0  0  0  0  0  0  0  0  0  0  0  0
   -7.9897   -0.8881   -0.3535 O   0  0  0  0  0  0  0  0  0  0  0  0
   -8.0563   -0.1880    0.8091 C   0  0  0  0  0  0  0  0  0  0  0  0
   -9.0851   -0.1950    1.4729 O   0  0  0  0  0  0  0  0  0  0  0  0
   -6.8790    0.5885    1.2748 C   0  0  0  0  0  0  0  0  0  0  0  0
   -6.9386    1.3262    2.4664 C   0  0  0  0  0  0  0  0  0  0  0  0
   -5.8324    2.0536    2.8999 C   0  0  0  0  0  0  0  0  0  0  0  0
   -4.6496    2.0569    2.1579 C   0  0  0  0  0  0  0  0  0  0  0  0
   -4.5546    1.3226    0.9524 C   0  0  0  0  0  0  0  0  0  0  0  0
   -3.3810    1.2815    0.1201 N   0  0  0  0  0  0  0  0  0  0  0  0
   -2.1537    1.8353    0.3709 C   0  0  0  0  0  0  0  0  0  0  0  0
   -1.9163    2.4172    1.4167 O   0  0  0  0  0  0  0  0  0  0  0  0
   -1.0520    1.7151   -0.6635 C   0  0  1  0  0  0  0  0  0  0  0  0
   -1.4522    2.4321   -1.9546 C   0  0  0  0  0  0  0  0  0  0  0  0
    0.1167    2.2982   -0.1885 O   0  0  0  0  0  0  0  0  0  0  0  0
    1.3626    1.7590   -0.0724 C   0  0  0  0  0  0  0  0  0  0  0  0
    2.3731    2.5735    0.4978 C   0  0  0  0  0  0  0  0  0  0  0  0
    3.6962    2.1146    0.6417 C   0  0  0  0  0  0  0  0  0  0  0  0
    3.9907    0.8243    0.2026 C   0  0  0  0  0  0  0  0  0  0  0  0
    3.0054    0.0176   -0.3545 C   0  0  0  0  0  0  0  0  0  0  0  0
    1.6912    0.4471   -0.5067 C   0  0  0  0  0  0  0  0  0  0  0  0
    3.6134   -1.1795   -0.6836 C   0  0  0  0  0  0  0  0  0  0  0  0
    3.1685   -2.3665   -1.2626 C   0  0  0  0  0  0  0  0  0  0  0  0
    4.1287   -3.3910   -1.4431 C   0  0  0  0  0  0  0  0  0  0  0  0
    5.4374   -3.2047   -1.0603 N   0  0  0  0  0  0  0  0  0  0  0  0
    5.8527   -2.0299   -0.4939 C   0  0  0  0  0  0  0  0  0  0  0  0
    4.9159   -1.0361   -0.3174 C   0  0  0  0  0  0  0  0  0  0  0  0
    5.1768    0.1619    0.2212 N   0  0  0  0  0  0  0  0  0  0  0  0
    6.4438    0.4885    0.6474 C   0  0  0  0  0  0  0  0  0  0  0  0
    6.6714    1.5830    1.1355 O   0  0  0  0  0  0  0  0  0  0  0  0
    7.4775   -0.4822    0.5004 C   0  0  0  0  0  0  0  0  0  0  0  0
    8.7976   -0.2170    0.9101 C   0  0  0  0  0  0  0  0  0  0  0  0
    9.7942   -1.1842    0.7533 C   0  0  0  0  0  0  0  0  0  0  0  0
    9.4931   -2.4253    0.1889 C   0  0  0  0  0  0  0  0  0  0  0  0
    8.1919   -2.7157   -0.2260 C   0  0  0  0  0  0  0  0  0  0  0  0
    7.1727   -1.7599   -0.0796 C   0  0  0  0  0  0  0  0  0  0  0  0
   -5.6872    0.5963    0.5281 C   0  0  0  0  0  0  0  0  0  0  0  0
   -9.4468   -2.8915   -2.5745 H   0  0  0  0  0  0  0  0  0  0  0  0
   -7.7239   -2.9248   -2.0280 H   0  0  0  0  0  0  0  0  0  0  0  0
   -8.3680   -1.4806   -2.9099 H   0  0  0  0  0  0  0  0  0  0  0  0
   -9.2815   -2.4578   -0.1293 H   0  0  0  0  0  0  0  0  0  0  0  0
   -9.9219   -1.0113   -1.0161 H   0  0  0  0  0  0  0  0  0  0  0  0
   -7.8417    1.3443    3.0638 H   0  0  0  0  0  0  0  0  0  0  0  0
   -5.8925    2.6231    3.8187 H   0  0  0  0  0  0  0  0  0  0  0  0
   -3.8462    2.6492    2.5548 H   0  0  0  0  0  0  0  0  0  0  0  0
   -3.4759    0.7683   -0.7696 H   0  0  0  0  0  0  0  0  0  0  0  0
   -0.9210    0.6414   -0.8858 H   0  0  0  0  0  0  0  0  0  0  0  0
   -1.6270    3.5118   -1.7571 H   0  0  0  0  0  0  0  0  0  0  0  0
   -2.3734    1.9931   -2.3907 H   0  0  0  0  0  0  0  0  0  0  0  0
   -0.6376    2.3344   -2.7032 H   0  0  0  0  0  0  0  0  0  0  0  0
    2.1273    3.5752    0.8279 H   0  0  0  0  0  0  0  0  0  0  0  0
    4.4500    2.7557    1.0764 H   0  0  0  0  0  0  0  0  0  0  0  0
    0.9808   -0.2272   -0.9556 H   0  0  0  0  0  0  0  0  0  0  0  0
    2.1371   -2.5003   -1.5609 H   0  0  0  0  0  0  0  0  0  0  0  0
    3.8314   -4.3308   -1.8881 H   0  0  0  0  0  0  0  0  0  0  0  0
    9.0621    0.7365    1.3506 H   0  0  0  0  0  0  0  0  0  0  0  0
   10.8067   -0.9706    1.0706 H   0  0  0  0  0  0  0  0  0  0  0  0
   10.2729   -3.1670    0.0718 H   0  0  0  0  0  0  0  0  0  0  0  0
    7.9860   -3.6859   -0.6612 H   0  0  0  0  0  0  0  0  0  0  0  0
   -5.6344    0.0302   -0.3941 H   0  0  0  0  0  0  0  0  0  0  0  0
  1  2  1  0  0  0  0
  1 39  1  0  0  0  0
  1 40  1  0  0  0  0
  1 41  1  0  0  0  0
  2  3  1  0  0  0  0
  2 42  1  0  0  0  0
  2 43  1  0  0  0  0
  3  4  1  0  0  0  0
  4  5  2  0  0  0  0
  4  6  1  0  0  0  0
  6  7  2  0  0  0  0
  7  8  1  0  0  0  0
  7 44  1  0  0  0  0
  8  9  2  0  0  0  0
  8 45  1  0  0  0  0
  9 10  1  0  0  0  0
  9 46  1  0  0  0  0
 10 11  1  0  0  0  0
 10 38  2  0  0  0  0
 11 12  1  0  0  0  0
 11 47  1  0  0  0  0
 12 13  2  0  0  0  0
 12 14  1  0  0  0  0
 14 15  1  0  0  0  0
 14 16  1  0  0  0  0
 14 48  1  6  0  0  0
 15 49  1  0  0  0  0
 15 50  1  0  0  0  0
 15 51  1  0  0  0  0
 16 17  1  0  0  0  0
 17 18  2  0  0  0  0
 18 19  1  0  0  0  0
 18 52  1  0  0  0  0
 19 20  2  0  0  0  0
 19 53  1  0  0  0  0
 20 21  1  0  0  0  0
 21 22  2  0  0  0  0
 21 23  1  0  0  0  0
 22 17  1  0  0  0  0
 22 54  1  0  0  0  0
 23 24  2  0  0  0  0
 24 25  1  0  0  0  0
 24 55  1  0  0  0  0
 25 26  2  0  0  0  0
 25 56  1  0  0  0  0
 26 27  1  0  0  0  0
 27 28  2  0  0  0  0
 28 29  1  0  0  0  0
 28 23  1  0  0  0  0
 29 30  1  0  0  0  0
 29 20  1  0  0  0  0
 30 31  2  0  0  0  0
 30 32  1  0  0  0  0
 32 33  2  0  0  0  0
 33 34  1  0  0  0  0
 33 57  1  0  0  0  0
 34 35  2  0  0  0  0
 34 58  1  0  0  0  0
 35 36  1  0  0  0  0
 35 59  1  0  0  0  0
 36 37  2  0  0  0  0
 36 60  1  0  0  0  0
 37 32  1  0  0  0  0
 37 27  1  0  0  0  0
 38  6  1  0  0  0  0
 38 61  1  0  0  0  0
M  END
>  <IDENTIFIER>
CNP0176279.2

>  <Energy>
576.677

$$$$
