
 OpenBabel09112511113D

 44 45  0  0  0  0  0  0  0  0999 V2000
    2.1129    1.3069    2.3579 C   0  0  0  0  0  0  0  0  0  0  0  0
    2.4384    0.6741    1.2281 C   0  0  0  0  0  0  0  0  0  0  0  0
    1.5240    0.1575    0.2073 C   0  0  0  0  0  0  0  0  0  0  0  0
    2.2411   -0.4146   -0.7572 C   0  0  0  0  0  0  0  0  0  0  0  0
    3.6589   -0.2444   -0.4038 C   0  0  0  0  0  0  0  0  0  0  0  0
    4.6194   -0.5993   -1.0687 O   0  0  0  0  0  0  0  0  0  0  0  0
    3.7519    0.3902    0.7839 N   0  0  0  0  0  0  0  0  0  0  0  0
    4.8957    0.7614    1.3926 O   0  0  0  0  0  0  0  0  0  0  0  0
    5.2816   -0.3017    2.2275 C   0  0  0  0  0  0  0  0  0  0  0  0
    1.5587   -1.0074   -1.9631 C   0  0  2  0  0  0  0  0  0  0  0  0
    2.4221   -1.1462   -3.0651 O   0  0  0  0  0  0  0  0  0  0  0  0
    0.2665   -0.1803   -2.2709 C   0  0  1  0  0  0  0  0  0  0  0  0
    0.6224    1.2509   -2.7563 C   0  0  0  0  0  0  0  0  0  0  0  0
   -0.4925   -0.8264   -3.2661 O   0  0  0  0  0  0  0  0  0  0  0  0
   -0.5846   -0.1532   -0.9337 C   0  0  2  0  0  0  0  0  0  0  0  0
   -1.8586    0.7181   -1.0339 C   0  0  0  0  0  0  0  0  0  0  0  0
   -2.7082    0.7382    0.2508 C   0  0  0  0  0  0  0  0  0  0  0  0
   -3.3725   -0.6113    0.5724 C   0  0  0  0  0  0  0  0  0  0  0  0
   -4.1783   -0.5841    1.8834 C   0  0  0  0  0  0  0  0  0  0  0  0
   -5.3429    0.4077    1.8727 C   0  0  0  0  0  0  0  0  0  0  0  0
    0.1733    0.2715    0.1606 O   0  0  0  0  0  0  0  0  0  0  0  0
    1.0705    1.4796    2.6078 H   0  0  0  0  0  0  0  0  0  0  0  0
    2.8827    1.6512    3.0399 H   0  0  0  0  0  0  0  0  0  0  0  0
    6.1777    0.0110    2.8009 H   0  0  0  0  0  0  0  0  0  0  0  0
    5.5611   -1.1939    1.6257 H   0  0  0  0  0  0  0  0  0  0  0  0
    4.4865   -0.5457    2.9673 H   0  0  0  0  0  0  0  0  0  0  0  0
    1.2290   -2.0265   -1.6637 H   0  0  0  0  0  0  0  0  0  0  0  0
    2.8945   -0.2835   -3.1964 H   0  0  0  0  0  0  0  0  0  0  0  0
    1.2378    1.2120   -3.6783 H   0  0  0  0  0  0  0  0  0  0  0  0
    1.1825    1.8191   -1.9848 H   0  0  0  0  0  0  0  0  0  0  0  0
   -0.2907    1.8193   -3.0232 H   0  0  0  0  0  0  0  0  0  0  0  0
    0.0656   -0.8902   -4.0851 H   0  0  0  0  0  0  0  0  0  0  0  0
   -0.8927   -1.2013   -0.7344 H   0  0  0  0  0  0  0  0  0  0  0  0
   -2.4876    0.3872   -1.8885 H   0  0  0  0  0  0  0  0  0  0  0  0
   -1.5515    1.7693   -1.2103 H   0  0  0  0  0  0  0  0  0  0  0  0
   -3.5041    1.4957    0.0961 H   0  0  0  0  0  0  0  0  0  0  0  0
   -2.0800    1.0678    1.1070 H   0  0  0  0  0  0  0  0  0  0  0  0
   -2.5940   -1.3920    0.6919 H   0  0  0  0  0  0  0  0  0  0  0  0
   -4.0380   -0.9061   -0.2684 H   0  0  0  0  0  0  0  0  0  0  0  0
   -3.5021   -0.3421    2.7320 H   0  0  0  0  0  0  0  0  0  0  0  0
   -4.5939   -1.6011    2.0522 H   0  0  0  0  0  0  0  0  0  0  0  0
   -4.9807    1.4520    1.7821 H   0  0  0  0  0  0  0  0  0  0  0  0
   -5.8999    0.3293    2.8301 H   0  0  0  0  0  0  0  0  0  0  0  0
   -6.0370    0.1814    1.0362 H   0  0  0  0  0  0  0  0  0  0  0  0
  1  2  2  0  0  0  0
  1 22  1  0  0  0  0
  1 23  1  0  0  0  0
  2  3  1  0  0  0  0
  3  4  2  0  0  0  0
  4  5  1  0  0  0  0
  4 10  1  0  0  0  0
  5  6  2  0  0  0  0
  5  7  1  0  0  0  0
  7  8  1  0  0  0  0
  7  2  1  0  0  0  0
  8  9  1  0  0  0  0
  9 24  1  0  0  0  0
  9 25  1  0  0  0  0
  9 26  1  0  0  0  0
 10 11  1  0  0  0  0
 10 12  1  0  0  0  0
 10 27  1  1  0  0  0
 11 28  1  0  0  0  0
 12 13  1  0  0  0  0
 12 14  1  6  0  0  0
 12 15  1  0  0  0  0
 13 29  1  0  0  0  0
 13 30  1  0  0  0  0
 13 31  1  0  0  0  0
 14 32  1  0  0  0  0
 15 16  1  0  0  0  0
 15 21  1  0  0  0  0
 15 33  1  1  0  0  0
 16 17  1  0  0  0  0
 16 34  1  0  0  0  0
 16 35  1  0  0  0  0
 17 18  1  0  0  0  0
 17 36  1  0  0  0  0
 17 37  1  0  0  0  0
 18 19  1  0  0  0  0
 18 38  1  0  0  0  0
 18 39  1  0  0  0  0
 19 20  1  0  0  0  0
 19 40  1  0  0  0  0
 19 41  1  0  0  0  0
 20 42  1  0  0  0  0
 20 43  1  0  0  0  0
 20 44  1  0  0  0  0
 21  3  1  0  0  0  0
M  END
>  <IDENTIFIER>
CNP0149659.2

>  <Energy>
393.067

$$$$
