
 OpenBabel09082519103D

 56 60  0  0  0  0  0  0  0  0999 V2000
    5.2911    0.0266    4.2265 C   0  0  0  0  0  0  0  0  0  0  0  0
    4.3018   -0.0100    3.2655 O   0  0  0  0  0  0  0  0  0  0  0  0
    4.5005   -0.0477    1.9198 C   0  0  0  0  0  0  0  0  0  0  0  0
    5.7968   -0.0806    1.3599 C   0  0  0  0  0  0  0  0  0  0  0  0
    5.9717   -0.1098   -0.0233 C   0  0  0  0  0  0  0  0  0  0  0  0
    4.8653   -0.1068   -0.8678 C   0  0  0  0  0  0  0  0  0  0  0  0
    3.5781   -0.0735   -0.3335 C   0  0  0  0  0  0  0  0  0  0  0  0
    3.3752   -0.0437    1.0653 C   0  0  0  0  0  0  0  0  0  0  0  0
    1.9823    0.0286    1.6752 C   0  0  0  0  0  0  0  0  0  0  0  0
    0.9421    0.0562    0.6600 N   0  0  0  0  0  0  0  0  0  0  0  0
    0.3671    1.1706    0.1655 C   0  0  0  0  0  0  0  0  0  0  0  0
    0.6732    2.2965    0.5288 O   0  0  0  0  0  0  0  0  0  0  0  0
   -0.4604    0.8602   -1.0516 C   0  0  1  0  0  0  0  0  0  0  0  0
   -0.6676   -0.6440   -0.9123 C   0  0  1  0  0  0  0  0  0  0  0  0
    0.4442   -1.0213    0.0198 C   0  0  0  0  0  0  0  0  0  0  0  0
    0.7696   -2.1702    0.2806 O   0  0  0  0  0  0  0  0  0  0  0  0
   -2.0846   -0.7311   -0.2479 C   0  0  2  0  0  0  0  0  0  0  0  0
   -2.7411    0.5911   -0.3580 N   0  0  0  0  0  0  0  0  0  0  0  0
   -1.8790    1.3988   -1.2253 C   0  0  1  0  0  0  0  0  0  0  0  0
   -2.0349    2.9308   -0.9916 C   0  0  0  0  0  0  0  0  0  0  0  0
   -3.4826    3.3707   -1.2516 C   0  0  0  0  0  0  0  0  0  0  0  0
   -1.0909    3.7500   -1.8883 C   0  0  0  0  0  0  0  0  0  0  0  0
   -2.1217   -1.2288    1.2023 C   0  0  0  0  0  0  0  0  0  0  0  0
   -1.5973   -0.6572    2.1463 O   0  0  0  0  0  0  0  0  0  0  0  0
   -2.8175   -2.3714    1.3493 N   0  0  0  0  0  0  0  0  0  0  0  0
   -3.2952   -2.7385    0.0892 C   0  0  0  0  0  0  0  0  0  0  0  0
   -4.0633   -3.8603   -0.2148 C   0  0  0  0  0  0  0  0  0  0  0  0
   -4.4482   -4.0557   -1.5506 C   0  0  0  0  0  0  0  0  0  0  0  0
   -4.0644   -3.1317   -2.5435 C   0  0  0  0  0  0  0  0  0  0  0  0
   -3.2935   -2.0038   -2.2081 C   0  0  0  0  0  0  0  0  0  0  0  0
   -2.9141   -1.8278   -0.8737 C   0  0  0  0  0  0  0  0  0  0  0  0
    4.8209    0.0479    5.2306 H   0  0  0  0  0  0  0  0  0  0  0  0
    5.9079    0.9425    4.1042 H   0  0  0  0  0  0  0  0  0  0  0  0
    5.9320   -0.8779    4.1545 H   0  0  0  0  0  0  0  0  0  0  0  0
    6.6779   -0.0809    1.9862 H   0  0  0  0  0  0  0  0  0  0  0  0
    6.9689   -0.1306   -0.4431 H   0  0  0  0  0  0  0  0  0  0  0  0
    5.0037   -0.1246   -1.9408 H   0  0  0  0  0  0  0  0  0  0  0  0
    2.7514   -0.0623   -1.0292 H   0  0  0  0  0  0  0  0  0  0  0  0
    1.9357    0.9615    2.2774 H   0  0  0  0  0  0  0  0  0  0  0  0
    1.8004   -0.8180    2.3735 H   0  0  0  0  0  0  0  0  0  0  0  0
    0.1877    1.1433   -1.9102 H   0  0  0  0  0  0  0  0  0  0  0  0
   -0.6299   -1.0803   -1.9357 H   0  0  0  0  0  0  0  0  0  0  0  0
   -2.7560    1.0495    0.5838 H   0  0  0  0  0  0  0  0  0  0  0  0
   -2.1740    1.1667   -2.2752 H   0  0  0  0  0  0  0  0  0  0  0  0
   -1.7882    3.1631    0.0677 H   0  0  0  0  0  0  0  0  0  0  0  0
   -3.7655    3.1739   -2.3083 H   0  0  0  0  0  0  0  0  0  0  0  0
   -3.5937    4.4579   -1.0503 H   0  0  0  0  0  0  0  0  0  0  0  0
   -4.1849    2.8275   -0.5859 H   0  0  0  0  0  0  0  0  0  0  0  0
   -1.2997    3.5572   -2.9617 H   0  0  0  0  0  0  0  0  0  0  0  0
   -0.0292    3.5051   -1.6835 H   0  0  0  0  0  0  0  0  0  0  0  0
   -1.2198    4.8349   -1.6852 H   0  0  0  0  0  0  0  0  0  0  0  0
   -2.9744   -2.8752    2.2346 H   0  0  0  0  0  0  0  0  0  0  0  0
   -4.3534   -4.5622    0.5565 H   0  0  0  0  0  0  0  0  0  0  0  0
   -5.0411   -4.9209   -1.8172 H   0  0  0  0  0  0  0  0  0  0  0  0
   -4.3644   -3.2931   -3.5707 H   0  0  0  0  0  0  0  0  0  0  0  0
   -2.9954   -1.2948   -2.9689 H   0  0  0  0  0  0  0  0  0  0  0  0
  1  2  1  0  0  0  0
  1 32  1  0  0  0  0
  1 33  1  0  0  0  0
  1 34  1  0  0  0  0
  2  3  1  0  0  0  0
  3  4  2  0  0  0  0
  4  5  1  0  0  0  0
  4 35  1  0  0  0  0
  5  6  2  0  0  0  0
  5 36  1  0  0  0  0
  6  7  1  0  0  0  0
  6 37  1  0  0  0  0
  7  8  2  0  0  0  0
  7 38  1  0  0  0  0
  8  9  1  0  0  0  0
  8  3  1  0  0  0  0
  9 10  1  0  0  0  0
  9 39  1  0  0  0  0
  9 40  1  0  0  0  0
 10 11  1  0  0  0  0
 11 12  2  0  0  0  0
 13 11  1  0  0  0  0
 13 14  1  0  0  0  0
 13 41  1  6  0  0  0
 14 15  1  0  0  0  0
 14 17  1  0  0  0  0
 14 42  1  6  0  0  0
 15 16  2  0  0  0  0
 15 10  1  0  0  0  0
 17 18  1  0  0  0  0
 17 23  1  1  0  0  0
 18 19  1  0  0  0  0
 18 43  1  0  0  0  0
 19 20  1  0  0  0  0
 19 13  1  0  0  0  0
 19 44  1  6  0  0  0
 20 21  1  0  0  0  0
 20 22  1  0  0  0  0
 20 45  1  0  0  0  0
 21 46  1  0  0  0  0
 21 47  1  0  0  0  0
 21 48  1  0  0  0  0
 22 49  1  0  0  0  0
 22 50  1  0  0  0  0
 22 51  1  0  0  0  0
 23 24  2  0  0  0  0
 23 25  1  0  0  0  0
 25 26  1  0  0  0  0
 25 52  1  0  0  0  0
 26 27  2  0  0  0  0
 27 28  1  0  0  0  0
 27 53  1  0  0  0  0
 28 29  2  0  0  0  0
 28 54  1  0  0  0  0
 29 30  1  0  0  0  0
 29 55  1  0  0  0  0
 30 31  2  0  0  0  0
 30 56  1  0  0  0  0
 31 17  1  0  0  0  0
 31 26  1  0  0  0  0
M  END
>  <IDENTIFIER>
CNP0341902.2

>  <Energy>
665.765

$$$$
