
 OpenBabel09052513352D

141140  0  0  0  0  0  0  0  0999 V2000
   -3.7500   -6.4952    0.0000 C   0  0  0  0  0  0  0  0  0  0  0  0
   -3.0000   -5.1962    0.0000 C   0  0  0  0  0  0  0  0  0  0  0  0
   -3.3062   -3.7981   -0.5508 C   0  0  0  0  0  0  0  0  0  0  0  0
   -2.0607   -2.9309   -0.1468 C   0  0  0  0  0  0  0  0  0  0  0  0
   -1.9761   -1.5262   -0.7415 C   0  0  0  0  0  0  0  0  0  0  0  0
   -0.8076   -0.7249   -0.1714 C   0  0  0  0  0  0  0  0  0  0  0  0
    0.5301   -0.9237   -0.3247 C   0  0  0  0  0  0  0  0  0  0  0  0
    1.2360   -2.0030   -1.1196 C   0  0  0  0  0  0  0  0  0  0  0  0
    2.1523   -2.8063   -0.2083 C   0  0  0  0  0  0  0  0  0  0  0  0
    3.4885   -3.0281   -0.3393 C   0  0  0  0  0  0  0  0  0  0  0  0
    4.4100   -2.5682   -1.4558 C   0  0  0  0  0  0  0  0  0  0  0  0
    5.5246   -1.6839   -0.9312 C   0  0  0  0  0  0  0  0  0  0  0  0
    6.8655   -1.8772   -1.0331 C   0  0  0  0  0  0  0  0  0  0  0  0
    7.6211   -3.0491   -1.6520 C   0  0  0  0  0  0  0  0  0  0  0  0
    8.6623   -3.5826   -0.6455 C   0  0  0  0  0  0  0  0  0  0  0  0
    9.5263   -4.7770   -1.1441 C   0  0  0  0  0  0  0  0  0  0  0  0
   10.5000   -5.1962    0.0000 C   0  0  0  0  0  0  0  0  0  0  0  0
   11.2500   -6.4952    0.0000 C   0  0  0  0  0  0  0  0  0  0  0  0
   12.0000   -7.7942    0.0000 C   0  0  0  0  0  0  0  0  0  0  0  0
   13.3227   -8.3261    0.7120 C   0  0  0  0  0  0  0  0  0  0  0  0
   13.4155   -8.2509    1.9268 O   0  0  0  0  0  0  0  0  0  0  0  0
   14.2500   -9.0933    0.0000 O   0  0  0  0  0  0  0  0  0  0  0  0
   15.0000  -10.3923    0.0000 C   0  0  0  0  0  0  0  0  0  0  0  0
   15.7500  -11.6913    0.0000 C   0  0  2  0  0  0  0  0  0  0  0  0
   14.7841  -13.0751   -0.2668 C   0  0  0  0  0  0  0  0  0  0  0  0
   13.5276  -13.4681    0.3742 O   0  0  0  0  0  0  0  0  0  0  0  0
   12.9449  -14.7767    0.1945 C   0  0  0  0  0  0  0  0  0  0  0  0
   13.5237  -15.5341   -0.5710 O   0  0  0  0  0  0  0  0  0  0  0  0
   11.6692  -15.4641    0.9535 C   0  0  0  0  0  0  0  0  0  0  0  0
   10.5538  -16.1913    0.0000 C   0  0  0  0  0  0  0  0  0  0  0  0
    9.2548  -16.9413    0.0000 C   0  0  0  0  0  0  0  0  0  0  0  0
    7.9558  -17.6913    0.0000 C   0  0  0  0  0  0  0  0  0  0  0  0
    6.6567  -18.4413    0.0000 C   0  0  0  0  0  0  0  0  0  0  0  0
    5.3577  -19.1913    0.0000 C   0  0  0  0  0  0  0  0  0  0  0  0
    4.0587  -19.9413    0.0000 C   0  0  0  0  0  0  0  0  0  0  0  0
    2.4585  -20.3123   -0.3781 C   0  0  0  0  0  0  0  0  0  0  0  0
    1.8096  -21.8810   -0.1732 C   0  0  0  0  0  0  0  0  0  0  0  0
    0.1615  -22.1913   -0.0000 C   0  0  0  0  0  0  0  0  0  0  0  0
   -1.1375  -22.9413    0.0000 C   0  0  0  0  0  0  0  0  0  0  0  0
   -2.4365  -23.6913    0.0000 C   0  0  0  0  0  0  0  0  0  0  0  0
   -3.7356  -24.4413    0.0000 C   0  0  0  0  0  0  0  0  0  0  0  0
   17.1757  -12.0389   -0.3149 O   0  0  0  0  0  0  0  0  0  0  0  0
   17.7709  -13.3211   -0.7320 C   0  0  0  0  0  0  0  0  0  0  0  0
   17.1122  -14.0001   -1.5037 O   0  0  0  0  0  0  0  0  0  0  0  0
   19.2904  -13.9786   -0.4838 C   0  0  0  0  0  0  0  0  0  0  0  0
   19.5000  -15.5885    0.0000 C   0  0  0  0  0  0  0  0  0  0  0  0
   20.2500  -16.8875    0.0000 C   0  0  0  0  0  2  0  0  0  0  0  0
   21.0000  -18.1865    0.0000 C   0  0  0  0  0  0  0  0  0  0  0  0
   21.7500  -19.4856    0.0000 C   0  0  0  0  0  0  0  0  0  0  0  0
   22.5000  -20.7846    0.0000 C   0  0  0  0  0  2  0  0  0  0  0  0
   23.2500  -22.0836    0.0000 C   0  0  0  0  0  0  0  0  0  0  0  0
   23.8733  -23.4960   -0.0000 C   0  0  0  0  0  0  0  0  0  0  0  0
   23.2500  -24.6817    0.0000 C   0  0  0  0  0  0  0  0  0  0  0  0
   21.7500  -24.6817    0.0000 C   0  0  0  0  0  2  0  0  0  0  0  0
   20.2500  -24.6817    0.0000 C   0  0  0  0  0  2  0  0  0  0  0  0
   18.7500  -24.6817    0.0000 C   0  0  0  0  0  2  0  0  0  0  0  0
   17.2500  -24.6817    0.0000 C   0  0  0  0  0  2  0  0  0  0  0  0
   15.7500  -24.6817    0.0000 C   0  0  0  0  0  2  0  0  0  0  0  0
   14.2500  -24.6817    0.0000 C   0  0  0  0  0  2  0  0  0  0  0  0
   12.7500  -24.6817    0.0000 C   0  0  0  0  0  2  0  0  0  0  0  0
   11.2500  -24.6817    0.0000 C   0  0  0  0  0  0  0  0  0  0  0  0
   -3.8095   -6.5911   -1.1069 H   0  0  0  0  0  0  0  0  0  0  0  0
   -2.9437   -7.1335    0.4339 H   0  0  0  0  0  0  0  0  0  0  0  0
   -4.2850   -7.4218    0.0000 H   0  0  0  0  0  0  0  0  0  0  0  0
   -2.7671   -5.0484    1.0811 H   0  0  0  0  0  0  0  0  0  0  0  0
   -2.0336   -5.4577   -0.5031 H   0  0  0  0  0  0  0  0  0  0  0  0
   -3.4049   -3.8542   -1.6559 H   0  0  0  0  0  0  0  0  0  0  0  0
   -4.2344   -3.3752   -0.1110 H   0  0  0  0  0  0  0  0  0  0  0  0
   -1.1359   -3.4591   -0.4449 H   0  0  0  0  0  0  0  0  0  0  0  0
   -2.0474   -2.8425    0.9644 H   0  0  0  0  0  0  0  0  0  0  0  0
   -2.9128   -0.9960   -0.4640 H   0  0  0  0  0  0  0  0  0  0  0  0
   -1.9106   -1.5662   -1.8495 H   0  0  0  0  0  0  0  0  0  0  0  0
   -1.0917    0.1349    0.4310 H   0  0  0  0  0  0  0  0  0  0  0  0
    1.1850   -0.2108    0.1734 H   0  0  0  0  0  0  0  0  0  0  0  0
    1.7993   -1.5118   -1.9336 H   0  0  0  0  0  0  0  0  0  0  0  0
    0.5068   -2.6821   -1.6016 H   0  0  0  0  0  0  0  0  0  0  0  0
    1.6692   -3.2637    0.6517 H   0  0  0  0  0  0  0  0  0  0  0  0
    3.9603   -3.6334    0.4304 H   0  0  0  0  0  0  0  0  0  0  0  0
    4.8102   -3.4664   -1.9589 H   0  0  0  0  0  0  0  0  0  0  0  0
    3.8639   -1.9860   -2.2195 H   0  0  0  0  0  0  0  0  0  0  0  0
    5.2014   -0.7651   -0.4475 H   0  0  0  0  0  0  0  0  0  0  0  0
    7.4919   -1.0841   -0.6296 H   0  0  0  0  0  0  0  0  0  0  0  0
    6.9435   -3.8639   -1.9705 H   0  0  0  0  0  0  0  0  0  0  0  0
    8.1689   -2.6776   -2.5441 H   0  0  0  0  0  0  0  0  0  0  0  0
    8.1121   -3.9020    0.2677 H   0  0  0  0  0  0  0  0  0  0  0  0
    9.3448   -2.7487   -0.3665 H   0  0  0  0  0  0  0  0  0  0  0  0
    8.8330   -5.6119   -1.3841 H   0  0  0  0  0  0  0  0  0  0  0  0
   10.1020   -4.5110   -2.0560 H   0  0  0  0  0  0  0  0  0  0  0  0
   11.1923   -4.3500    0.2240 H   0  0  0  0  0  0  0  0  0  0  0  0
    9.8606   -5.2937    0.9077 H   0  0  0  0  0  0  0  0  0  0  0  0
   10.3588   -6.9891   -0.4611 H   0  0  0  0  0  0  0  0  0  0  0  0
   11.9448   -6.0936   -0.7757 H   0  0  0  0  0  0  0  0  0  0  0  0
   12.0454   -8.1939   -1.0463 H   0  0  0  0  0  0  0  0  0  0  0  0
   11.2959   -8.4844    0.5319 H   0  0  0  0  0  0  0  0  0  0  0  0
   14.1119  -10.8867    0.4571 H   0  0  0  0  0  0  0  0  0  0  0  0
   14.9539  -10.4880   -1.1053 H   0  0  0  0  0  0  0  0  0  0  0  0
   15.8595  -11.7540    1.1114 H   0  0  0  0  0  0  0  0  0  0  0  0
   15.4421  -13.9025    0.0519 H   0  0  0  0  0  0  0  0  0  0  0  0
   14.6370  -13.1497   -1.3652 H   0  0  0  0  0  0  0  0  0  0  0  0
   11.1831  -14.7088    1.6066 H   0  0  0  0  0  0  0  0  0  0  0  0
   12.0765  -16.2637    1.6073 H   0  0  0  0  0  0  0  0  0  0  0  0
   11.1781  -16.8078   -0.6856 H   0  0  0  0  0  0  0  0  0  0  0  0
   10.3398  -15.2366   -0.5599 H   0  0  0  0  0  0  0  0  0  0  0  0
    9.0099  -16.5929   -1.0472 H   0  0  0  0  0  0  0  0  0  0  0  0
    8.8389  -16.1984    0.7269 H   0  0  0  0  0  0  0  0  0  0  0  0
    8.2916  -18.2093    0.9426 H   0  0  0  0  0  0  0  0  0  0  0  0
    8.3080  -18.4126   -0.7971 H   0  0  0  0  0  0  0  0  0  0  0  0
    6.3179  -17.7509   -0.8271 H   0  0  0  0  0  0  0  0  0  0  0  0
    6.3055  -17.8883    0.9189 H   0  0  0  0  0  0  0  0  0  0  0  0
    5.5553  -19.5613   -1.0466 H   0  0  0  0  0  0  0  0  0  0  0  0
    5.8555  -19.9001    0.7262 H   0  0  0  0  0  0  0  0  0  0  0  0
    4.3997  -20.9917   -0.2279 H   0  0  0  0  0  0  0  0  0  0  0  0
    3.8602  -19.9341    1.1014 H   0  0  0  0  0  0  0  0  0  0  0  0
    2.2875  -20.0662   -1.4470 H   0  0  0  0  0  0  0  0  0  0  0  0
    1.8353  -19.5983    0.2029 H   0  0  0  0  0  0  0  0  0  0  0  0
    2.1788  -22.4617   -1.0441 H   0  0  0  0  0  0  0  0  0  0  0  0
    2.2881  -22.3355    0.7207 H   0  0  0  0  0  0  0  0  0  0  0  0
    0.0919  -21.8108    1.0474 H   0  0  0  0  0  0  0  0  0  0  0  0
   -0.1556  -21.2821   -0.5742 H   0  0  0  0  0  0  0  0  0  0  0  0
   -1.1148  -22.9478   -1.1275 H   0  0  0  0  0  0  0  0  0  0  0  0
   -0.5062  -23.7838    0.4242 H   0  0  0  0  0  0  0  0  0  0  0  0
   -2.3786  -23.7089    1.1295 H   0  0  0  0  0  0  0  0  0  0  0  0
   -2.0372  -24.5960   -0.5619 H   0  0  0  0  0  0  0  0  0  0  0  0
   -4.3449  -23.6807    0.5468 H   0  0  0  0  0  0  0  0  0  0  0  0
   -3.4866  -25.3377    0.6410 H   0  0  0  0  0  0  0  0  0  0  0  0
   -4.6623  -24.9763    0.0000 H   0  0  0  0  0  0  0  0  0  0  0  0
   19.9010  -13.3130    0.1620 H   0  0  0  0  0  0  0  0  0  0  0  0
   19.7511  -13.9479   -1.4940 H   0  0  0  0  0  0  0  0  0  0  0  0
   18.6494  -15.9950   -0.5848 H   0  0  0  0  0  0  0  0  0  0  0  0
   19.1196  -15.5561    1.0419 H   0  0  0  0  0  0  0  0  0  0  0  0
   21.5557  -17.8174    0.8960 H   0  0  0  0  0  0  0  0  0  0  0  0
   21.5556  -17.8175   -0.8960 H   0  0  0  0  0  0  0  0  0  0  0  0
   21.1944  -19.8548    0.8959 H   0  0  0  0  0  0  0  0  0  0  0  0
   21.1943  -19.8548   -0.8959 H   0  0  0  0  0  0  0  0  0  0  0  0
   23.8113  -21.7783    0.9085 H   0  0  0  0  0  0  0  0  0  0  0  0
   23.8113  -21.7783   -0.9085 H   0  0  0  0  0  0  0  0  0  0  0  0
   24.9619  -23.5391   -0.0000 H   0  0  0  0  0  0  0  0  0  0  0  0
   23.8068  -25.6134   -0.0000 H   0  0  0  0  0  0  0  0  0  0  0  0
   11.1697  -23.7716    0.6294 H   0  0  0  0  0  0  0  0  0  0  0  0
   11.1697  -25.5833    0.6415 H   0  0  0  0  0  0  0  0  0  0  0  0
   10.1800  -24.6817    0.0000 H   0  0  0  0  0  0  0  0  0  0  0  0
  1  2  1  0  0  0  0
  1 62  1  0  0  0  0
  1 63  1  0  0  0  0
  1 64  1  0  0  0  0
  2  3  1  0  0  0  0
  2 65  1  0  0  0  0
  2 66  1  0  0  0  0
  3  4  1  0  0  0  0
  3 67  1  0  0  0  0
  3 68  1  0  0  0  0
  4  5  1  0  0  0  0
  4 69  1  0  0  0  0
  4 70  1  0  0  0  0
  5  6  1  0  0  0  0
  5 71  1  0  0  0  0
  5 72  1  0  0  0  0
  6  7  2  0  0  0  0
  6 73  1  0  0  0  0
  7  8  1  0  0  0  0
  7 74  1  0  0  0  0
  8  9  1  0  0  0  0
  8 75  1  0  0  0  0
  8 76  1  0  0  0  0
  9 10  2  0  0  0  0
  9 77  1  0  0  0  0
 10 11  1  0  0  0  0
 10 78  1  0  0  0  0
 11 12  1  0  0  0  0
 11 79  1  0  0  0  0
 11 80  1  0  0  0  0
 12 13  2  0  0  0  0
 12 81  1  0  0  0  0
 13 14  1  0  0  0  0
 13 82  1  0  0  0  0
 14 15  1  0  0  0  0
 14 83  1  0  0  0  0
 14 84  1  0  0  0  0
 15 16  1  0  0  0  0
 15 85  1  0  0  0  0
 15 86  1  0  0  0  0
 16 17  1  0  0  0  0
 16 87  1  0  0  0  0
 16 88  1  0  0  0  0
 17 18  1  0  0  0  0
 17 89  1  0  0  0  0
 17 90  1  0  0  0  0
 18 19  1  0  0  0  0
 18 91  1  0  0  0  0
 18 92  1  0  0  0  0
 19 20  1  0  0  0  0
 19 93  1  0  0  0  0
 19 94  1  0  0  0  0
 20 21  2  0  0  0  0
 20 22  1  0  0  0  0
 22 23  1  0  0  0  0
 23 95  1  0  0  0  0
 23 96  1  0  0  0  0
 24 23  1  0  0  0  0
 24 25  1  0  0  0  0
 24 42  1  0  0  0  0
 24 97  1  6  0  0  0
 25 26  1  0  0  0  0
 25 98  1  0  0  0  0
 25 99  1  0  0  0  0
 26 27  1  0  0  0  0
 27 28  2  0  0  0  0
 27 29  1  0  0  0  0
 29 30  1  0  0  0  0
 29100  1  0  0  0  0
 29101  1  0  0  0  0
 30 31  1  0  0  0  0
 30102  1  0  0  0  0
 30103  1  0  0  0  0
 31 32  1  0  0  0  0
 31104  1  0  0  0  0
 31105  1  0  0  0  0
 32 33  1  0  0  0  0
 32106  1  0  0  0  0
 32107  1  0  0  0  0
 33 34  1  0  0  0  0
 33108  1  0  0  0  0
 33109  1  0  0  0  0
 34 35  1  0  0  0  0
 34110  1  0  0  0  0
 34111  1  0  0  0  0
 35 36  1  0  0  0  0
 35112  1  0  0  0  0
 35113  1  0  0  0  0
 36 37  1  0  0  0  0
 36114  1  0  0  0  0
 36115  1  0  0  0  0
 37 38  1  0  0  0  0
 37116  1  0  0  0  0
 37117  1  0  0  0  0
 38 39  1  0  0  0  0
 38118  1  0  0  0  0
 38119  1  0  0  0  0
 39 40  1  0  0  0  0
 39120  1  0  0  0  0
 39121  1  0  0  0  0
 40 41  1  0  0  0  0
 40122  1  0  0  0  0
 40123  1  0  0  0  0
 41124  1  0  0  0  0
 41125  1  0  0  0  0
 41126  1  0  0  0  0
 42 43  1  0  0  0  0
 43 44  2  0  0  0  0
 43 45  1  0  0  0  0
 45 46  1  0  0  0  0
 45127  1  0  0  0  0
 45128  1  0  0  0  0
 46 47  1  0  0  0  0
 46129  1  0  0  0  0
 46130  1  0  0  0  0
 47 48  1  0  0  0  0
 48 49  1  0  0  0  0
 48131  1  0  0  0  0
 48132  1  0  0  0  0
 49 50  1  0  0  0  0
 49133  1  0  0  0  0
 49134  1  0  0  0  0
 50 51  1  0  0  0  0
 51 52  1  0  0  0  0
 51135  1  0  0  0  0
 51136  1  0  0  0  0
 52 53  2  0  0  0  0
 52137  1  0  0  0  0
 53 54  1  0  0  0  0
 53138  1  0  0  0  0
 54 55  1  0  0  0  0
 55 56  1  0  0  0  0
 56 57  1  0  0  0  0
 57 58  1  0  0  0  0
 58 59  1  0  0  0  0
 59 60  1  0  0  0  0
 60 61  1  0  0  0  0
 61139  1  0  0  0  0
 61140  1  0  0  0  0
 61141  1  0  0  0  0
M  END
>  <IDENTIFIER>
CNP0504055.1

>  <Energy>
9942.03

$$$$
