
 OpenBabel09062520332D

151150  0  0  0  0  0  0  0  0999 V2000
   -3.7500   -6.4952    0.0000 C   0  0  0  0  0  0  0  0  0  0  0  0
   -3.0000   -5.1962    0.0000 C   0  0  0  0  0  0  0  0  0  0  0  0
   -3.1437   -3.6541    0.0775 C   0  0  0  0  0  0  0  0  0  0  0  0
   -1.6729   -3.0370    0.0703 C   0  0  0  0  0  0  0  0  0  0  0  0
   -1.5708   -1.5040    0.1199 C   0  0  0  0  0  0  0  0  0  0  0  0
   -0.1963   -0.7691    0.1246 C   0  0  0  0  0  0  0  0  0  0  0  0
    1.1250   -1.1632    0.1024 C   0  0  0  0  0  0  0  0  0  0  0  0
    1.6622   -2.5722    0.0625 C   0  0  0  0  0  0  0  0  0  0  0  0
    3.1852   -2.9074    0.0334 C   0  0  0  0  0  0  0  0  0  0  0  0
    4.3780   -2.2175    0.0471 C   0  0  0  0  0  0  0  0  0  0  0  0
    4.5859   -0.7308    0.1077 C   0  0  0  0  0  0  0  0  0  0  0  0
    6.0123   -0.1238    0.0610 C   0  0  0  0  0  0  0  0  0  0  0  0
    7.3333   -0.5239    0.0136 C   0  0  0  0  0  0  0  0  0  0  0  0
    8.0668   -1.8875    0.0091 C   0  0  0  0  0  0  0  0  0  0  0  0
    9.2095   -2.7318    0.6718 C   0  0  0  0  0  0  0  0  0  0  0  0
   10.5807   -2.4576    0.7348 C   0  0  0  0  0  0  0  0  0  0  0  0
   11.2500   -1.2990    0.0000 C   0  0  0  0  0  0  0  0  0  0  0  0
   12.0000   -0.0000   -0.0000 C   0  0  0  0  0  2  0  0  0  0  0  0
   12.7500    1.2990    0.0000 C   0  0  0  0  0  0  0  0  0  0  0  0
   12.9976    2.9117    0.0095 C   0  0  0  0  0  0  0  0  0  0  0  0
   14.5850    3.3594   -0.0039 C   0  0  0  0  0  0  0  0  0  0  0  0
   15.1176    4.8754    0.0021 C   0  0  0  0  0  0  0  0  0  0  0  0
   14.2992    5.7806    0.0148 O   0  0  0  0  0  0  0  0  0  0  0  0
   16.5000    5.1962    0.0000 O   0  0  0  0  0  0  0  0  0  0  0  0
   17.2500    6.4952    0.0000 C   0  0  0  0  0  0  0  0  0  0  0  0
   18.0000    7.7942    0.0000 C   0  0  2  0  0  0  0  0  0  0  0  0
   16.9848    8.9836   -0.6336 C   0  0  0  0  0  0  0  0  0  0  0  0
   16.0679    9.7850    0.1920 O   0  0  0  0  0  0  0  0  0  0  0  0
   15.2573   10.8925   -0.2620 C   0  0  0  0  0  0  0  0  0  0  0  0
   15.3895   11.2168   -1.4299 O   0  0  0  0  0  0  0  0  0  0  0  0
   14.2795   11.8860    0.6139 C   0  0  0  0  0  0  0  0  0  0  0  0
   12.8038   12.2942    0.0000 C   0  0  0  0  0  0  0  0  0  0  0  0
   11.5048   13.0442    0.0000 C   0  0  0  0  0  0  0  0  0  0  0  0
   10.2058   13.7942    0.0000 C   0  0  0  0  0  0  0  0  0  0  0  0
    8.5437   13.9146    0.2075 C   0  0  0  0  0  0  0  0  0  0  0  0
    7.7376   15.3794   -0.0864 C   0  0  0  0  0  2  0  0  0  0  0  0
    6.5780   16.6266    0.0633 C   0  0  0  0  0  0  0  0  0  0  0  0
    4.9065   16.7574   -0.0350 C   0  0  0  0  0  0  0  0  0  0  0  0
    4.0872   18.2497   -0.0450 C   0  0  0  0  0  0  0  0  0  0  0  0
    2.4115   18.2942   -0.0000 C   0  0  0  0  0  0  0  0  0  0  0  0
    1.1125   19.0442    0.0000 C   0  0  0  0  0  0  0  0  0  0  0  0
   -0.1865   19.7942    0.0000 C   0  0  0  0  0  0  0  0  0  0  0  0
   -1.4856   20.5442    0.0000 C   0  0  0  0  0  0  0  0  0  0  0  0
   -2.7846   21.2942    0.0000 C   0  0  0  0  0  0  0  0  0  0  0  0
   -4.0836   22.0442    0.0000 C   0  0  0  0  0  0  0  0  0  0  0  0
   19.1112    8.5362    0.6397 O   0  0  0  0  0  0  0  0  0  0  0  0
   20.2500    9.0933    0.0000 C   0  0  0  0  0  0  0  0  0  0  0  0
   20.6858    8.3710   -0.8869 O   0  0  0  0  0  0  0  0  0  0  0  0
   21.0000   10.3923    0.0000 C   0  0  0  0  0  0  0  0  0  0  0  0
   21.7500   11.6913    0.0000 C   0  0  0  0  0  0  0  0  0  0  0  0
   22.0682   13.3407   -0.0177 C   0  0  0  0  0  0  0  0  0  0  0  0
   23.6588   13.9427    0.0063 C   0  0  0  0  0  0  0  0  0  0  0  0
   24.0000   15.5885    0.0000 C   0  0  0  0  0  0  0  0  0  0  0  0
   24.7500   16.8875    0.0000 C   0  0  0  0  0  2  0  0  0  0  0  0
   25.5000   18.1865    0.0000 C   0  0  0  0  0  0  0  0  0  0  0  0
   26.2500   19.4856    0.0000 C   0  0  0  0  0  0  0  0  0  0  0  0
   27.0000   20.7846    0.0000 C   0  0  0  0  0  2  0  0  0  0  0  0
   27.7500   22.0836    0.0000 C   0  0  0  0  0  0  0  0  0  0  0  0
   27.7710   23.8053   -0.0588 C   0  0  0  0  0  0  0  0  0  0  0  0
   29.2500   24.6817    0.0000 C   0  0  0  0  0  0  0  0  0  0  0  0
   30.0000   25.9808    0.0000 C   0  0  0  0  0  0  0  0  0  0  0  0
   -4.3157   -6.2957   -0.9370 H   0  0  0  0  0  0  0  0  0  0  0  0
   -2.8852   -7.1831   -0.1686 H   0  0  0  0  0  0  0  0  0  0  0  0
   -4.2850   -7.4218    0.0000 H   0  0  0  0  0  0  0  0  0  0  0  0
   -2.3287   -5.3806    0.8716 H   0  0  0  0  0  0  0  0  0  0  0  0
   -2.3736   -5.2909   -0.9239 H   0  0  0  0  0  0  0  0  0  0  0  0
   -3.7237   -3.2845   -0.7978 H   0  0  0  0  0  0  0  0  0  0  0  0
   -3.6695   -3.3676    1.0123 H   0  0  0  0  0  0  0  0  0  0  0  0
   -1.1448   -3.3708   -0.8617 H   0  0  0  0  0  0  0  0  0  0  0  0
   -1.1098   -3.4350    0.9453 H   0  0  0  0  0  0  0  0  0  0  0  0
   -2.1121   -1.1731    1.0332 H   0  0  0  0  0  0  0  0  0  0  0  0
   -2.1355   -1.1136   -0.7568 H   0  0  0  0  0  0  0  0  0  0  0  0
   -0.3300    0.3076    0.1536 H   0  0  0  0  0  0  0  0  0  0  0  0
    1.8559   -0.3609    0.1151 H   0  0  0  0  0  0  0  0  0  0  0  0
    1.2496   -3.0914    0.9537 H   0  0  0  0  0  0  0  0  0  0  0  0
    1.2286   -3.0419   -0.8473 H   0  0  0  0  0  0  0  0  0  0  0  0
    3.3300   -3.9829   -0.0122 H   0  0  0  0  0  0  0  0  0  0  0  0
    5.2850   -2.8113    0.0053 H   0  0  0  0  0  0  0  0  0  0  0  0
    4.1046   -0.3574    1.0352 H   0  0  0  0  0  0  0  0  0  0  0  0
    4.0484   -0.2989   -0.7632 H   0  0  0  0  0  0  0  0  0  0  0  0
    5.9215    0.9615    0.0549 H   0  0  0  0  0  0  0  0  0  0  0  0
    8.0107    0.3416   -0.0632 H   0  0  0  0  0  0  0  0  0  0  0  0
    8.3852   -1.3753    0.9416 H   0  0  0  0  0  0  0  0  0  0  0  0
    8.5118   -1.8036   -1.0087 H   0  0  0  0  0  0  0  0  0  0  0  0
    8.8788   -3.6645    1.1211 H   0  0  0  0  0  0  0  0  0  0  0  0
   11.2267   -3.1842    1.2172 H   0  0  0  0  0  0  0  0  0  0  0  0
   11.3384   -1.6536   -1.0481 H   0  0  0  0  0  0  0  0  0  0  0  0
   10.3371   -0.6851   -0.0797 H   0  0  0  0  0  0  0  0  0  0  0  0
   13.3619    1.0684   -0.8972 H   0  0  0  0  0  0  0  0  0  0  0  0
   13.3815    1.0558    0.8801 H   0  0  0  0  0  0  0  0  0  0  0  0
   12.4996    3.3512   -0.8804 H   0  0  0  0  0  0  0  0  0  0  0  0
   12.5206    3.3360    0.9182 H   0  0  0  0  0  0  0  0  0  0  0  0
   15.0481    2.8771    0.8824 H   0  0  0  0  0  0  0  0  0  0  0  0
   15.0306    2.8907   -0.9061 H   0  0  0  0  0  0  0  0  0  0  0  0
   17.3337    6.4972   -1.1087 H   0  0  0  0  0  0  0  0  0  0  0  0
   18.1949    5.9937    0.3309 H   0  0  0  0  0  0  0  0  0  0  0  0
   17.4721    7.8258    0.9855 H   0  0  0  0  0  0  0  0  0  0  0  0
   17.6505    9.6911   -1.1740 H   0  0  0  0  0  0  0  0  0  0  0  0
   16.3654    8.5236   -1.4414 H   0  0  0  0  0  0  0  0  0  0  0  0
   14.1786   11.4834    1.6476 H   0  0  0  0  0  0  0  0  0  0  0  0
   14.8307   12.8533    0.7052 H   0  0  0  0  0  0  0  0  0  0  0  0
   13.1603   12.5936   -1.0137 H   0  0  0  0  0  0  0  0  0  0  0  0
   12.4755   11.2195   -0.0646 H   0  0  0  0  0  0  0  0  0  0  0  0
   11.2666   12.6326    1.0112 H   0  0  0  0  0  0  0  0  0  0  0  0
   11.0577   12.4072   -0.8144 H   0  0  0  0  0  0  0  0  0  0  0  0
   10.4840   14.6035    0.7159 H   0  0  0  0  0  0  0  0  0  0  0  0
   10.2705   14.3079   -0.9917 H   0  0  0  0  0  0  0  0  0  0  0  0
    8.0573   13.1493   -0.4319 H   0  0  0  0  0  0  0  0  0  0  0  0
    8.3365   13.6334    1.2612 H   0  0  0  0  0  0  0  0  0  0  0  0
    6.8277   17.1099    1.0304 H   0  0  0  0  0  0  0  0  0  0  0  0
    6.9194   17.3377   -0.7174 H   0  0  0  0  0  0  0  0  0  0  0  0
    4.5980   16.2364   -0.9654 H   0  0  0  0  0  0  0  0  0  0  0  0
    4.5057   16.1705    0.8174 H   0  0  0  0  0  0  0  0  0  0  0  0
    4.4479   18.8375    0.8248 H   0  0  0  0  0  0  0  0  0  0  0  0
    4.4126   18.7833   -0.9631 H   0  0  0  0  0  0  0  0  0  0  0  0
    2.2704   17.5103   -0.7960 H   0  0  0  0  0  0  0  0  0  0  0  0
    2.3205   17.7566    0.9756 H   0  0  0  0  0  0  0  0  0  0  0  0
    0.4998   18.0979    0.0679 H   0  0  0  0  0  0  0  0  0  0  0  0
    1.2578   19.2747   -1.0916 H   0  0  0  0  0  0  0  0  0  0  0  0
   -0.2151   19.7011    1.1282 H   0  0  0  0  0  0  0  0  0  0  0  0
    0.3697   20.7744   -0.0879 H   0  0  0  0  0  0  0  0  0  0  0  0
   -1.9624   19.5227    0.1810 H   0  0  0  0  0  0  0  0  0  0  0  0
   -1.3769   20.7085   -1.1106 H   0  0  0  0  0  0  0  0  0  0  0  0
   -3.3403   20.5817   -0.6914 H   0  0  0  0  0  0  0  0  0  0  0  0
   -2.8222   21.1196    1.1156 H   0  0  0  0  0  0  0  0  0  0  0  0
   -3.7497   22.9033    0.6306 H   0  0  0  0  0  0  0  0  0  0  0  0
   -4.7582   21.3330    0.5609 H   0  0  0  0  0  0  0  0  0  0  0  0
   -5.0102   22.5792    0.0000 H   0  0  0  0  0  0  0  0  0  0  0  0
   20.3727   10.7414    0.8529 H   0  0  0  0  0  0  0  0  0  0  0  0
   20.4799   10.6971   -0.9436 H   0  0  0  0  0  0  0  0  0  0  0  0
   22.3653   11.4847    0.9078 H   0  0  0  0  0  0  0  0  0  0  0  0
   22.4321   11.4558   -0.8526 H   0  0  0  0  0  0  0  0  0  0  0  0
   21.5838   13.7527   -0.9277 H   0  0  0  0  0  0  0  0  0  0  0  0
   21.5457   13.7773    0.8594 H   0  0  0  0  0  0  0  0  0  0  0  0
   24.1744   13.5081   -0.8758 H   0  0  0  0  0  0  0  0  0  0  0  0
   24.1456   13.5210    0.9106 H   0  0  0  0  0  0  0  0  0  0  0  0
   23.3667   15.8400    0.8762 H   0  0  0  0  0  0  0  0  0  0  0  0
   23.3873   15.8288   -0.8938 H   0  0  0  0  0  0  0  0  0  0  0  0
   26.0556   17.8175   -0.8960 H   0  0  0  0  0  0  0  0  0  0  0  0
   26.0557   17.8174    0.8959 H   0  0  0  0  0  0  0  0  0  0  0  0
   25.6944   19.8547    0.8960 H   0  0  0  0  0  0  0  0  0  0  0  0
   25.6943   19.8547   -0.8959 H   0  0  0  0  0  0  0  0  0  0  0  0
   28.4548   21.8675   -0.8294 H   0  0  0  0  0  0  0  0  0  0  0  0
   28.3450   21.9296    0.9239 H   0  0  0  0  0  0  0  0  0  0  0  0
   27.2548   24.1044   -0.9951 H   0  0  0  0  0  0  0  0  0  0  0  0
   27.1502   24.1624    0.7894 H   0  0  0  0  0  0  0  0  0  0  0  0
   29.6484   24.1880    0.9215 H   0  0  0  0  0  0  0  0  0  0  0  0
   29.7451   24.1822   -0.8636 H   0  0  0  0  0  0  0  0  0  0  0  0
   31.0289   25.5764    0.1654 H   0  0  0  0  0  0  0  0  0  0  0  0
   29.5450   26.3699    0.9377 H   0  0  0  0  0  0  0  0  0  0  0  0
   30.5350   26.9075    0.0000 H   0  0  0  0  0  0  0  0  0  0  0  0
  1  2  1  0  0  0  0
  1 62  1  0  0  0  0
  1 63  1  0  0  0  0
  1 64  1  0  0  0  0
  2  3  1  0  0  0  0
  2 65  1  0  0  0  0
  2 66  1  0  0  0  0
  3  4  1  0  0  0  0
  3 67  1  0  0  0  0
  3 68  1  0  0  0  0
  4  5  1  0  0  0  0
  4 69  1  0  0  0  0
  4 70  1  0  0  0  0
  5  6  1  0  0  0  0
  5 71  1  0  0  0  0
  5 72  1  0  0  0  0
  6  7  2  0  0  0  0
  6 73  1  0  0  0  0
  7  8  1  0  0  0  0
  7 74  1  0  0  0  0
  8  9  1  0  0  0  0
  8 75  1  0  0  0  0
  8 76  1  0  0  0  0
  9 10  2  3  0  0  0
  9 77  1  0  0  0  0
 10 11  1  0  0  0  0
 10 78  1  0  0  0  0
 11 12  1  0  0  0  0
 11 79  1  0  0  0  0
 11 80  1  0  0  0  0
 12 13  2  0  0  0  0
 12 81  1  0  0  0  0
 13 14  1  0  0  0  0
 13 82  1  0  0  0  0
 14 15  1  0  0  0  0
 14 83  1  0  0  0  0
 14 84  1  0  0  0  0
 15 16  2  3  0  0  0
 15 85  1  0  0  0  0
 16 17  1  0  0  0  0
 16 86  1  0  0  0  0
 17 18  1  0  0  0  0
 17 87  1  0  0  0  0
 17 88  1  0  0  0  0
 18 19  1  0  0  0  0
 19 20  1  0  0  0  0
 19 89  1  0  0  0  0
 19 90  1  0  0  0  0
 20 21  1  0  0  0  0
 20 91  1  0  0  0  0
 20 92  1  0  0  0  0
 21 22  1  0  0  0  0
 21 93  1  0  0  0  0
 21 94  1  0  0  0  0
 22 23  2  0  0  0  0
 22 24  1  0  0  0  0
 24 25  1  0  0  0  0
 25 95  1  0  0  0  0
 25 96  1  0  0  0  0
 26 25  1  0  0  0  0
 26 27  1  0  0  0  0
 26 46  1  0  0  0  0
 26 97  1  1  0  0  0
 27 28  1  0  0  0  0
 27 98  1  0  0  0  0
 27 99  1  0  0  0  0
 28 29  1  0  0  0  0
 29 30  2  0  0  0  0
 29 31  1  0  0  0  0
 31 32  1  0  0  0  0
 31100  1  0  0  0  0
 31101  1  0  0  0  0
 32 33  1  0  0  0  0
 32102  1  0  0  0  0
 32103  1  0  0  0  0
 33 34  1  0  0  0  0
 33104  1  0  0  0  0
 33105  1  0  0  0  0
 34 35  1  0  0  0  0
 34106  1  0  0  0  0
 34107  1  0  0  0  0
 35 36  1  0  0  0  0
 35108  1  0  0  0  0
 35109  1  0  0  0  0
 36 37  1  0  0  0  0
 37 38  1  0  0  0  0
 37110  1  0  0  0  0
 37111  1  0  0  0  0
 38 39  1  0  0  0  0
 38112  1  0  0  0  0
 38113  1  0  0  0  0
 39 40  1  0  0  0  0
 39114  1  0  0  0  0
 39115  1  0  0  0  0
 40 41  1  0  0  0  0
 40116  1  0  0  0  0
 40117  1  0  0  0  0
 41 42  1  0  0  0  0
 41118  1  0  0  0  0
 41119  1  0  0  0  0
 42 43  1  0  0  0  0
 42120  1  0  0  0  0
 42121  1  0  0  0  0
 43 44  1  0  0  0  0
 43122  1  0  0  0  0
 43123  1  0  0  0  0
 44 45  1  0  0  0  0
 44124  1  0  0  0  0
 44125  1  0  0  0  0
 45126  1  0  0  0  0
 45127  1  0  0  0  0
 45128  1  0  0  0  0
 46 47  1  0  0  0  0
 47 48  2  0  0  0  0
 47 49  1  0  0  0  0
 49 50  1  0  0  0  0
 49129  1  0  0  0  0
 49130  1  0  0  0  0
 50 51  1  0  0  0  0
 50131  1  0  0  0  0
 50132  1  0  0  0  0
 51 52  1  0  0  0  0
 51133  1  0  0  0  0
 51134  1  0  0  0  0
 52 53  1  0  0  0  0
 52135  1  0  0  0  0
 52136  1  0  0  0  0
 53 54  1  0  0  0  0
 53137  1  0  0  0  0
 53138  1  0  0  0  0
 54 55  1  0  0  0  0
 55 56  1  0  0  0  0
 55139  1  0  0  0  0
 55140  1  0  0  0  0
 56 57  1  0  0  0  0
 56141  1  0  0  0  0
 56142  1  0  0  0  0
 57 58  1  0  0  0  0
 58 59  1  0  0  0  0
 58143  1  0  0  0  0
 58144  1  0  0  0  0
 59 60  1  0  0  0  0
 59145  1  0  0  0  0
 59146  1  0  0  0  0
 60 61  1  0  0  0  0
 60147  1  0  0  0  0
 60148  1  0  0  0  0
 61149  1  0  0  0  0
 61150  1  0  0  0  0
 61151  1  0  0  0  0
M  END
>  <IDENTIFIER>
CNP0565446.1

>  <Energy>
10262.2

$$$$
