
 OpenBabel09102507543D

 39 40  0  0  0  0  0  0  0  0999 V2000
    6.1392   -0.4473   -1.7618 C   0  0  0  0  0  0  0  0  0  0  0  0
    5.3201   -0.2410   -0.5215 C   0  0  0  0  0  0  0  0  0  0  0  0
    5.8976   -0.1852    0.5510 O   0  0  0  0  0  0  0  0  0  0  0  0
    3.9607   -0.1235   -0.6215 N   0  0  0  0  0  0  0  0  0  0  0  0
    3.0125    0.0728    0.4442 C   0  0  0  0  0  0  0  0  0  0  0  0
    3.3636    0.1842    1.8127 C   0  0  0  0  0  0  0  0  0  0  0  0
    2.3801    0.3718    2.7879 C   0  0  0  0  0  0  0  0  0  0  0  0
    1.0370    0.4508    2.4296 C   0  0  0  0  0  0  0  0  0  0  0  0
    0.6645    0.3430    1.0891 C   0  0  0  0  0  0  0  0  0  0  0  0
   -0.7060    0.4243    0.7352 N   0  0  0  0  0  0  0  0  0  0  0  0
   -1.5015   -0.6838    0.6978 C   0  0  0  0  0  0  0  0  0  0  0  0
   -1.0193   -1.7812    0.9451 O   0  0  0  0  0  0  0  0  0  0  0  0
   -2.9980   -0.6148    0.3668 C   0  0  1  0  0  0  0  0  0  0  0  0
   -3.7055    0.3050    1.3716 C   0  0  0  0  0  0  0  0  0  0  0  0
   -3.6414    1.5900    0.6226 C   0  0  0  0  0  0  0  0  0  0  0  0
   -3.9769    2.6678    1.0857 O   0  0  0  0  0  0  0  0  0  0  0  0
   -3.3462    1.4211   -0.6841 O   0  0  0  0  0  0  0  0  0  0  0  0
   -3.3028    0.0758   -0.9961 C   0  0  0  0  0  0  0  0  0  0  0  0
   -4.6971   -0.3454   -1.5133 C   0  0  0  0  0  0  0  0  0  0  0  0
   -2.2686   -0.2162   -2.1002 C   0  0  0  0  0  0  0  0  0  0  0  0
    1.6450    0.1576    0.1046 C   0  0  0  0  0  0  0  0  0  0  0  0
    7.2198   -0.5242   -1.5126 H   0  0  0  0  0  0  0  0  0  0  0  0
    5.9938    0.4090   -2.4531 H   0  0  0  0  0  0  0  0  0  0  0  0
    5.8236   -1.3843   -2.2664 H   0  0  0  0  0  0  0  0  0  0  0  0
    3.5712   -0.1859   -1.5756 H   0  0  0  0  0  0  0  0  0  0  0  0
    4.3743    0.1332    2.1718 H   0  0  0  0  0  0  0  0  0  0  0  0
    2.6624    0.4555    3.8296 H   0  0  0  0  0  0  0  0  0  0  0  0
    0.2837    0.5953    3.1940 H   0  0  0  0  0  0  0  0  0  0  0  0
   -1.0845    1.3565    0.5263 H   0  0  0  0  0  0  0  0  0  0  0  0
   -3.3717   -1.6628    0.4181 H   0  0  0  0  0  0  0  0  0  0  0  0
   -3.2021    0.3053    2.3632 H   0  0  0  0  0  0  0  0  0  0  0  0
   -4.7813    0.0556    1.4938 H   0  0  0  0  0  0  0  0  0  0  0  0
   -4.9450    0.2050   -2.4463 H   0  0  0  0  0  0  0  0  0  0  0  0
   -5.4923   -0.1232   -0.7712 H   0  0  0  0  0  0  0  0  0  0  0  0
   -4.7179   -1.4353   -1.7290 H   0  0  0  0  0  0  0  0  0  0  0  0
   -2.5447    0.3185   -3.0342 H   0  0  0  0  0  0  0  0  0  0  0  0
   -2.2265   -1.3063   -2.3109 H   0  0  0  0  0  0  0  0  0  0  0  0
   -1.2554    0.1309   -1.8150 H   0  0  0  0  0  0  0  0  0  0  0  0
    1.3377    0.0767   -0.9313 H   0  0  0  0  0  0  0  0  0  0  0  0
  1  2  1  0  0  0  0
  1 22  1  0  0  0  0
  1 23  1  0  0  0  0
  1 24  1  0  0  0  0
  2  3  2  0  0  0  0
  2  4  1  0  0  0  0
  4  5  1  0  0  0  0
  4 25  1  0  0  0  0
  5  6  2  0  0  0  0
  6  7  1  0  0  0  0
  6 26  1  0  0  0  0
  7  8  2  0  0  0  0
  7 27  1  0  0  0  0
  8  9  1  0  0  0  0
  8 28  1  0  0  0  0
  9 10  1  0  0  0  0
  9 21  2  0  0  0  0
 10 11  1  0  0  0  0
 10 29  1  0  0  0  0
 11 12  2  0  0  0  0
 13 11  1  0  0  0  0
 13 14  1  0  0  0  0
 13 30  1  1  0  0  0
 14 15  1  0  0  0  0
 14 31  1  0  0  0  0
 14 32  1  0  0  0  0
 15 16  2  0  0  0  0
 15 17  1  0  0  0  0
 17 18  1  0  0  0  0
 18 19  1  0  0  0  0
 18 20  1  0  0  0  0
 18 13  1  0  0  0  0
 19 33  1  0  0  0  0
 19 34  1  0  0  0  0
 19 35  1  0  0  0  0
 20 36  1  0  0  0  0
 20 37  1  0  0  0  0
 20 38  1  0  0  0  0
 21  5  1  0  0  0  0
 21 39  1  0  0  0  0
M  END
>  <IDENTIFIER>
CNP0357816.0

>  <Energy>
474.933

$$$$
