
 OpenBabel09122514342D

153152  0  0  0  0  0  0  0  0999 V2000
   27.2798   15.7500    0.0000 C   0  0  0  0  0  0  0  0  0  0  0  0
   25.9808   15.0000    0.0000 C   0  0  0  0  0  0  0  0  0  0  0  0
   24.3298   14.6887   -0.0141 C   0  0  0  0  0  0  0  0  0  0  0  0
   23.7284   13.0968    0.0021 C   0  0  0  0  0  0  0  0  0  0  0  0
   22.0836   12.7500    0.0000 C   0  0  0  0  0  0  0  0  0  0  0  0
   20.7846   12.0000    0.0000 C   0  0  0  0  0  2  0  0  0  0  0  0
   19.4856   11.2500    0.0000 C   0  0  0  0  0  0  0  0  0  0  0  0
   18.1865   10.5000    0.0000 C   0  0  0  0  0  0  0  0  0  0  0  0
   16.8875    9.7500    0.0000 C   0  0  0  0  0  2  0  0  0  0  0  0
   15.5885    9.0000    0.0000 C   0  0  0  0  0  0  0  0  0  0  0  0
   13.9544    8.6357   -0.1501 C   0  0  0  0  0  0  0  0  0  0  0  0
   13.3289    7.0854    0.1665 C   0  0  0  0  0  0  0  0  0  0  0  0
   11.6913    6.7500    0.0000 C   0  0  0  0  0  0  0  0  0  0  0  0
   10.3923    6.0000    0.0000 C   0  0  0  0  0  0  0  0  0  0  0  0
    9.0933    5.2500    0.0000 C   0  0  0  0  0  0  0  0  0  0  0  0
    7.7942    4.5000    0.0000 C   0  0  0  0  0  0  0  0  0  0  0  0
    6.4952    3.7500    0.0000 C   0  0  0  0  0  0  0  0  0  0  0  0
    5.1962    3.0000    0.0000 C   0  0  0  0  0  0  0  0  0  0  0  0
    3.5861    2.8977   -0.4292 C   0  0  0  0  0  0  0  0  0  0  0  0
    2.7530    1.4688   -0.0977 C   0  0  0  0  0  0  0  0  0  0  0  0
    1.1560    1.1402   -0.5021 C   0  0  0  0  0  0  0  0  0  0  0  0
    0.4282   -0.2914   -0.1305 C   0  0  0  0  0  0  0  0  0  0  0  0
    1.1239   -1.0888    0.4778 O   0  0  0  0  0  0  0  0  0  0  0  0
   -0.9268   -0.6973   -0.4445 O   0  0  0  0  0  0  0  0  0  0  0  0
   -1.5951   -1.9569   -0.0651 C   0  0  0  0  0  0  0  0  0  0  0  0
   -3.1782   -2.3293   -0.4934 C   0  0  2  0  0  0  0  0  0  0  0  0
   -3.7012   -3.8509    0.0708 C   0  0  0  0  0  0  0  0  0  0  0  0
   -4.9647   -4.5752   -0.2147 O   0  0  0  0  0  0  0  0  0  0  0  0
   -5.1962   -6.0000    0.0000 C   0  0  0  0  0  0  0  0  0  0  0  0
   -4.1839   -6.6702    0.2041 O   0  0  0  0  0  0  0  0  0  0  0  0
   -6.4952   -6.7500    0.0000 C   0  0  0  0  0  0  0  0  0  0  0  0
   -7.7942   -7.5000    0.0000 C   0  0  0  0  0  0  0  0  0  0  0  0
   -9.0933   -8.2500    0.0000 C   0  0  0  0  0  0  0  0  0  0  0  0
  -10.3923   -9.0000    0.0000 C   0  0  0  0  0  0  0  0  0  0  0  0
  -11.6913   -9.7500    0.0000 C   0  0  0  0  0  0  0  0  0  0  0  0
  -13.3394  -10.0666   -0.0733 C   0  0  0  0  0  0  0  0  0  0  0  0
  -13.9455  -11.6507    0.0636 C   0  0  0  0  0  0  0  0  0  0  0  0
  -15.5885  -12.0000    0.0000 C   0  0  0  0  0  0  0  0  0  0  0  0
  -16.8875  -12.7500    0.0000 C   0  0  0  0  0  2  0  0  0  0  0  0
  -18.1865  -13.5000    0.0000 C   0  0  0  0  0  0  0  0  0  0  0  0
  -19.4856  -14.2500    0.0000 C   0  0  0  0  0  0  0  0  0  0  0  0
  -20.7846  -15.0000    0.0000 C   0  0  0  0  0  2  0  0  0  0  0  0
  -22.0836  -15.7500    0.0000 C   0  0  0  0  0  0  0  0  0  0  0  0
  -23.3827  -16.5000    0.0000 C   0  0  0  0  0  0  0  0  0  0  0  0
  -24.6817  -17.2500    0.0000 C   0  0  0  0  0  0  0  0  0  0  0  0
   -3.9358   -1.2049   -0.1112 O   0  0  0  0  0  0  0  0  0  0  0  0
   -5.1789   -0.7224   -0.4670 C   0  0  0  0  0  0  0  0  0  0  0  0
   -6.0546   -1.4672   -0.8761 O   0  0  0  0  0  0  0  0  0  0  0  0
   -5.3918    0.8060   -0.3669 C   0  0  0  0  0  0  0  0  0  0  0  0
   -6.7955    1.5177   -0.5833 C   0  0  0  0  0  0  0  0  0  0  0  0
   -6.6139    3.0809   -0.4214 C   0  0  0  0  0  0  0  0  0  0  0  0
   -7.7747    4.0698    0.0059 C   0  0  0  0  0  0  0  0  0  0  0  0
   -8.6660    5.0068   -0.9394 C   0  0  0  0  0  0  0  0  0  0  0  0
   -9.3481    6.0933    0.0000 C   0  0  0  0  0  0  0  0  0  0  0  0
  -10.0981    7.3923    0.0000 C   0  0  0  0  0  0  0  0  0  0  0  0
  -10.8481    8.6913    0.0000 C   0  0  0  0  0  0  0  0  0  0  0  0
  -11.5981    9.9904    0.0000 C   0  0  0  0  0  0  0  0  0  0  0  0
  -11.3646   10.8698   -1.2451 C   0  0  0  0  0  0  0  0  0  0  0  0
  -12.8971    9.2404    0.0000 C   0  0  0  0  0  0  0  0  0  0  0  0
   27.9865   14.8887    0.1142 H   0  0  0  0  0  0  0  0  0  0  0  0
   27.1032   16.2869    0.9592 H   0  0  0  0  0  0  0  0  0  0  0  0
   28.2064   16.2850    0.0000 H   0  0  0  0  0  0  0  0  0  0  0  0
   26.1886   14.3808   -0.9032 H   0  0  0  0  0  0  0  0  0  0  0  0
   26.1470   14.3574    0.9025 H   0  0  0  0  0  0  0  0  0  0  0  0
   23.8976   15.2022    0.8706 H   0  0  0  0  0  0  0  0  0  0  0  0
   23.9126   15.1832   -0.9166 H   0  0  0  0  0  0  0  0  0  0  0  0
   24.1533   12.6065    0.9032 H   0  0  0  0  0  0  0  0  0  0  0  0
   24.1619   12.5859   -0.8832 H   0  0  0  0  0  0  0  0  0  0  0  0
   21.8407   13.3637   -0.8925 H   0  0  0  0  0  0  0  0  0  0  0  0
   21.8328   13.3812    0.8780 H   0  0  0  0  0  0  0  0  0  0  0  0
   19.8547   10.6943    0.8959 H   0  0  0  0  0  0  0  0  0  0  0  0
   19.8547   10.6944   -0.8960 H   0  0  0  0  0  0  0  0  0  0  0  0
   17.8174   11.0557   -0.8959 H   0  0  0  0  0  0  0  0  0  0  0  0
   17.8174   11.0556    0.8960 H   0  0  0  0  0  0  0  0  0  0  0  0
   15.6945    8.6212    1.0380 H   0  0  0  0  0  0  0  0  0  0  0  0
   15.9479    8.1817   -0.6582 H   0  0  0  0  0  0  0  0  0  0  0  0
   13.6680    8.8874   -1.1928 H   0  0  0  0  0  0  0  0  0  0  0  0
   13.4109    9.3375    0.5169 H   0  0  0  0  0  0  0  0  0  0  0  0
   13.8712    6.3770   -0.4946 H   0  0  0  0  0  0  0  0  0  0  0  0
   13.6046    6.8361    1.2126 H   0  0  0  0  0  0  0  0  0  0  0  0
   11.3649    7.6285    0.6121 H   0  0  0  0  0  0  0  0  0  0  0  0
   11.6207    7.1442   -1.0451 H   0  0  0  0  0  0  0  0  0  0  0  0
   11.0138    5.2201   -0.5497 H   0  0  0  0  0  0  0  0  0  0  0  0
   10.4742    5.8632    1.1131 H   0  0  0  0  0  0  0  0  0  0  0  0
    9.0930    5.2937   -1.1331 H   0  0  0  0  0  0  0  0  0  0  0  0
    9.5581    4.2474    0.2883 H   0  0  0  0  0  0  0  0  0  0  0  0
    7.3264    5.4923   -0.3196 H   0  0  0  0  0  0  0  0  0  0  0  0
    7.7840    4.4793    1.1310 H   0  0  0  0  0  0  0  0  0  0  0  0
    5.8543    4.5543    0.4860 H   0  0  0  0  0  0  0  0  0  0  0  0
    6.4604    3.7996   -1.1204 H   0  0  0  0  0  0  0  0  0  0  0  0
    5.1176    2.6978    1.0743 H   0  0  0  0  0  0  0  0  0  0  0  0
    5.5306    2.0494   -0.4831 H   0  0  0  0  0  0  0  0  0  0  0  0
    3.5294    3.0611   -1.5255 H   0  0  0  0  0  0  0  0  0  0  0  0
    3.0458    3.7322    0.0653 H   0  0  0  0  0  0  0  0  0  0  0  0
    3.3473    0.6592   -0.5705 H   0  0  0  0  0  0  0  0  0  0  0  0
    2.8253    1.3243    1.0008 H   0  0  0  0  0  0  0  0  0  0  0  0
    0.5393    1.9378   -0.0387 H   0  0  0  0  0  0  0  0  0  0  0  0
    1.0820    1.2567   -1.6036 H   0  0  0  0  0  0  0  0  0  0  0  0
   -1.5654   -2.0081    1.0449 H   0  0  0  0  0  0  0  0  0  0  0  0
   -0.9667   -2.7936   -0.4378 H   0  0  0  0  0  0  0  0  0  0  0  0
   -3.1862   -2.3731   -1.6042 H   0  0  0  0  0  0  0  0  0  0  0  0
   -2.8928   -4.5205   -0.2919 H   0  0  0  0  0  0  0  0  0  0  0  0
   -3.5911   -3.8266    1.1752 H   0  0  0  0  0  0  0  0  0  0  0  0
   -6.1077   -7.4168   -0.8131 H   0  0  0  0  0  0  0  0  0  0  0  0
   -6.2160   -6.9768    1.0807 H   0  0  0  0  0  0  0  0  0  0  0  0
   -8.1692   -6.8409    0.8467 H   0  0  0  0  0  0  0  0  0  0  0  0
   -7.3448   -8.4395    0.4676 H   0  0  0  0  0  0  0  0  0  0  0  0
   -9.5314   -7.3008   -0.4656 H   0  0  0  0  0  0  0  0  0  0  0  0
   -8.7383   -8.9027   -0.8534 H   0  0  0  0  0  0  0  0  0  0  0  0
  -10.7450   -8.6693   -1.0332 H   0  0  0  0  0  0  0  0  0  0  0  0
  -10.7983   -8.3213    0.7961 H   0  0  0  0  0  0  0  0  0  0  0  0
  -11.4228  -10.5434   -0.7477 H   0  0  0  0  0  0  0  0  0  0  0  0
  -11.5400  -10.2761    0.9738 H   0  0  0  0  0  0  0  0  0  0  0  0
  -13.8196   -9.4647    0.7268 H   0  0  0  0  0  0  0  0  0  0  0  0
  -13.7004   -9.6699   -1.0453 H   0  0  0  0  0  0  0  0  0  0  0  0
  -13.5730  -12.0517    1.0294 H   0  0  0  0  0  0  0  0  0  0  0  0
  -13.4649  -12.2428   -0.7436 H   0  0  0  0  0  0  0  0  0  0  0  0
  -15.7803  -11.4720   -0.9574 H   0  0  0  0  0  0  0  0  0  0  0  0
  -15.8855  -11.2909    0.8007 H   0  0  0  0  0  0  0  0  0  0  0  0
  -17.8174  -14.0557    0.8960 H   0  0  0  0  0  0  0  0  0  0  0  0
  -17.8174  -14.0556   -0.8960 H   0  0  0  0  0  0  0  0  0  0  0  0
  -19.8547  -13.6944    0.8960 H   0  0  0  0  0  0  0  0  0  0  0  0
  -19.8547  -13.6944   -0.8960 H   0  0  0  0  0  0  0  0  0  0  0  0
  -21.6882  -16.3289    0.8721 H   0  0  0  0  0  0  0  0  0  0  0  0
  -21.7095  -16.2919   -0.9062 H   0  0  0  0  0  0  0  0  0  0  0  0
  -23.6898  -15.9824    0.9488 H   0  0  0  0  0  0  0  0  0  0  0  0
  -23.6887  -15.8576   -0.8789 H   0  0  0  0  0  0  0  0  0  0  0  0
  -25.4357  -16.4147   -0.0672 H   0  0  0  0  0  0  0  0  0  0  0  0
  -24.5241  -17.7830   -0.9673 H   0  0  0  0  0  0  0  0  0  0  0  0
  -25.6083  -17.7850    0.0000 H   0  0  0  0  0  0  0  0  0  0  0  0
   -5.0656    1.0729    0.6615 H   0  0  0  0  0  0  0  0  0  0  0  0
   -4.6683    1.2613   -1.0760 H   0  0  0  0  0  0  0  0  0  0  0  0
   -7.4735    1.1435    0.2137 H   0  0  0  0  0  0  0  0  0  0  0  0
   -7.2418    1.2862   -1.5729 H   0  0  0  0  0  0  0  0  0  0  0  0
   -6.0082    3.5122   -1.2463 H   0  0  0  0  0  0  0  0  0  0  0  0
   -5.9561    3.1268    0.4775 H   0  0  0  0  0  0  0  0  0  0  0  0
   -8.4100    3.5664    0.7664 H   0  0  0  0  0  0  0  0  0  0  0  0
   -7.1804    4.8252    0.5664 H   0  0  0  0  0  0  0  0  0  0  0  0
   -7.9998    5.5307   -1.6574 H   0  0  0  0  0  0  0  0  0  0  0  0
   -9.4197    4.4159   -1.4997 H   0  0  0  0  0  0  0  0  0  0  0  0
   -9.8847    5.4740    0.7602 H   0  0  0  0  0  0  0  0  0  0  0  0
   -8.4701    6.4864    0.5595 H   0  0  0  0  0  0  0  0  0  0  0  0
   -9.5885    7.6263   -0.9744 H   0  0  0  0  0  0  0  0  0  0  0  0
  -11.0401    6.8651   -0.3008 H   0  0  0  0  0  0  0  0  0  0  0  0
   -9.8935    9.2782    0.0919 H   0  0  0  0  0  0  0  0  0  0  0  0
  -11.0437    8.4684    1.0955 H   0  0  0  0  0  0  0  0  0  0  0  0
  -11.4508   10.5930    0.9328 H   0  0  0  0  0  0  0  0  0  0  0  0
  -10.3337   11.2820   -1.2251 H   0  0  0  0  0  0  0  0  0  0  0  0
  -11.4907   10.2903   -2.1849 H   0  0  0  0  0  0  0  0  0  0  0  0
  -12.0814   11.7178   -1.2454 H   0  0  0  0  0  0  0  0  0  0  0  0
  -13.5427   10.1391    0.1136 H   0  0  0  0  0  0  0  0  0  0  0  0
  -12.9436    8.9100   -1.0721 H   0  0  0  0  0  0  0  0  0  0  0  0
  -13.8237    8.7054    0.0000 H   0  0  0  0  0  0  0  0  0  0  0  0
  1  2  1  0  0  0  0
  1 60  1  0  0  0  0
  1 61  1  0  0  0  0
  1 62  1  0  0  0  0
  2  3  1  0  0  0  0
  2 63  1  0  0  0  0
  2 64  1  0  0  0  0
  3  4  1  0  0  0  0
  3 65  1  0  0  0  0
  3 66  1  0  0  0  0
  4  5  1  0  0  0  0
  4 67  1  0  0  0  0
  4 68  1  0  0  0  0
  5  6  1  0  0  0  0
  5 69  1  0  0  0  0
  5 70  1  0  0  0  0
  6  7  1  0  0  0  0
  7  8  1  0  0  0  0
  7 71  1  0  0  0  0
  7 72  1  0  0  0  0
  8  9  1  0  0  0  0
  8 73  1  0  0  0  0
  8 74  1  0  0  0  0
  9 10  1  0  0  0  0
 10 11  1  0  0  0  0
 10 75  1  0  0  0  0
 10 76  1  0  0  0  0
 11 12  1  0  0  0  0
 11 77  1  0  0  0  0
 11 78  1  0  0  0  0
 12 13  1  0  0  0  0
 12 79  1  0  0  0  0
 12 80  1  0  0  0  0
 13 14  1  0  0  0  0
 13 81  1  0  0  0  0
 13 82  1  0  0  0  0
 14 15  1  0  0  0  0
 14 83  1  0  0  0  0
 14 84  1  0  0  0  0
 15 16  1  0  0  0  0
 15 85  1  0  0  0  0
 15 86  1  0  0  0  0
 16 17  1  0  0  0  0
 16 87  1  0  0  0  0
 16 88  1  0  0  0  0
 17 18  1  0  0  0  0
 17 89  1  0  0  0  0
 17 90  1  0  0  0  0
 18 19  1  0  0  0  0
 18 91  1  0  0  0  0
 18 92  1  0  0  0  0
 19 20  1  0  0  0  0
 19 93  1  0  0  0  0
 19 94  1  0  0  0  0
 20 21  1  0  0  0  0
 20 95  1  0  0  0  0
 20 96  1  0  0  0  0
 21 22  1  0  0  0  0
 21 97  1  0  0  0  0
 21 98  1  0  0  0  0
 22 23  2  0  0  0  0
 22 24  1  0  0  0  0
 24 25  1  0  0  0  0
 25 99  1  0  0  0  0
 25100  1  0  0  0  0
 26 25  1  0  0  0  0
 26 27  1  0  0  0  0
 26 46  1  0  0  0  0
 26101  1  1  0  0  0
 27 28  1  0  0  0  0
 27102  1  0  0  0  0
 27103  1  0  0  0  0
 28 29  1  0  0  0  0
 29 30  2  0  0  0  0
 29 31  1  0  0  0  0
 31 32  1  0  0  0  0
 31104  1  0  0  0  0
 31105  1  0  0  0  0
 32 33  1  0  0  0  0
 32106  1  0  0  0  0
 32107  1  0  0  0  0
 33 34  1  0  0  0  0
 33108  1  0  0  0  0
 33109  1  0  0  0  0
 34 35  1  0  0  0  0
 34110  1  0  0  0  0
 34111  1  0  0  0  0
 35 36  1  0  0  0  0
 35112  1  0  0  0  0
 35113  1  0  0  0  0
 36 37  1  0  0  0  0
 36114  1  0  0  0  0
 36115  1  0  0  0  0
 37 38  1  0  0  0  0
 37116  1  0  0  0  0
 37117  1  0  0  0  0
 38 39  1  0  0  0  0
 38118  1  0  0  0  0
 38119  1  0  0  0  0
 39 40  1  0  0  0  0
 40 41  1  0  0  0  0
 40120  1  0  0  0  0
 40121  1  0  0  0  0
 41 42  1  0  0  0  0
 41122  1  0  0  0  0
 41123  1  0  0  0  0
 42 43  1  0  0  0  0
 43 44  1  0  0  0  0
 43124  1  0  0  0  0
 43125  1  0  0  0  0
 44 45  1  0  0  0  0
 44126  1  0  0  0  0
 44127  1  0  0  0  0
 45128  1  0  0  0  0
 45129  1  0  0  0  0
 45130  1  0  0  0  0
 46 47  1  0  0  0  0
 47 48  2  0  0  0  0
 47 49  1  0  0  0  0
 49 50  1  0  0  0  0
 49131  1  0  0  0  0
 49132  1  0  0  0  0
 50 51  1  0  0  0  0
 50133  1  0  0  0  0
 50134  1  0  0  0  0
 51 52  1  0  0  0  0
 51135  1  0  0  0  0
 51136  1  0  0  0  0
 52 53  1  0  0  0  0
 52137  1  0  0  0  0
 52138  1  0  0  0  0
 53 54  1  0  0  0  0
 53139  1  0  0  0  0
 53140  1  0  0  0  0
 54 55  1  0  0  0  0
 54141  1  0  0  0  0
 54142  1  0  0  0  0
 55 56  1  0  0  0  0
 55143  1  0  0  0  0
 55144  1  0  0  0  0
 56 57  1  0  0  0  0
 56145  1  0  0  0  0
 56146  1  0  0  0  0
 57 58  1  0  0  0  0
 57 59  1  0  0  0  0
 57147  1  0  0  0  0
 58148  1  0  0  0  0
 58149  1  0  0  0  0
 58150  1  0  0  0  0
 59151  1  0  0  0  0
 59152  1  0  0  0  0
 59153  1  0  0  0  0
M  END
>  <IDENTIFIER>
CNP0534466.2

>  <Energy>
11765.2

$$$$
