
 OpenBabel09092500463D

 56 58  0  0  0  0  0  0  0  0999 V2000
   -8.8408   -2.8021   -0.0871 C   0  0  0  0  0  0  0  0  0  0  0  0
   -7.8212   -2.3483   -0.8998 O   0  0  0  0  0  0  0  0  0  0  0  0
   -6.6457   -1.8214   -0.4721 C   0  0  0  0  0  0  0  0  0  0  0  0
   -5.7132   -1.4078   -1.4264 C   0  0  0  0  0  0  0  0  0  0  0  0
   -4.4916   -0.8549   -1.0401 C   0  0  0  0  0  0  0  0  0  0  0  0
   -4.1656   -0.7012    0.3241 C   0  0  0  0  0  0  0  0  0  0  0  0
   -2.8728   -0.1117    0.7977 C   0  0  0  0  0  0  0  0  0  0  0  0
   -2.6889   -0.0034    2.0016 O   0  0  0  0  0  0  0  0  0  0  0  0
   -1.8955    0.2938   -0.0681 N   0  0  0  0  0  0  0  0  0  0  0  0
   -0.6326    0.8458    0.3948 C   0  0  1  0  0  0  0  0  0  0  0  0
    0.6160    0.1840   -0.1981 C   0  0  0  0  0  0  0  0  0  0  0  0
    1.2553    1.5822   -0.2016 C   0  0  1  0  0  0  0  0  0  0  0  0
    2.2857    1.9413   -1.2834 C   0  0  0  0  0  0  0  0  0  0  0  0
    3.4287    0.9837   -1.1858 C   0  0  0  0  0  0  0  0  0  0  0  0
    3.3454   -0.3188   -1.5234 N   0  0  0  0  0  0  0  0  0  0  0  0
    4.4909   -0.8617   -1.2361 O   0  0  0  0  0  0  0  0  0  0  0  0
    5.3141    0.0220   -0.7238 C   0  0  0  0  0  0  0  0  0  0  0  0
    6.6906   -0.2832   -0.2073 C   0  0  0  0  0  0  0  0  0  0  0  0
    6.6738   -1.1272    1.0092 N   0  0  0  0  0  0  0  0  0  0  0  0
    5.9601   -0.4736    2.1212 C   0  0  0  0  0  0  0  0  0  0  0  0
    6.1467   -2.4816    0.7771 C   0  0  0  0  0  0  0  0  0  0  0  0
    4.6818    1.2462   -0.6854 C   0  0  0  0  0  0  0  0  0  0  0  0
   -0.1657    2.1919   -0.2108 C   0  0  0  0  0  0  0  0  0  0  0  0
   -0.7102    2.4573   -1.6379 C   0  0  0  0  0  0  0  0  0  0  0  0
   -0.3716    3.4194    0.6862 C   0  0  0  0  0  0  0  0  0  0  0  0
   -5.1161   -1.1185    1.2829 C   0  0  0  0  0  0  0  0  0  0  0  0
   -6.3345   -1.6719    0.8931 C   0  0  0  0  0  0  0  0  0  0  0  0
   -9.6710   -3.1747   -0.7202 H   0  0  0  0  0  0  0  0  0  0  0  0
   -9.2221   -1.9722    0.5464 H   0  0  0  0  0  0  0  0  0  0  0  0
   -8.4790   -3.6345    0.5525 H   0  0  0  0  0  0  0  0  0  0  0  0
   -5.9417   -1.5162   -2.4805 H   0  0  0  0  0  0  0  0  0  0  0  0
   -3.8194   -0.5600   -1.8312 H   0  0  0  0  0  0  0  0  0  0  0  0
   -2.0270    0.2022   -1.0795 H   0  0  0  0  0  0  0  0  0  0  0  0
   -0.5177    0.8747    1.5060 H   0  0  0  0  0  0  0  0  0  0  0  0
    0.4214   -0.1358   -1.2466 H   0  0  0  0  0  0  0  0  0  0  0  0
    1.1156   -0.6155    0.3913 H   0  0  0  0  0  0  0  0  0  0  0  0
    1.7056    1.7233    0.8128 H   0  0  0  0  0  0  0  0  0  0  0  0
    2.6261    2.9807   -1.0862 H   0  0  0  0  0  0  0  0  0  0  0  0
    1.8721    1.8907   -2.3110 H   0  0  0  0  0  0  0  0  0  0  0  0
    7.1999    0.6734    0.0446 H   0  0  0  0  0  0  0  0  0  0  0  0
    7.2915   -0.7628   -1.0097 H   0  0  0  0  0  0  0  0  0  0  0  0
    6.3645    0.5471    2.2927 H   0  0  0  0  0  0  0  0  0  0  0  0
    6.1024   -1.0509    3.0579 H   0  0  0  0  0  0  0  0  0  0  0  0
    4.8702   -0.3954    1.9132 H   0  0  0  0  0  0  0  0  0  0  0  0
    6.7033   -2.9765   -0.0481 H   0  0  0  0  0  0  0  0  0  0  0  0
    5.0632   -2.4685    0.5376 H   0  0  0  0  0  0  0  0  0  0  0  0
    6.2830   -3.1005    1.6906 H   0  0  0  0  0  0  0  0  0  0  0  0
    5.0614    2.1796   -0.2925 H   0  0  0  0  0  0  0  0  0  0  0  0
   -0.1932    3.3338   -2.0828 H   0  0  0  0  0  0  0  0  0  0  0  0
   -1.7967    2.6824   -1.5918 H   0  0  0  0  0  0  0  0  0  0  0  0
   -0.5662    1.5955   -2.3217 H   0  0  0  0  0  0  0  0  0  0  0  0
    0.1569    4.2970    0.2581 H   0  0  0  0  0  0  0  0  0  0  0  0
    0.0216    3.2376    1.7089 H   0  0  0  0  0  0  0  0  0  0  0  0
   -1.4552    3.6522    0.7648 H   0  0  0  0  0  0  0  0  0  0  0  0
   -4.9128   -1.0229    2.3413 H   0  0  0  0  0  0  0  0  0  0  0  0
   -7.0311   -1.9789    1.6626 H   0  0  0  0  0  0  0  0  0  0  0  0
  1  2  1  0  0  0  0
  1 28  1  0  0  0  0
  1 29  1  0  0  0  0
  1 30  1  0  0  0  0
  2  3  1  0  0  0  0
  3  4  2  0  0  0  0
  4  5  1  0  0  0  0
  4 31  1  0  0  0  0
  5  6  2  0  0  0  0
  5 32  1  0  0  0  0
  6  7  1  0  0  0  0
  6 26  1  0  0  0  0
  7  8  2  0  0  0  0
  7  9  1  0  0  0  0
  9 33  1  0  0  0  0
 10  9  1  0  0  0  0
 10 11  1  0  0  0  0
 10 34  1  1  0  0  0
 11 12  1  0  0  0  0
 11 35  1  0  0  0  0
 11 36  1  0  0  0  0
 12 13  1  0  0  0  0
 12 23  1  0  0  0  0
 12 37  1  1  0  0  0
 13 14  1  0  0  0  0
 13 38  1  0  0  0  0
 13 39  1  0  0  0  0
 14 15  2  0  0  0  0
 15 16  1  0  0  0  0
 16 17  1  0  0  0  0
 17 18  1  0  0  0  0
 17 22  2  0  0  0  0
 18 19  1  0  0  0  0
 18 40  1  0  0  0  0
 18 41  1  0  0  0  0
 19 20  1  0  0  0  0
 19 21  1  0  0  0  0
 20 42  1  0  0  0  0
 20 43  1  0  0  0  0
 20 44  1  0  0  0  0
 21 45  1  0  0  0  0
 21 46  1  0  0  0  0
 21 47  1  0  0  0  0
 22 14  1  0  0  0  0
 22 48  1  0  0  0  0
 23 24  1  0  0  0  0
 23 25  1  0  0  0  0
 23 10  1  0  0  0  0
 24 49  1  0  0  0  0
 24 50  1  0  0  0  0
 24 51  1  0  0  0  0
 25 52  1  0  0  0  0
 25 53  1  0  0  0  0
 25 54  1  0  0  0  0
 26 27  2  0  0  0  0
 26 55  1  0  0  0  0
 27  3  1  0  0  0  0
 27 56  1  0  0  0  0
M  END
>  <IDENTIFIER>
CNP0200415.1

>  <Energy>
911.729

$$$$
