
 OpenBabel09072507193D

 35 38  0  0  0  0  0  0  0  0999 V2000
   -2.3717    3.7180   -1.0571 C   0  0  0  0  0  0  0  0  0  0  0  0
   -1.2978    2.8842   -0.8220 O   0  0  0  0  0  0  0  0  0  0  0  0
   -1.3902    1.5820   -0.4505 C   0  0  0  0  0  0  0  0  0  0  0  0
   -2.6442    0.9048   -0.2610 C   0  0  0  0  0  0  0  0  0  0  0  0
   -2.6724   -0.4665    0.1319 C   0  0  0  0  0  0  0  0  0  0  0  0
   -3.8514   -1.1971    0.3348 C   0  0  0  0  0  0  0  0  0  0  0  0
   -3.7668   -2.5514    0.7234 C   0  0  0  0  0  0  0  0  0  0  0  0
   -2.5523   -3.1570    0.9047 N   0  0  0  0  0  0  0  0  0  0  0  0
   -1.3898   -2.4748    0.7156 C   0  0  0  0  0  0  0  0  0  0  0  0
   -1.4602   -1.1346    0.3304 C   0  0  0  0  0  0  0  0  0  0  0  0
   -0.2951   -0.4543    0.1399 C   0  0  0  0  0  0  0  0  0  0  0  0
   -0.2199    0.8342   -0.2319 C   0  0  0  0  0  0  0  0  0  0  0  0
    1.0860    1.1808   -0.3293 N   0  0  0  0  0  0  0  0  0  0  0  0
    1.7601    0.0315    0.0064 C   0  0  0  0  0  0  0  0  0  0  0  0
    3.2650   -0.0755    0.0387 C   0  0  0  0  0  0  0  0  0  0  0  0
    3.8483    0.9175    1.0479 C   0  0  0  0  0  0  0  0  0  0  0  0
    3.8426    0.1658   -1.3581 C   0  0  0  0  0  0  0  0  0  0  0  0
    0.9065   -0.9851    0.2983 N   0  0  0  0  0  0  0  0  0  0  0  0
    1.0580   -2.2909    0.6753 C   0  0  0  0  0  0  0  0  0  0  0  0
   -0.1128   -3.0700    0.8936 C   0  0  0  0  0  0  0  0  0  0  0  0
   -1.9984    4.7228   -1.3419 H   0  0  0  0  0  0  0  0  0  0  0  0
   -2.9893    3.8172   -0.1384 H   0  0  0  0  0  0  0  0  0  0  0  0
   -2.9917    3.3211   -1.8893 H   0  0  0  0  0  0  0  0  0  0  0  0
   -3.5803    1.4255   -0.4146 H   0  0  0  0  0  0  0  0  0  0  0  0
   -4.8202   -0.7337    0.1959 H   0  0  0  0  0  0  0  0  0  0  0  0
   -4.6735   -3.1199    0.8805 H   0  0  0  0  0  0  0  0  0  0  0  0
    3.5603   -1.0971    0.3551 H   0  0  0  0  0  0  0  0  0  0  0  0
    3.6018    1.9629    0.7624 H   0  0  0  0  0  0  0  0  0  0  0  0
    4.9536    0.8117    1.0915 H   0  0  0  0  0  0  0  0  0  0  0  0
    3.4395    0.7155    2.0611 H   0  0  0  0  0  0  0  0  0  0  0  0
    3.5936    1.1863   -1.7203 H   0  0  0  0  0  0  0  0  0  0  0  0
    3.4306   -0.5798   -2.0719 H   0  0  0  0  0  0  0  0  0  0  0  0
    4.9478    0.0526   -1.3384 H   0  0  0  0  0  0  0  0  0  0  0  0
    2.0369   -2.7303    0.8056 H   0  0  0  0  0  0  0  0  0  0  0  0
   -0.0269   -4.1069    1.1918 H   0  0  0  0  0  0  0  0  0  0  0  0
  1  2  1  0  0  0  0
  1 21  1  0  0  0  0
  1 22  1  0  0  0  0
  1 23  1  0  0  0  0
  2  3  1  0  0  0  0
  3  4  2  0  0  0  0
  4  5  1  0  0  0  0
  4 24  1  0  0  0  0
  5  6  2  0  0  0  0
  6  7  1  0  0  0  0
  6 25  1  0  0  0  0
  7  8  2  0  0  0  0
  7 26  1  0  0  0  0
  8  9  1  0  0  0  0
  9 10  2  0  0  0  0
 10 11  1  0  0  0  0
 10  5  1  0  0  0  0
 11 12  2  0  0  0  0
 12 13  1  0  0  0  0
 12  3  1  0  0  0  0
 13 14  2  0  0  0  0
 14 15  1  0  0  0  0
 14 18  1  0  0  0  0
 15 16  1  0  0  0  0
 15 17  1  0  0  0  0
 15 27  1  0  0  0  0
 16 28  1  0  0  0  0
 16 29  1  0  0  0  0
 16 30  1  0  0  0  0
 17 31  1  0  0  0  0
 17 32  1  0  0  0  0
 17 33  1  0  0  0  0
 18 19  1  0  0  0  0
 18 11  1  0  0  0  0
 19 20  2  0  0  0  0
 19 34  1  0  0  0  0
 20  9  1  0  0  0  0
 20 35  1  0  0  0  0
M  END
>  <IDENTIFIER>
CNP0191390.0

>  <Energy>
383.782

$$$$
