
 OpenBabel09122522163D

 40 43  0  0  0  0  0  0  0  0999 V2000
   -4.8749   -1.4503   -0.8211 C   0  0  0  0  0  0  0  0  0  0  0  0
   -3.7094   -0.5022   -0.4935 C   0  0  0  0  0  0  0  0  0  0  0  0
   -3.7357    0.6629   -1.5114 C   0  0  0  0  0  0  0  0  0  0  0  0
   -2.5108   -1.1930   -0.6169 O   0  0  0  0  0  0  0  0  0  0  0  0
   -1.3282   -0.6913   -0.1687 C   0  0  0  0  0  0  0  0  0  0  0  0
   -0.1402   -1.2129   -0.6632 C   0  0  0  0  0  0  0  0  0  0  0  0
    1.0876   -0.6705   -0.2858 C   0  0  0  0  0  0  0  0  0  0  0  0
    1.1531    0.4244    0.6212 C   0  0  0  0  0  0  0  0  0  0  0  0
   -0.0742    0.9410    1.1549 C   0  0  0  0  0  0  0  0  0  0  0  0
   -0.1412    1.9728    2.0324 O   0  0  0  0  0  0  0  0  0  0  0  0
   -1.3016    0.3689    0.7629 C   0  0  0  0  0  0  0  0  0  0  0  0
   -2.6099    0.9207    1.3086 C   0  0  0  0  0  0  0  0  0  0  0  0
   -3.8168    0.0151    0.9652 C   0  0  2  0  0  0  0  0  0  0  0  0
   -3.8817   -1.0689    1.8663 O   0  0  0  0  0  0  0  0  0  0  0  0
    2.4477    0.9317    0.9206 C   0  0  0  0  0  0  0  0  0  0  0  0
    2.6017    1.8700    1.6812 O   0  0  0  0  0  0  0  0  0  0  0  0
    3.5825    0.3532    0.3217 C   0  0  0  0  0  0  0  0  0  0  0  0
    4.8856    0.8313    0.5681 C   0  0  0  0  0  0  0  0  0  0  0  0
    5.9901    0.2327   -0.0567 C   0  0  0  0  0  0  0  0  0  0  0  0
    7.2390    0.6896    0.1665 O   0  0  0  0  0  0  0  0  0  0  0  0
    5.7972   -0.8472   -0.9235 C   0  0  0  0  0  0  0  0  0  0  0  0
    4.5098   -1.3283   -1.1726 C   0  0  0  0  0  0  0  0  0  0  0  0
    3.4033   -0.7320   -0.5580 C   0  0  0  0  0  0  0  0  0  0  0  0
    2.1884   -1.1899   -0.8170 O   0  0  0  0  0  0  0  0  0  0  0  0
   -4.7816   -1.8335   -1.8602 H   0  0  0  0  0  0  0  0  0  0  0  0
   -5.8469   -0.9191   -0.7259 H   0  0  0  0  0  0  0  0  0  0  0  0
   -4.8805   -2.3237   -0.1358 H   0  0  0  0  0  0  0  0  0  0  0  0
   -3.6565    0.2670   -2.5467 H   0  0  0  0  0  0  0  0  0  0  0  0
   -2.8857    1.3606   -1.3678 H   0  0  0  0  0  0  0  0  0  0  0  0
   -4.6810    1.2396   -1.4228 H   0  0  0  0  0  0  0  0  0  0  0  0
   -0.1706   -2.0309   -1.3734 H   0  0  0  0  0  0  0  0  0  0  0  0
    0.5869    2.4712    2.4107 H   0  0  0  0  0  0  0  0  0  0  0  0
   -2.7418    1.9344    0.8736 H   0  0  0  0  0  0  0  0  0  0  0  0
   -2.5762    1.0334    2.4145 H   0  0  0  0  0  0  0  0  0  0  0  0
   -4.7486    0.6038    1.1128 H   0  0  0  0  0  0  0  0  0  0  0  0
   -3.0119   -1.5458    1.8571 H   0  0  0  0  0  0  0  0  0  0  0  0
    5.0487    1.6678    1.2368 H   0  0  0  0  0  0  0  0  0  0  0  0
    7.4149    1.4403    0.7516 H   0  0  0  0  0  0  0  0  0  0  0  0
    6.6467   -1.3122   -1.4079 H   0  0  0  0  0  0  0  0  0  0  0  0
    4.3714   -2.1624   -1.8492 H   0  0  0  0  0  0  0  0  0  0  0  0
  1  2  1  0  0  0  0
  1 25  1  0  0  0  0
  1 26  1  0  0  0  0
  1 27  1  0  0  0  0
  2  3  1  0  0  0  0
  2  4  1  0  0  0  0
  3 28  1  0  0  0  0
  3 29  1  0  0  0  0
  3 30  1  0  0  0  0
  4  5  1  0  0  0  0
  5  6  2  0  0  0  0
  6  7  1  0  0  0  0
  6 31  1  0  0  0  0
  7  8  2  0  0  0  0
  8  9  1  0  0  0  0
  8 15  1  0  0  0  0
  9 10  1  0  0  0  0
  9 11  2  0  0  0  0
 10 32  1  0  0  0  0
 11 12  1  0  0  0  0
 11  5  1  0  0  0  0
 12 13  1  0  0  0  0
 12 33  1  0  0  0  0
 12 34  1  0  0  0  0
 13 14  1  0  0  0  0
 13  2  1  0  0  0  0
 13 35  1  1  0  0  0
 14 36  1  0  0  0  0
 15 16  2  0  0  0  0
 15 17  1  0  0  0  0
 17 18  2  0  0  0  0
 18 19  1  0  0  0  0
 18 37  1  0  0  0  0
 19 20  1  0  0  0  0
 19 21  2  0  0  0  0
 20 38  1  0  0  0  0
 21 22  1  0  0  0  0
 21 39  1  0  0  0  0
 22 23  2  0  0  0  0
 22 40  1  0  0  0  0
 23 24  1  0  0  0  0
 23 17  1  0  0  0  0
 24  7  1  0  0  0  0
M  END
>  <IDENTIFIER>
CNP0209676.1

>  <Energy>
309.854

$$$$
