
 OpenBabel09092516243D

 51 54  0  0  0  0  0  0  0  0999 V2000
   -3.0976   -3.2716   -1.5401 O   0  0  0  0  0  0  0  0  0  0  0  0
   -4.2582   -3.0581   -1.8535 C   0  0  0  0  0  0  0  0  0  0  0  0
   -5.0134   -4.0802   -2.3101 O   0  0  0  0  0  0  0  0  0  0  0  0
   -4.8253   -1.6621   -1.7508 C   0  0  0  0  0  0  0  0  0  0  0  0
   -4.8566   -1.1463   -0.2881 C   0  0  1  0  0  0  0  0  0  0  0  0
   -3.5313   -1.1780    0.3229 N   0  0  0  0  0  0  0  0  0  0  0  0
   -2.4442   -0.4774   -0.1182 C   0  0  0  0  0  0  0  0  0  0  0  0
   -2.5311    0.2624   -1.0862 O   0  0  0  0  0  0  0  0  0  0  0  0
   -1.1299   -0.6474    0.5514 C   0  0  0  0  0  0  0  0  0  0  0  0
    0.0931   -0.1461    0.1073 C   0  0  0  0  0  0  0  0  0  0  0  0
    1.1930   -0.5155    0.9205 C   0  0  0  0  0  0  0  0  0  0  0  0
    2.6222   -0.1511    0.6373 C   0  0  0  0  0  0  0  0  0  0  0  0
    3.6706   -0.6575    1.4295 C   0  0  0  0  0  0  0  0  0  0  0  0
    5.0033   -0.3412    1.1581 C   0  0  0  0  0  0  0  0  0  0  0  0
    5.3541    0.4959    0.0773 C   0  0  0  0  0  0  0  0  0  0  0  0
    6.7986    0.8294   -0.2234 C   0  0  0  0  0  0  0  0  0  0  0  0
    7.8297    0.5594    0.7082 C   0  0  0  0  0  0  0  0  0  0  0  0
    9.1561    0.8785    0.4078 C   0  0  0  0  0  0  0  0  0  0  0  0
    9.4714    1.4445   -0.7828 N   0  0  0  0  0  0  0  0  0  0  0  0
    8.5193    1.7184   -1.7082 C   0  0  0  0  0  0  0  0  0  0  0  0
    7.1788    1.4227   -1.4498 C   0  0  0  0  0  0  0  0  0  0  0  0
    4.2993    1.0032   -0.7127 C   0  0  0  0  0  0  0  0  0  0  0  0
    2.9649    0.6875   -0.4387 C   0  0  0  0  0  0  0  0  0  0  0  0
    0.7964   -1.2915    2.0169 C   0  0  0  0  0  0  0  0  0  0  0  0
   -0.8609   -1.5269    1.9558 S   0  0  0  0  0  0  0  0  0  0  0  0
   -5.5070    0.2203   -0.1024 C   0  0  0  0  0  0  0  0  0  0  0  0
   -5.6462    0.7157    1.2083 C   0  0  0  0  0  0  0  0  0  0  0  0
   -6.2664    1.9444    1.4470 C   0  0  0  0  0  0  0  0  0  0  0  0
   -6.7614    2.6970    0.3811 C   0  0  0  0  0  0  0  0  0  0  0  0
   -6.6304    2.2244   -0.9255 C   0  0  0  0  0  0  0  0  0  0  0  0
   -6.0062    0.9970   -1.1725 C   0  0  0  0  0  0  0  0  0  0  0  0
   -5.9359   -3.9579   -2.5728 H   0  0  0  0  0  0  0  0  0  0  0  0
   -5.8672   -1.6754   -2.1375 H   0  0  0  0  0  0  0  0  0  0  0  0
   -4.2286   -0.9913   -2.4027 H   0  0  0  0  0  0  0  0  0  0  0  0
   -5.5024   -1.8597    0.2740 H   0  0  0  0  0  0  0  0  0  0  0  0
   -3.4208   -1.8087    1.1297 H   0  0  0  0  0  0  0  0  0  0  0  0
    0.1680    0.4402   -0.7962 H   0  0  0  0  0  0  0  0  0  0  0  0
    3.4827   -1.3156    2.2635 H   0  0  0  0  0  0  0  0  0  0  0  0
    5.7439   -0.7857    1.8028 H   0  0  0  0  0  0  0  0  0  0  0  0
    7.6405    0.1211    1.6741 H   0  0  0  0  0  0  0  0  0  0  0  0
    9.9378    0.6766    1.1283 H   0  0  0  0  0  0  0  0  0  0  0  0
    8.8028    2.1648   -2.6523 H   0  0  0  0  0  0  0  0  0  0  0  0
    6.4700    1.6526   -2.2282 H   0  0  0  0  0  0  0  0  0  0  0  0
    4.4757    1.6606   -1.5483 H   0  0  0  0  0  0  0  0  0  0  0  0
    2.2118    1.1146   -1.0820 H   0  0  0  0  0  0  0  0  0  0  0  0
    1.4239   -1.7034    2.7920 H   0  0  0  0  0  0  0  0  0  0  0  0
   -5.2785    0.1416    2.0509 H   0  0  0  0  0  0  0  0  0  0  0  0
   -6.3694    2.3105    2.4603 H   0  0  0  0  0  0  0  0  0  0  0  0
   -7.2480    3.6454    0.5683 H   0  0  0  0  0  0  0  0  0  0  0  0
   -7.0194    2.8080   -1.7502 H   0  0  0  0  0  0  0  0  0  0  0  0
   -5.9349    0.6655   -2.1977 H   0  0  0  0  0  0  0  0  0  0  0  0
  1  2  2  0  0  0  0
  2  3  1  0  0  0  0
  2  4  1  0  0  0  0
  3 32  1  0  0  0  0
  4 33  1  0  0  0  0
  4 34  1  0  0  0  0
  5  4  1  0  0  0  0
  5  6  1  0  0  0  0
  5 26  1  0  0  0  0
  5 35  1  1  0  0  0
  6  7  1  0  0  0  0
  6 36  1  0  0  0  0
  7  8  2  0  0  0  0
  7  9  1  0  0  0  0
  9 10  2  0  0  0  0
 10 11  1  0  0  0  0
 10 37  1  0  0  0  0
 11 12  1  0  0  0  0
 11 24  2  0  0  0  0
 12 13  2  0  0  0  0
 13 14  1  0  0  0  0
 13 38  1  0  0  0  0
 14 15  2  0  0  0  0
 14 39  1  0  0  0  0
 15 16  1  0  0  0  0
 15 22  1  0  0  0  0
 16 17  2  0  0  0  0
 17 18  1  0  0  0  0
 17 40  1  0  0  0  0
 18 19  2  0  0  0  0
 18 41  1  0  0  0  0
 19 20  1  0  0  0  0
 20 21  2  0  0  0  0
 20 42  1  0  0  0  0
 21 16  1  0  0  0  0
 21 43  1  0  0  0  0
 22 23  2  0  0  0  0
 22 44  1  0  0  0  0
 23 12  1  0  0  0  0
 23 45  1  0  0  0  0
 24 25  1  0  0  0  0
 24 46  1  0  0  0  0
 25  9  1  0  0  0  0
 26 27  2  0  0  0  0
 27 28  1  0  0  0  0
 27 47  1  0  0  0  0
 28 29  2  0  0  0  0
 28 48  1  0  0  0  0
 29 30  1  0  0  0  0
 29 49  1  0  0  0  0
 30 31  2  0  0  0  0
 30 50  1  0  0  0  0
 31 26  1  0  0  0  0
 31 51  1  0  0  0  0
M  END
>  <IDENTIFIER>
CNP0589057.1

>  <Energy>
421.925

$$$$
