
 OpenBabel09072507243D

130135  0  0  0  0  0  0  0  0999 V2000
   16.4403   -0.9699    0.0671 C   0  0  0  0  0  0  0  0  0  0  0  0
   16.1030   -0.3777    1.4356 C   0  0  0  0  0  0  0  0  0  0  0  0
   14.6913   -0.7568    1.9211 C   0  0  0  0  0  0  0  0  0  0  0  0
   13.5498   -0.3285    0.9833 C   0  0  0  0  0  0  0  0  0  0  0  0
   13.4979    1.1941    0.7698 C   0  0  0  0  0  0  0  0  0  0  0  0
   12.5350    1.6918   -0.3180 C   0  0  0  0  0  0  0  0  0  0  0  0
   11.0387    1.5996   -0.0234 C   0  0  0  0  0  0  0  0  0  0  0  0
   10.4345    0.1947   -0.1302 C   0  0  0  0  0  0  0  0  0  0  0  0
    8.9322    0.3101    0.0193 C   0  0  0  0  0  0  0  0  0  0  0  0
    8.2380   -1.0481   -0.0965 C   0  0  0  0  0  0  0  0  0  0  0  0
    6.7271   -0.8981    0.0735 C   0  0  0  0  0  0  0  0  0  0  0  0
    6.1138    0.0259   -0.9994 C   0  0  0  0  0  0  0  0  0  0  0  0
    4.6039    0.1323   -0.8897 C   0  0  0  0  0  0  0  0  0  0  0  0
    4.1637    0.7645    0.4513 C   0  0  0  0  0  0  0  0  0  0  0  0
    2.6436    0.8822    0.5260 C   0  0  0  0  0  0  0  0  0  0  0  0
    1.9776   -0.4511    0.5418 C   0  0  0  0  0  0  0  0  0  0  0  0
    2.6255   -1.4910    0.6151 O   0  0  0  0  0  0  0  0  0  0  0  0
    0.6287   -0.4888    0.4585 O   0  0  0  0  0  0  0  0  0  0  0  0
   -0.1181   -1.6376    0.2655 C   0  0  1  0  0  0  0  0  0  0  0  0
   -0.9152   -1.8575    1.5692 C   0  0  0  0  0  0  0  0  0  0  0  0
   -2.3489   -1.3210    1.6035 C   0  0  0  0  0  0  0  0  0  0  0  0
   -2.7452   -0.3011    0.4849 C   0  0  2  0  0  0  0  0  0  0  0  0
   -2.0573    1.0597    0.7497 C   0  0  0  0  0  0  0  0  0  0  0  0
   -4.3197   -0.1813    0.4842 C   0  0  1  0  0  0  0  0  0  0  0  0
   -5.0685    0.0677    1.8108 C   0  0  0  0  0  0  0  0  0  0  0  0
   -6.5415   -0.3599    1.6375 C   0  0  0  0  0  0  0  0  0  0  0  0
   -7.2582    0.2997    0.4228 C   0  0  2  0  0  0  0  0  0  0  0  0
   -8.7806   -0.0628    0.2409 C   0  0  1  0  0  0  0  0  0  0  0  0
   -9.5630   -0.0005    1.5993 C   0  0  2  0  0  0  0  0  0  0  0  0
   -9.4878   -1.3539    2.3634 C   0  0  0  0  0  0  0  0  0  0  0  0
  -11.0565    0.3707    1.5031 C   0  0  2  0  0  0  0  0  0  0  0  0
  -11.7313    0.9917    2.7293 C   0  0  0  0  0  0  0  0  0  0  0  0
  -11.8425   -0.5788    0.8393 O   0  0  0  0  0  0  0  0  0  0  0  0
  -11.6849    0.6786    0.1869 C   0  0  2  0  0  0  0  0  0  0  0  0
  -10.8667    0.4581   -1.0798 C   0  0  0  0  0  0  0  0  0  0  0  0
   -9.3982    0.8774   -0.8652 C   0  0  1  0  0  0  0  0  0  0  0  0
   -9.3543    2.3939   -0.4724 C   0  0  0  0  0  0  0  0  0  0  0  0
   -8.6469    0.6386   -2.2267 C   0  0  1  0  0  0  0  0  0  0  0  0
   -9.1789    1.4391   -3.2610 O   0  0  0  0  0  0  0  0  0  0  0  0
   -7.1283    0.8748   -2.0951 C   0  0  0  0  0  0  0  0  0  0  0  0
   -6.4444    0.0993   -0.9232 C   0  0  2  0  0  0  0  0  0  0  0  0
   -6.4700   -1.4286   -1.3319 C   0  0  0  0  0  0  0  0  0  0  0  0
   -4.9542    0.6787   -0.6778 C   0  0  1  0  0  0  0  0  0  0  0  0
   -5.0054    2.2199   -0.2821 C   0  0  0  0  0  0  0  0  0  0  0  0
   -4.0288    0.6626   -1.9421 C   0  0  0  0  0  0  0  0  0  0  0  0
   -3.1752   -0.5755   -2.1710 C   0  0  0  0  0  0  0  0  0  0  0  0
   -2.3849   -1.0252   -0.8896 C   0  0  1  0  0  0  0  0  0  0  0  0
   -0.9039   -1.5235   -1.1027 C   0  0  0  0  0  0  0  0  0  0  0  0
   -0.9475   -2.9140   -1.7892 C   0  0  0  0  0  0  0  0  0  0  0  0
   -0.1045   -0.5839   -2.0587 C   0  0  0  0  0  0  0  0  0  0  0  0
   17.4744   -0.6847   -0.2138 H   0  0  0  0  0  0  0  0  0  0  0  0
   15.7607   -0.5788   -0.7185 H   0  0  0  0  0  0  0  0  0  0  0  0
   16.3650   -2.0772    0.1000 H   0  0  0  0  0  0  0  0  0  0  0  0
   16.2225    0.7243    1.3989 H   0  0  0  0  0  0  0  0  0  0  0  0
   16.8369   -0.7543    2.1780 H   0  0  0  0  0  0  0  0  0  0  0  0
   14.5253   -0.2976    2.9202 H   0  0  0  0  0  0  0  0  0  0  0  0
   14.6419   -1.8609    2.0422 H   0  0  0  0  0  0  0  0  0  0  0  0
   12.6301   -0.6822    1.4711 H   0  0  0  0  0  0  0  0  0  0  0  0
   13.6498   -0.8455    0.0057 H   0  0  0  0  0  0  0  0  0  0  0  0
   14.4880    1.5254    0.4058 H   0  0  0  0  0  0  0  0  0  0  0  0
   13.2902    1.7065    1.7345 H   0  0  0  0  0  0  0  0  0  0  0  0
   12.7644    1.2176   -1.2973 H   0  0  0  0  0  0  0  0  0  0  0  0
   12.7471    2.7794   -0.4211 H   0  0  0  0  0  0  0  0  0  0  0  0
   10.5426    2.2200   -0.8038 H   0  0  0  0  0  0  0  0  0  0  0  0
   10.8137    2.0539    0.9660 H   0  0  0  0  0  0  0  0  0  0  0  0
   10.7828   -0.4828    0.6578 H   0  0  0  0  0  0  0  0  0  0  0  0
   10.6720   -0.2435   -1.1261 H   0  0  0  0  0  0  0  0  0  0  0  0
    8.5903    0.9840   -0.7892 H   0  0  0  0  0  0  0  0  0  0  0  0
    8.6895    0.7626    1.0072 H   0  0  0  0  0  0  0  0  0  0  0  0
    8.6147   -1.7247    0.7030 H   0  0  0  0  0  0  0  0  0  0  0  0
    8.4594   -1.5103   -1.0826 H   0  0  0  0  0  0  0  0  0  0  0  0
    6.5430   -0.4962    1.0915 H   0  0  0  0  0  0  0  0  0  0  0  0
    6.2630   -1.9060    0.0068 H   0  0  0  0  0  0  0  0  0  0  0  0
    6.3647   -0.3771   -2.0047 H   0  0  0  0  0  0  0  0  0  0  0  0
    6.5033    1.0593   -0.9215 H   0  0  0  0  0  0  0  0  0  0  0  0
    4.1840   -0.8814   -1.0436 H   0  0  0  0  0  0  0  0  0  0  0  0
    4.2410    0.7737   -1.7230 H   0  0  0  0  0  0  0  0  0  0  0  0
    4.6072    1.7795    0.5332 H   0  0  0  0  0  0  0  0  0  0  0  0
    4.4999    0.1656    1.3228 H   0  0  0  0  0  0  0  0  0  0  0  0
    2.2904    1.4645   -0.3515 H   0  0  0  0  0  0  0  0  0  0  0  0
    2.3520    1.4269    1.4502 H   0  0  0  0  0  0  0  0  0  0  0  0
    0.5959   -2.4869    0.1867 H   0  0  0  0  0  0  0  0  0  0  0  0
   -0.3395   -1.3651    2.3909 H   0  0  0  0  0  0  0  0  0  0  0  0
   -0.9392   -2.9282    1.8600 H   0  0  0  0  0  0  0  0  0  0  0  0
   -2.5803   -0.9788    2.6334 H   0  0  0  0  0  0  0  0  0  0  0  0
   -2.9781   -2.2285    1.4544 H   0  0  0  0  0  0  0  0  0  0  0  0
   -2.4793    1.5238    1.6659 H   0  0  0  0  0  0  0  0  0  0  0  0
   -2.1333    1.7626   -0.0880 H   0  0  0  0  0  0  0  0  0  0  0  0
   -0.9836    0.9845    0.9267 H   0  0  0  0  0  0  0  0  0  0  0  0
   -4.5691   -1.2277    0.2936 H   0  0  0  0  0  0  0  0  0  0  0  0
   -4.9660    1.1176    2.1453 H   0  0  0  0  0  0  0  0  0  0  0  0
   -4.6809   -0.5546    2.6393 H   0  0  0  0  0  0  0  0  0  0  0  0
   -7.0431   -0.0906    2.5902 H   0  0  0  0  0  0  0  0  0  0  0  0
   -6.5652   -1.4617    1.5219 H   0  0  0  0  0  0  0  0  0  0  0  0
   -7.2742    1.3557    0.7014 H   0  0  0  0  0  0  0  0  0  0  0  0
   -8.8974   -1.1017   -0.1284 H   0  0  0  0  0  0  0  0  0  0  0  0
   -9.1177    0.8251    2.1947 H   0  0  0  0  0  0  0  0  0  0  0  0
   -9.9733   -2.1538    1.7608 H   0  0  0  0  0  0  0  0  0  0  0  0
  -10.0147   -1.2905    3.3353 H   0  0  0  0  0  0  0  0  0  0  0  0
   -8.4757   -1.7185    2.5858 H   0  0  0  0  0  0  0  0  0  0  0  0
  -11.2217    0.6663    3.6536 H   0  0  0  0  0  0  0  0  0  0  0  0
  -12.8031    0.7109    2.7820 H   0  0  0  0  0  0  0  0  0  0  0  0
  -11.6374    2.0928    2.6545 H   0  0  0  0  0  0  0  0  0  0  0  0
  -12.6884    1.1429    0.1238 H   0  0  0  0  0  0  0  0  0  0  0  0
  -11.3185    1.0665   -1.8931 H   0  0  0  0  0  0  0  0  0  0  0  0
  -10.9286   -0.6091   -1.4077 H   0  0  0  0  0  0  0  0  0  0  0  0
   -9.9067    3.0093   -1.2109 H   0  0  0  0  0  0  0  0  0  0  0  0
   -8.3326    2.8124   -0.4204 H   0  0  0  0  0  0  0  0  0  0  0  0
   -9.8234    2.5742    0.5147 H   0  0  0  0  0  0  0  0  0  0  0  0
   -8.7993   -0.4120   -2.5233 H   0  0  0  0  0  0  0  0  0  0  0  0
   -8.8501    2.3777   -3.1483 H   0  0  0  0  0  0  0  0  0  0  0  0
   -6.9978    1.9555   -1.9729 H   0  0  0  0  0  0  0  0  0  0  0  0
   -6.6649    0.5999   -3.0685 H   0  0  0  0  0  0  0  0  0  0  0  0
   -5.8584   -1.6193   -2.2271 H   0  0  0  0  0  0  0  0  0  0  0  0
   -7.4751   -1.7968   -1.5936 H   0  0  0  0  0  0  0  0  0  0  0  0
   -6.1618   -2.1440   -0.5484 H   0  0  0  0  0  0  0  0  0  0  0  0
   -5.3764    2.8653   -1.0973 H   0  0  0  0  0  0  0  0  0  0  0  0
   -4.0194    2.6435   -0.0564 H   0  0  0  0  0  0  0  0  0  0  0  0
   -5.5868    2.4828    0.6138 H   0  0  0  0  0  0  0  0  0  0  0  0
   -3.2609    1.4512   -1.8314 H   0  0  0  0  0  0  0  0  0  0  0  0
   -4.5534    0.9795   -2.8632 H   0  0  0  0  0  0  0  0  0  0  0  0
   -2.5160   -0.2912   -3.0056 H   0  0  0  0  0  0  0  0  0  0  0  0
   -3.7613   -1.4193   -2.5816 H   0  0  0  0  0  0  0  0  0  0  0  0
   -2.9078   -1.9898   -0.7105 H   0  0  0  0  0  0  0  0  0  0  0  0
   -1.4951   -2.8544   -2.7556 H   0  0  0  0  0  0  0  0  0  0  0  0
   -1.4576   -3.6591   -1.1431 H   0  0  0  0  0  0  0  0  0  0  0  0
    0.0778   -3.2846   -1.9981 H   0  0  0  0  0  0  0  0  0  0  0  0
   -0.4750   -0.5882   -3.1013 H   0  0  0  0  0  0  0  0  0  0  0  0
    0.9528   -0.9167   -2.1342 H   0  0  0  0  0  0  0  0  0  0  0  0
   -0.1229    0.4664   -1.6918 H   0  0  0  0  0  0  0  0  0  0  0  0
  1  2  1  0  0  0  0
  1 51  1  0  0  0  0
  1 52  1  0  0  0  0
  1 53  1  0  0  0  0
  2  3  1  0  0  0  0
  2 54  1  0  0  0  0
  2 55  1  0  0  0  0
  3  4  1  0  0  0  0
  3 56  1  0  0  0  0
  3 57  1  0  0  0  0
  4  5  1  0  0  0  0
  4 58  1  0  0  0  0
  4 59  1  0  0  0  0
  5  6  1  0  0  0  0
  5 60  1  0  0  0  0
  5 61  1  0  0  0  0
  6  7  1  0  0  0  0
  6 62  1  0  0  0  0
  6 63  1  0  0  0  0
  7  8  1  0  0  0  0
  7 64  1  0  0  0  0
  7 65  1  0  0  0  0
  8  9  1  0  0  0  0
  8 66  1  0  0  0  0
  8 67  1  0  0  0  0
  9 10  1  0  0  0  0
  9 68  1  0  0  0  0
  9 69  1  0  0  0  0
 10 11  1  0  0  0  0
 10 70  1  0  0  0  0
 10 71  1  0  0  0  0
 11 12  1  0  0  0  0
 11 72  1  0  0  0  0
 11 73  1  0  0  0  0
 12 13  1  0  0  0  0
 12 74  1  0  0  0  0
 12 75  1  0  0  0  0
 13 14  1  0  0  0  0
 13 76  1  0  0  0  0
 13 77  1  0  0  0  0
 14 15  1  0  0  0  0
 14 78  1  0  0  0  0
 14 79  1  0  0  0  0
 15 16  1  0  0  0  0
 15 80  1  0  0  0  0
 15 81  1  0  0  0  0
 16 17  2  0  0  0  0
 16 18  1  0  0  0  0
 19 18  1  0  0  0  0
 19 20  1  0  0  0  0
 19 82  1  6  0  0  0
 20 21  1  0  0  0  0
 20 83  1  0  0  0  0
 20 84  1  0  0  0  0
 21 22  1  0  0  0  0
 21 85  1  0  0  0  0
 21 86  1  0  0  0  0
 22 23  1  1  0  0  0
 22 24  1  0  0  0  0
 23 87  1  0  0  0  0
 23 88  1  0  0  0  0
 23 89  1  0  0  0  0
 24 25  1  0  0  0  0
 24 90  1  6  0  0  0
 25 26  1  0  0  0  0
 25 91  1  0  0  0  0
 25 92  1  0  0  0  0
 26 93  1  0  0  0  0
 26 94  1  0  0  0  0
 27 26  1  0  0  0  0
 27 28  1  0  0  0  0
 27 95  1  1  0  0  0
 28 29  1  0  0  0  0
 28 96  1  6  0  0  0
 29 30  1  0  0  0  0
 29 31  1  0  0  0  0
 29 97  1  1  0  0  0
 30 98  1  0  0  0  0
 30 99  1  0  0  0  0
 30100  1  0  0  0  0
 31 32  1  1  0  0  0
 31 33  1  0  0  0  0
 32101  1  0  0  0  0
 32102  1  0  0  0  0
 32103  1  0  0  0  0
 33 34  1  0  0  0  0
 34 35  1  0  0  0  0
 34 31  1  0  0  0  0
 34104  1  6  0  0  0
 35 36  1  0  0  0  0
 35105  1  0  0  0  0
 35106  1  0  0  0  0
 36 37  1  1  0  0  0
 36 38  1  0  0  0  0
 36 28  1  0  0  0  0
 37107  1  0  0  0  0
 37108  1  0  0  0  0
 37109  1  0  0  0  0
 38 39  1  0  0  0  0
 38 40  1  0  0  0  0
 38110  1  6  0  0  0
 39111  1  0  0  0  0
 40 41  1  0  0  0  0
 40112  1  0  0  0  0
 40113  1  0  0  0  0
 41 42  1  6  0  0  0
 41 43  1  0  0  0  0
 41 27  1  0  0  0  0
 42114  1  0  0  0  0
 42115  1  0  0  0  0
 42116  1  0  0  0  0
 43 44  1  1  0  0  0
 43 45  1  0  0  0  0
 43 24  1  0  0  0  0
 44117  1  0  0  0  0
 44118  1  0  0  0  0
 44119  1  0  0  0  0
 45 46  1  0  0  0  0
 45120  1  0  0  0  0
 45121  1  0  0  0  0
 46122  1  0  0  0  0
 46123  1  0  0  0  0
 47 46  1  0  0  0  0
 47 48  1  0  0  0  0
 47 22  1  0  0  0  0
 47124  1  1  0  0  0
 48 49  1  0  0  0  0
 48 50  1  0  0  0  0
 48 19  1  0  0  0  0
 49125  1  0  0  0  0
 49126  1  0  0  0  0
 49127  1  0  0  0  0
 50128  1  0  0  0  0
 50129  1  0  0  0  0
 50130  1  0  0  0  0
M  END
>  <IDENTIFIER>
CNP0161913.1

>  <Energy>
2911.62

$$$$
