
 OpenBabel09062522083D

110116  0  0  0  0  0  0  0  0999 V2000
    8.5481    0.1539    3.4292 C   0  0  0  0  0  0  0  0  0  0  0  0
    8.2897   -0.3547    2.0465 C   0  0  0  0  0  0  0  0  0  0  0  0
    8.0420   -1.5384    1.8624 O   0  0  0  0  0  0  0  0  0  0  0  0
    8.3295    0.5244    1.0171 O   0  0  0  0  0  0  0  0  0  0  0  0
    8.0989    0.2605   -0.3256 C   0  0  1  0  0  0  0  0  0  0  0  0
    6.8773    1.1275   -0.7581 C   0  0  2  0  0  0  0  0  0  0  0  0
    5.7393    0.2829   -0.7289 O   0  0  0  0  0  0  0  0  0  0  0  0
    4.5383    0.9341   -0.3426 C   0  0  1  0  0  0  0  0  0  0  0  0
    3.5976    1.0894   -1.5744 C   0  0  0  0  0  0  0  0  0  0  0  0
    2.7308   -0.1428   -1.8148 C   0  0  0  0  0  0  0  0  0  0  0  0
    1.8484   -0.4034   -0.5512 C   0  0  2  0  0  0  0  0  0  0  0  0
    1.4495   -1.8875   -0.5012 C   0  0  0  0  0  0  0  0  0  0  0  0
    0.3536   -0.8242   -0.6554 C   0  0  2  0  0  0  0  0  0  0  0  0
   -0.3007   -0.7968   -2.0778 C   0  0  0  0  0  0  0  0  0  0  0  0
   -1.7891   -1.2354   -2.1825 C   0  0  0  0  0  0  0  0  0  0  0  0
   -2.5324   -1.3408   -0.8217 C   0  0  2  0  0  0  0  0  0  0  0  0
   -2.3458   -2.8128   -0.3005 C   0  0  0  0  0  0  0  0  0  0  0  0
   -4.0688   -1.0094   -0.8743 C   0  0  1  0  0  0  0  0  0  0  0  0
   -5.1042   -2.1001   -1.2738 C   0  0  2  0  0  0  0  0  0  0  0  0
   -4.9768   -2.5285   -2.7404 C   0  0  0  0  0  0  0  0  0  0  0  0
   -6.4885   -1.4950   -1.0029 C   0  0  0  0  0  0  0  0  0  0  0  0
   -6.6545   -1.1318    0.5085 C   0  0  2  0  0  0  0  0  0  0  0  0
   -7.4101    0.2175    0.7678 C   0  0  2  0  0  0  0  0  0  0  0  0
   -7.3158    0.4853    2.1306 O   0  0  0  0  0  0  0  0  0  0  0  0
   -6.6720    1.5524    2.6844 C   0  0  0  0  0  0  0  0  0  0  0  0
   -6.6905    1.7372    4.1659 C   0  0  0  0  0  0  0  0  0  0  0  0
   -6.0889    2.3707    1.9883 O   0  0  0  0  0  0  0  0  0  0  0  0
   -8.9239    0.3079    0.3535 C   0  0  0  0  0  0  0  0  0  0  0  0
   -9.4892    1.6906    0.7700 C   0  0  0  0  0  0  0  0  0  0  0  0
   -9.1503    0.1956   -1.1670 C   0  0  0  0  0  0  0  0  0  0  0  0
   -9.6636   -0.7148    0.9789 O   0  0  0  0  0  0  0  0  0  0  0  0
   -5.4038   -1.1591    1.2103 O   0  0  0  0  0  0  0  0  0  0  0  0
   -4.4146   -0.4216    0.5252 C   0  0  1  0  0  0  0  0  0  0  0  0
   -3.0917   -0.4016    1.2332 C   0  0  0  0  0  0  0  0  0  0  0  0
   -2.9247   -0.7989    2.3766 O   0  0  0  0  0  0  0  0  0  0  0  0
   -1.9995   -0.2840    0.2111 C   0  0  2  0  0  0  0  0  0  0  0  0
   -2.0365    1.2086   -0.2800 C   0  0  0  0  0  0  0  0  0  0  0  0
   -0.5426   -0.6742    0.6396 C   0  0  2  0  0  0  0  0  0  0  0  0
    0.0508    0.2248    1.7471 C   0  0  0  0  0  0  0  0  0  0  0  0
    1.5152   -0.1188    2.0215 C   0  0  0  0  0  0  0  0  0  0  0  0
    2.3387    0.2797    0.7776 C   0  0  1  0  0  0  0  0  0  0  0  0
    3.8957    0.1555    0.8827 C   0  0  0  0  0  0  0  0  0  0  0  0
    4.3160   -1.3444    0.8981 C   0  0  0  0  0  0  0  0  0  0  0  0
    4.4438    0.7831    2.1848 C   0  0  0  0  0  0  0  0  0  0  0  0
    7.0165    1.6599   -2.0610 O   0  0  0  0  0  0  0  0  0  0  0  0
    8.1569    2.5129   -2.2064 C   0  0  0  0  0  0  0  0  0  0  0  0
    9.4008    2.1327   -1.3380 C   0  0  1  0  0  0  0  0  0  0  0  0
    9.4345    2.7634   -0.0747 O   0  0  0  0  0  0  0  0  0  0  0  0
    9.3707    0.6187   -1.1418 C   0  0  2  0  0  0  0  0  0  0  0  0
    9.4104   -0.0277   -2.3984 O   0  0  0  0  0  0  0  0  0  0  0  0
    8.4759   -0.6643    4.1758 H   0  0  0  0  0  0  0  0  0  0  0  0
    7.8022    0.9379    3.6802 H   0  0  0  0  0  0  0  0  0  0  0  0
    9.5646    0.5984    3.4756 H   0  0  0  0  0  0  0  0  0  0  0  0
    7.9111   -0.8252   -0.4905 H   0  0  0  0  0  0  0  0  0  0  0  0
    6.7958    1.9864   -0.0495 H   0  0  0  0  0  0  0  0  0  0  0  0
    4.6964    2.0005   -0.0528 H   0  0  0  0  0  0  0  0  0  0  0  0
    4.1854    1.3764   -2.4727 H   0  0  0  0  0  0  0  0  0  0  0  0
    2.8873    1.9284   -1.3909 H   0  0  0  0  0  0  0  0  0  0  0  0
    3.4076   -0.9961   -2.0303 H   0  0  0  0  0  0  0  0  0  0  0  0
    2.1130    0.0386   -2.7155 H   0  0  0  0  0  0  0  0  0  0  0  0
    1.5008   -2.3771    0.4886 H   0  0  0  0  0  0  0  0  0  0  0  0
    1.5940   -2.4752   -1.4337 H   0  0  0  0  0  0  0  0  0  0  0  0
    0.2912   -1.2864   -2.8799 H   0  0  0  0  0  0  0  0  0  0  0  0
   -0.2636    0.2657   -2.3826 H   0  0  0  0  0  0  0  0  0  0  0  0
   -1.8708   -2.1961   -2.7341 H   0  0  0  0  0  0  0  0  0  0  0  0
   -2.2807   -0.4860   -2.8406 H   0  0  0  0  0  0  0  0  0  0  0  0
   -2.8056   -3.5431   -0.9958 H   0  0  0  0  0  0  0  0  0  0  0  0
   -2.8069   -2.9707    0.6969 H   0  0  0  0  0  0  0  0  0  0  0  0
   -1.2824   -3.1209   -0.2589 H   0  0  0  0  0  0  0  0  0  0  0  0
   -4.1950   -0.1544   -1.5757 H   0  0  0  0  0  0  0  0  0  0  0  0
   -5.0072   -3.0009   -0.6290 H   0  0  0  0  0  0  0  0  0  0  0  0
   -5.0921   -1.6560   -3.4171 H   0  0  0  0  0  0  0  0  0  0  0  0
   -5.7627   -3.2760   -2.9821 H   0  0  0  0  0  0  0  0  0  0  0  0
   -3.9978   -3.0061   -2.9314 H   0  0  0  0  0  0  0  0  0  0  0  0
   -7.2908   -2.1983   -1.3110 H   0  0  0  0  0  0  0  0  0  0  0  0
   -6.5489   -0.5753   -1.6253 H   0  0  0  0  0  0  0  0  0  0  0  0
   -7.2338   -1.9571    0.9758 H   0  0  0  0  0  0  0  0  0  0  0  0
   -6.8841    1.0125    0.1942 H   0  0  0  0  0  0  0  0  0  0  0  0
   -7.2655    0.9211    4.6486 H   0  0  0  0  0  0  0  0  0  0  0  0
   -7.1661    2.7098    4.4130 H   0  0  0  0  0  0  0  0  0  0  0  0
   -5.6514    1.7299    4.5566 H   0  0  0  0  0  0  0  0  0  0  0  0
   -8.9263    2.5103    0.2708 H   0  0  0  0  0  0  0  0  0  0  0  0
   -9.4233    1.8438    1.8674 H   0  0  0  0  0  0  0  0  0  0  0  0
  -10.5606    1.7789    0.4893 H   0  0  0  0  0  0  0  0  0  0  0  0
   -8.5547    0.9590   -1.7142 H   0  0  0  0  0  0  0  0  0  0  0  0
  -10.2231    0.3548   -1.4085 H   0  0  0  0  0  0  0  0  0  0  0  0
   -8.9156   -0.8065   -1.5547 H   0  0  0  0  0  0  0  0  0  0  0  0
   -9.6308   -0.5632    1.9593 H   0  0  0  0  0  0  0  0  0  0  0  0
   -4.7278    0.6383    0.4345 H   0  0  0  0  0  0  0  0  0  0  0  0
   -1.8816    1.8977    0.5750 H   0  0  0  0  0  0  0  0  0  0  0  0
   -3.0030    1.5091   -0.7247 H   0  0  0  0  0  0  0  0  0  0  0  0
   -1.2666    1.4631   -1.0188 H   0  0  0  0  0  0  0  0  0  0  0  0
   -0.5821   -1.6703    1.1234 H   0  0  0  0  0  0  0  0  0  0  0  0
   -0.5397    0.0954    2.6786 H   0  0  0  0  0  0  0  0  0  0  0  0
    0.0101    1.2967    1.4707 H   0  0  0  0  0  0  0  0  0  0  0  0
    1.6321   -1.1838    2.3059 H   0  0  0  0  0  0  0  0  0  0  0  0
    1.8392    0.4934    2.8882 H   0  0  0  0  0  0  0  0  0  0  0  0
    2.1434    1.3708    0.6712 H   0  0  0  0  0  0  0  0  0  0  0  0
    3.8436   -1.8819    1.7459 H   0  0  0  0  0  0  0  0  0  0  0  0
    5.4152   -1.4457    1.0175 H   0  0  0  0  0  0  0  0  0  0  0  0
    4.0552   -1.8731   -0.0368 H   0  0  0  0  0  0  0  0  0  0  0  0
    4.0786    0.2410    3.0824 H   0  0  0  0  0  0  0  0  0  0  0  0
    4.1412    1.8486    2.2665 H   0  0  0  0  0  0  0  0  0  0  0  0
    5.5533    0.7342    2.1995 H   0  0  0  0  0  0  0  0  0  0  0  0
    7.8943    3.5889   -2.1136 H   0  0  0  0  0  0  0  0  0  0  0  0
    8.4744    2.3671   -3.2610 H   0  0  0  0  0  0  0  0  0  0  0  0
   10.3166    2.4575   -1.8794 H   0  0  0  0  0  0  0  0  0  0  0  0
    8.6334    3.3323    0.0462 H   0  0  0  0  0  0  0  0  0  0  0  0
   10.2589    0.2592   -0.5782 H   0  0  0  0  0  0  0  0  0  0  0  0
    8.4887   -0.2424   -2.6997 H   0  0  0  0  0  0  0  0  0  0  0  0
  1  2  1  0  0  0  0
  1 51  1  0  0  0  0
  1 52  1  0  0  0  0
  1 53  1  0  0  0  0
  2  3  2  0  0  0  0
  2  4  1  0  0  0  0
  5  4  1  0  0  0  0
  5  6  1  0  0  0  0
  5 54  1  6  0  0  0
  6  7  1  0  0  0  0
  6 45  1  0  0  0  0
  6 55  1  1  0  0  0
  8  7  1  0  0  0  0
  8  9  1  0  0  0  0
  8 56  1  1  0  0  0
  9 10  1  0  0  0  0
  9 57  1  0  0  0  0
  9 58  1  0  0  0  0
 10 59  1  0  0  0  0
 10 60  1  0  0  0  0
 11 10  1  6  0  0  0
 11 12  1  0  0  0  0
 12 61  1  0  0  0  0
 12 62  1  0  0  0  0
 13 12  1  1  0  0  0
 13 14  1  0  0  0  0
 13 11  1  0  0  0  0
 14 15  1  0  0  0  0
 14 63  1  0  0  0  0
 14 64  1  0  0  0  0
 15 16  1  0  0  0  0
 15 65  1  0  0  0  0
 15 66  1  0  0  0  0
 16 17  1  1  0  0  0
 16 18  1  0  0  0  0
 17 67  1  0  0  0  0
 17 68  1  0  0  0  0
 17 69  1  0  0  0  0
 18 19  1  0  0  0  0
 18 70  1  6  0  0  0
 19 20  1  0  0  0  0
 19 21  1  0  0  0  0
 19 71  1  1  0  0  0
 20 72  1  0  0  0  0
 20 73  1  0  0  0  0
 20 74  1  0  0  0  0
 21 75  1  0  0  0  0
 21 76  1  0  0  0  0
 22 21  1  0  0  0  0
 22 23  1  0  0  0  0
 22 32  1  0  0  0  0
 22 77  1  1  0  0  0
 23 24  1  0  0  0  0
 23 28  1  0  0  0  0
 23 78  1  6  0  0  0
 24 25  1  0  0  0  0
 25 26  1  0  0  0  0
 25 27  2  0  0  0  0
 26 79  1  0  0  0  0
 26 80  1  0  0  0  0
 26 81  1  0  0  0  0
 28 29  1  0  0  0  0
 28 30  1  0  0  0  0
 28 31  1  0  0  0  0
 29 82  1  0  0  0  0
 29 83  1  0  0  0  0
 29 84  1  0  0  0  0
 30 85  1  0  0  0  0
 30 86  1  0  0  0  0
 30 87  1  0  0  0  0
 31 88  1  0  0  0  0
 33 32  1  0  0  0  0
 33 34  1  0  0  0  0
 33 18  1  0  0  0  0
 33 89  1  6  0  0  0
 34 35  2  0  0  0  0
 34 36  1  0  0  0  0
 36 37  1  6  0  0  0
 36 38  1  0  0  0  0
 36 16  1  0  0  0  0
 37 90  1  0  0  0  0
 37 91  1  0  0  0  0
 37 92  1  0  0  0  0
 38 39  1  0  0  0  0
 38 13  1  0  0  0  0
 38 93  1  1  0  0  0
 39 40  1  0  0  0  0
 39 94  1  0  0  0  0
 39 95  1  0  0  0  0
 40 96  1  0  0  0  0
 40 97  1  0  0  0  0
 41 40  1  0  0  0  0
 41 42  1  0  0  0  0
 41 11  1  0  0  0  0
 41 98  1  6  0  0  0
 42 43  1  0  0  0  0
 42 44  1  0  0  0  0
 42  8  1  0  0  0  0
 43 99  1  0  0  0  0
 43100  1  0  0  0  0
 43101  1  0  0  0  0
 44102  1  0  0  0  0
 44103  1  0  0  0  0
 44104  1  0  0  0  0
 45 46  1  0  0  0  0
 46 47  1  0  0  0  0
 46105  1  0  0  0  0
 46106  1  0  0  0  0
 47 48  1  0  0  0  0
 47 49  1  0  0  0  0
 47107  1  6  0  0  0
 48108  1  0  0  0  0
 49 50  1  0  0  0  0
 49  5  1  0  0  0  0
 49109  1  1  0  0  0
 50110  1  0  0  0  0
M  END
>  <IDENTIFIER>
CNP0223998.1

>  <Energy>
2874.41

$$$$
