
 OpenBabel09102518162D

 97101  0  0  0  0  0  0  0  0999 V2000
    2.6491   -0.9642    0.0000 C   0  0  0  0  0  0  0  0  0  0  0  0
    1.5000    0.0000    0.0000 C   0  0  1  0  0  0  0  0  0  0  0  0
    0.4797   -0.8126   -0.6508 O   0  0  0  0  0  0  0  0  0  0  0  0
   -0.7916   -1.1935   -0.0781 C   0  0  1  0  0  0  0  0  0  0  0  0
   -0.9570   -2.6366   -0.2380 O   0  0  0  0  0  0  0  0  0  0  0  0
   -2.2215   -3.2907    0.0740 C   0  0  1  0  0  0  0  0  0  0  0  0
   -3.4056   -3.0027   -0.9647 C   0  0  2  0  0  0  0  0  0  0  0  0
   -3.5507   -1.6523   -1.3110 O   0  0  0  0  0  0  0  0  0  0  0  0
   -4.8035   -3.6030   -0.4842 C   0  0  2  0  0  0  0  0  0  0  0  0
   -5.7286   -2.4414    0.0000 O   0  0  0  0  0  0  0  0  0  0  0  0
   -7.2286   -2.4414    0.0000 C   0  0  0  0  0  2  0  0  0  0  0  0
   -8.7286   -2.4414    0.0000 C   0  0  0  0  0  2  0  0  0  0  0  0
  -10.2286   -2.4414    0.0000 C   0  0  0  0  0  0  0  0  0  0  0  0
  -10.9326   -1.2336    0.0225 C   0  0  0  0  0  0  0  0  0  0  0  0
  -12.3302   -1.2389    0.0218 C   0  0  0  0  0  0  0  0  0  0  0  0
  -13.0346   -2.4545   -0.0012 C   0  0  0  0  0  0  0  0  0  0  0  0
  -14.3837   -2.4579   -0.0029 O   0  0  0  0  0  0  0  0  0  0  0  0
  -12.3237   -3.6697   -0.0234 C   0  0  0  0  0  0  0  0  0  0  0  0
  -12.9677   -4.8566   -0.0456 O   0  0  0  0  0  0  0  0  0  0  0  0
  -10.9243   -3.6565   -0.0222 C   0  0  0  0  0  0  0  0  0  0  0  0
   -4.4138   -4.7444    0.4373 O   0  0  0  0  0  0  0  0  0  0  0  0
   -3.3086   -5.7307    0.0000 C   0  0  1  0  0  0  0  0  0  0  0  0
   -4.0586   -7.0297    0.0000 C   0  0  0  0  0  0  0  0  0  0  0  0
   -4.8086   -8.3287    0.0000 O   0  0  0  0  0  0  0  0  0  0  0  0
   -6.1705   -8.6129    0.0477 C   0  0  2  0  0  0  0  0  0  0  0  0
   -6.4944   -9.3885   -1.0864 O   0  0  0  0  0  0  0  0  0  0  0  0
   -7.5625  -10.2979   -0.8129 C   0  0  2  0  0  0  0  0  0  0  0  0
   -6.9802  -11.6814   -0.4703 C   0  0  0  0  0  0  0  0  0  0  0  0
   -7.9978  -12.6325   -0.3347 O   0  0  0  0  0  0  0  0  0  0  0  0
   -8.5758   -9.7510    0.2592 C   0  0  1  0  0  0  0  0  0  0  0  0
   -9.8236  -10.3790    0.0984 O   0  0  0  0  0  0  0  0  0  0  0  0
   -8.6732   -8.2078    0.0635 C   0  0  2  0  0  0  0  0  0  0  0  0
   -9.1091   -7.9540   -1.2505 O   0  0  0  0  0  0  0  0  0  0  0  0
   -7.2552   -7.5449    0.2943 C   0  0  1  0  0  0  0  0  0  0  0  0
   -7.0956   -6.3932   -0.4944 O   0  0  0  0  0  0  0  0  0  0  0  0
   -1.9662   -4.9086    0.1500 C   0  0  1  0  0  0  0  0  0  0  0  0
   -1.2866   -5.2412    1.3073 O   0  0  0  0  0  0  0  0  0  0  0  0
    0.0618   -5.4131    1.3039 C   0  0  0  0  0  0  0  0  0  0  0  0
    0.7790   -4.4419    1.4858 O   0  0  0  0  0  0  0  0  0  0  0  0
    0.7027   -6.7234    1.0247 C   0  0  0  0  0  0  0  0  0  0  0  0
    0.0152   -7.8677    0.8443 C   0  0  0  0  0  0  0  0  0  0  0  0
    0.6476   -9.1959    0.5600 C   0  0  0  0  0  0  0  0  0  0  0  0
    2.0375   -9.3685    0.3732 C   0  0  0  0  0  0  0  0  0  0  0  0
    2.5720  -10.6332    0.1129 C   0  0  0  0  0  0  0  0  0  0  0  0
    1.7387  -11.7522    0.0328 C   0  0  0  0  0  0  0  0  0  0  0  0
    2.2916  -12.9611   -0.2165 O   0  0  0  0  0  0  0  0  0  0  0  0
    0.3543  -11.6034    0.2152 C   0  0  0  0  0  0  0  0  0  0  0  0
   -0.4535  -12.6815    0.1416 O   0  0  0  0  0  0  0  0  0  0  0  0
   -0.1820  -10.3287    0.4732 C   0  0  0  0  0  0  0  0  0  0  0  0
   -1.0265   -0.6653    1.3564 C   0  0  2  0  0  0  0  0  0  0  0  0
   -2.4083   -0.5901    1.6010 O   0  0  0  0  0  0  0  0  0  0  0  0
   -0.3876    0.7318    1.5117 C   0  0  1  0  0  0  0  0  0  0  0  0
   -0.7017    1.2539    2.7782 O   0  0  0  0  0  0  0  0  0  0  0  0
    1.1260    0.5357    1.4045 C   0  0  1  0  0  0  0  0  0  0  0  0
    1.8005    1.7426    1.6546 O   0  0  0  0  0  0  0  0  0  0  0  0
    2.2360   -1.6908    0.7362 H   0  0  0  0  0  0  0  0  0  0  0  0
    3.3912   -0.2749    0.4571 H   0  0  0  0  0  0  0  0  0  0  0  0
    3.4688   -1.6520    0.0000 H   0  0  0  0  0  0  0  0  0  0  0  0
    1.6723    0.8589   -0.6857 H   0  0  0  0  0  0  0  0  0  0  0  0
   -1.5038   -0.6565   -0.7296 H   0  0  0  0  0  0  0  0  0  0  0  0
   -2.5777   -2.9620    1.0716 H   0  0  0  0  0  0  0  0  0  0  0  0
   -3.0890   -3.5275   -1.8918 H   0  0  0  0  0  0  0  0  0  0  0  0
   -3.7388   -1.1539   -0.4757 H   0  0  0  0  0  0  0  0  0  0  0  0
   -5.3081   -4.0160   -1.3843 H   0  0  0  0  0  0  0  0  0  0  0  0
  -10.4008   -0.2904    0.0400 H   0  0  0  0  0  0  0  0  0  0  0  0
  -12.8656   -0.2984    0.0388 H   0  0  0  0  0  0  0  0  0  0  0  0
  -14.9015   -1.6408    0.0111 H   0  0  0  0  0  0  0  0  0  0  0  0
  -13.9292   -4.9264   -0.0468 H   0  0  0  0  0  0  0  0  0  0  0  0
  -10.3790   -4.5930   -0.0392 H   0  0  0  0  0  0  0  0  0  0  0  0
   -3.3762   -5.6222   -1.1136 H   0  0  0  0  0  0  0  0  0  0  0  0
   -3.9420   -7.0390    1.1060 H   0  0  0  0  0  0  0  0  0  0  0  0
   -3.1595   -7.5304   -0.4355 H   0  0  0  0  0  0  0  0  0  0  0  0
   -6.1935   -9.2719    0.9453 H   0  0  0  0  0  0  0  0  0  0  0  0
   -8.1209  -10.3813   -1.7710 H   0  0  0  0  0  0  0  0  0  0  0  0
   -6.2973  -11.9866   -1.2972 H   0  0  0  0  0  0  0  0  0  0  0  0
   -6.3946  -11.6194    0.4740 H   0  0  0  0  0  0  0  0  0  0  0  0
   -7.5372  -13.4998   -0.1815 H   0  0  0  0  0  0  0  0  0  0  0  0
   -8.1878   -9.9396    1.2893 H   0  0  0  0  0  0  0  0  0  0  0  0
  -10.1682  -10.5967    1.0038 H   0  0  0  0  0  0  0  0  0  0  0  0
   -9.3939   -7.7376    0.7705 H   0  0  0  0  0  0  0  0  0  0  0  0
  -10.0731   -8.1908   -1.2856 H   0  0  0  0  0  0  0  0  0  0  0  0
   -7.1357   -7.2533    1.3608 H   0  0  0  0  0  0  0  0  0  0  0  0
   -6.9256   -6.6894   -1.4262 H   0  0  0  0  0  0  0  0  0  0  0  0
   -1.3353   -5.1902   -0.7305 H   0  0  0  0  0  0  0  0  0  0  0  0
    1.7834   -6.7173    0.9757 H   0  0  0  0  0  0  0  0  0  0  0  0
   -1.0676   -7.8335    0.9189 H   0  0  0  0  0  0  0  0  0  0  0  0
    2.7302   -8.5433    0.4205 H   0  0  0  0  0  0  0  0  0  0  0  0
    3.6395  -10.7454   -0.0296 H   0  0  0  0  0  0  0  0  0  0  0  0
    1.7684  -13.7727   -0.2820 H   0  0  0  0  0  0  0  0  0  0  0  0
   -1.4115  -12.6199    0.2653 H   0  0  0  0  0  0  0  0  0  0  0  0
   -1.2517  -10.2275    0.6136 H   0  0  0  0  0  0  0  0  0  0  0  0
   -0.5545   -1.3709    2.0801 H   0  0  0  0  0  0  0  0  0  0  0  0
   -2.5299   -0.5085    2.5822 H   0  0  0  0  0  0  0  0  0  0  0  0
   -0.7750    1.4146    0.7154 H   0  0  0  0  0  0  0  0  0  0  0  0
   -0.6359    2.2427    2.7053 H   0  0  0  0  0  0  0  0  0  0  0  0
    1.3817   -0.2025    2.2029 H   0  0  0  0  0  0  0  0  0  0  0  0
    2.7174    1.5052    1.9509 H   0  0  0  0  0  0  0  0  0  0  0  0
  1 56  1  0  0  0  0
  1 57  1  0  0  0  0
  1 58  1  0  0  0  0
  2  1  1  0  0  0  0
  2  3  1  0  0  0  0
  2 59  1  6  0  0  0
  3  4  1  0  0  0  0
  4  5  1  0  0  0  0
  4 50  1  0  0  0  0
  4 60  1  6  0  0  0
  6  5  1  0  0  0  0
  6  7  1  0  0  0  0
  6 61  1  1  0  0  0
  7  8  1  0  0  0  0
  7  9  1  0  0  0  0
  7 62  1  6  0  0  0
  8 63  1  0  0  0  0
  9 10  1  0  0  0  0
  9 21  1  0  0  0  0
  9 64  1  6  0  0  0
 10 11  1  0  0  0  0
 11 12  1  0  0  0  0
 12 13  1  0  0  0  0
 13 14  2  0  0  0  0
 14 15  1  0  0  0  0
 14 65  1  0  0  0  0
 15 16  2  0  0  0  0
 15 66  1  0  0  0  0
 16 17  1  0  0  0  0
 16 18  1  0  0  0  0
 17 67  1  0  0  0  0
 18 19  1  0  0  0  0
 18 20  2  0  0  0  0
 19 68  1  0  0  0  0
 20 13  1  0  0  0  0
 20 69  1  0  0  0  0
 21 22  1  0  0  0  0
 22 23  1  0  0  0  0
 22 36  1  0  0  0  0
 22 70  1  1  0  0  0
 23 24  1  0  0  0  0
 23 71  1  0  0  0  0
 23 72  1  0  0  0  0
 25 24  1  0  0  0  0
 25 26  1  0  0  0  0
 25 73  1  1  0  0  0
 26 27  1  0  0  0  0
 27 28  1  0  0  0  0
 27 30  1  0  0  0  0
 27 74  1  1  0  0  0
 28 29  1  0  0  0  0
 28 75  1  0  0  0  0
 28 76  1  0  0  0  0
 29 77  1  0  0  0  0
 30 31  1  0  0  0  0
 30 32  1  0  0  0  0
 30 78  1  6  0  0  0
 31 79  1  0  0  0  0
 32 33  1  0  0  0  0
 32 34  1  0  0  0  0
 32 80  1  1  0  0  0
 33 81  1  0  0  0  0
 34 35  1  0  0  0  0
 34 25  1  0  0  0  0
 34 82  1  6  0  0  0
 35 83  1  0  0  0  0
 36 37  1  0  0  0  0
 36  6  1  0  0  0  0
 36 84  1  1  0  0  0
 37 38  1  0  0  0  0
 38 39  2  0  0  0  0
 38 40  1  0  0  0  0
 40 41  2  0  0  0  0
 40 85  1  0  0  0  0
 41 42  1  0  0  0  0
 41 86  1  0  0  0  0
 42 43  2  0  0  0  0
 43 44  1  0  0  0  0
 43 87  1  0  0  0  0
 44 45  2  0  0  0  0
 44 88  1  0  0  0  0
 45 46  1  0  0  0  0
 45 47  1  0  0  0  0
 46 89  1  0  0  0  0
 47 48  1  0  0  0  0
 47 49  2  0  0  0  0
 48 90  1  0  0  0  0
 49 42  1  0  0  0  0
 49 91  1  0  0  0  0
 50 51  1  0  0  0  0
 50 52  1  0  0  0  0
 50 92  1  1  0  0  0
 51 93  1  0  0  0  0
 52 53  1  0  0  0  0
 52 54  1  0  0  0  0
 52 94  1  6  0  0  0
 53 95  1  0  0  0  0
 54 55  1  0  0  0  0
 54  2  1  0  0  0  0
 54 96  1  6  0  0  0
 55 97  1  0  0  0  0
M  END
>  <IDENTIFIER>
CNP0142639.3

>  <Energy>
3267.99

$$$$
