
 OpenBabel09082523283D

 51 54  0  0  0  0  0  0  0  0999 V2000
    0.8750    2.4201   -1.2365 O   0  0  0  0  0  0  0  0  0  0  0  0
   -0.1598    1.9776   -0.7666 C   0  0  0  0  0  0  0  0  0  0  0  0
   -0.3028    0.5042   -0.5092 C   0  0  0  0  0  0  0  0  0  0  0  0
    0.7295   -0.3573   -0.7573 O   0  0  0  0  0  0  0  0  0  0  0  0
    2.0732   -0.0867   -0.9527 C   0  0  2  0  0  0  0  0  0  0  0  0
    2.7689   -1.2664   -1.3205 O   0  0  0  0  0  0  0  0  0  0  0  0
    4.0810   -1.1596   -0.7778 C   0  0  2  0  0  0  0  0  0  0  0  0
    4.3467   -2.3667    0.1421 C   0  0  0  0  0  0  0  0  0  0  0  0
    4.3086   -3.5564   -0.5993 O   0  0  0  0  0  0  0  0  0  0  0  0
    4.1613    0.2098   -0.0846 C   0  0  2  0  0  0  0  0  0  0  0  0
    5.1320    0.3284    0.9275 O   0  0  0  0  0  0  0  0  0  0  0  0
    2.7314    0.4316    0.3324 C   0  0  2  0  0  0  0  0  0  0  0  0
    2.3983   -0.3900    1.4245 O   0  0  0  0  0  0  0  0  0  0  0  0
   -1.4693    0.0048    0.0097 C   0  0  0  0  0  0  0  0  0  0  0  0
   -1.7031   -1.4817    0.2729 C   0  0  0  0  0  0  0  0  0  0  0  0
   -2.6884   -1.8904    1.2059 C   0  0  0  0  0  0  0  0  0  0  0  0
   -2.9315   -3.2392    1.4689 C   0  0  0  0  0  0  0  0  0  0  0  0
   -2.2148   -4.2326    0.7998 C   0  0  0  0  0  0  0  0  0  0  0  0
   -2.4551   -5.5359    1.0549 O   0  0  0  0  0  0  0  0  0  0  0  0
   -1.2479   -3.8653   -0.1459 C   0  0  0  0  0  0  0  0  0  0  0  0
   -0.5497   -4.7985   -0.8279 O   0  0  0  0  0  0  0  0  0  0  0  0
   -0.9976   -2.5115   -0.4029 C   0  0  0  0  0  0  0  0  0  0  0  0
   -2.6237    0.9418    0.3697 C   0  0  0  0  0  0  0  0  0  0  0  0
   -2.4567    2.4030    0.0595 C   0  0  0  0  0  0  0  0  0  0  0  0
   -3.5299    3.2658    0.3364 C   0  0  0  0  0  0  0  0  0  0  0  0
   -3.4341    4.6342    0.0651 C   0  0  0  0  0  0  0  0  0  0  0  0
   -4.4639    5.4651    0.3250 O   0  0  0  0  0  0  0  0  0  0  0  0
   -2.2593    5.1465   -0.4833 C   0  0  0  0  0  0  0  0  0  0  0  0
   -1.1750    4.3014   -0.7624 C   0  0  0  0  0  0  0  0  0  0  0  0
   -0.0497    4.8254   -1.2939 O   0  0  0  0  0  0  0  0  0  0  0  0
   -1.2726    2.9127   -0.4901 C   0  0  0  0  0  0  0  0  0  0  0  0
    2.2094    0.6145   -1.8043 H   0  0  0  0  0  0  0  0  0  0  0  0
    4.8488   -1.1874   -1.5824 H   0  0  0  0  0  0  0  0  0  0  0  0
    3.6326   -2.4279    0.9903 H   0  0  0  0  0  0  0  0  0  0  0  0
    5.3631   -2.2777    0.5808 H   0  0  0  0  0  0  0  0  0  0  0  0
    3.3513   -3.7927   -0.7132 H   0  0  0  0  0  0  0  0  0  0  0  0
    4.3789    0.9777   -0.8644 H   0  0  0  0  0  0  0  0  0  0  0  0
    4.8190   -0.1749    1.7221 H   0  0  0  0  0  0  0  0  0  0  0  0
    2.5147    1.4932    0.5871 H   0  0  0  0  0  0  0  0  0  0  0  0
    1.4804   -0.1386    1.7058 H   0  0  0  0  0  0  0  0  0  0  0  0
   -3.2811   -1.1829    1.7624 H   0  0  0  0  0  0  0  0  0  0  0  0
   -3.6849   -3.5104    2.1983 H   0  0  0  0  0  0  0  0  0  0  0  0
   -3.1156   -5.8215    1.7023 H   0  0  0  0  0  0  0  0  0  0  0  0
   -0.6830   -5.7485   -0.7019 H   0  0  0  0  0  0  0  0  0  0  0  0
   -0.2654   -2.3101   -1.1639 H   0  0  0  0  0  0  0  0  0  0  0  0
   -2.8170    0.8812    1.4599 H   0  0  0  0  0  0  0  0  0  0  0  0
   -3.5190    0.5878   -0.1870 H   0  0  0  0  0  0  0  0  0  0  0  0
   -4.4446    2.8696    0.7620 H   0  0  0  0  0  0  0  0  0  0  0  0
   -5.2971    5.1498    0.7036 H   0  0  0  0  0  0  0  0  0  0  0  0
   -2.1884    6.2072   -0.6928 H   0  0  0  0  0  0  0  0  0  0  0  0
    0.0403    5.7680   -1.4935 H   0  0  0  0  0  0  0  0  0  0  0  0
  1  2  2  0  0  0  0
  2  3  1  0  0  0  0
  3  4  1  0  0  0  0
  3 14  2  0  0  0  0
  5  4  1  0  0  0  0
  5  6  1  0  0  0  0
  5 32  1  6  0  0  0
  6  7  1  0  0  0  0
  7  8  1  0  0  0  0
  7 10  1  0  0  0  0
  7 33  1  6  0  0  0
  8  9  1  0  0  0  0
  8 34  1  0  0  0  0
  8 35  1  0  0  0  0
  9 36  1  0  0  0  0
 10 11  1  0  0  0  0
 10 12  1  0  0  0  0
 10 37  1  6  0  0  0
 11 38  1  0  0  0  0
 12 13  1  0  0  0  0
 12  5  1  0  0  0  0
 12 39  1  1  0  0  0
 13 40  1  0  0  0  0
 14 15  1  0  0  0  0
 14 23  1  0  0  0  0
 15 16  2  0  0  0  0
 16 17  1  0  0  0  0
 16 41  1  0  0  0  0
 17 18  2  0  0  0  0
 17 42  1  0  0  0  0
 18 19  1  0  0  0  0
 18 20  1  0  0  0  0
 19 43  1  0  0  0  0
 20 21  1  0  0  0  0
 20 22  2  0  0  0  0
 21 44  1  0  0  0  0
 22 15  1  0  0  0  0
 22 45  1  0  0  0  0
 23 24  1  0  0  0  0
 23 46  1  0  0  0  0
 23 47  1  0  0  0  0
 24 25  2  0  0  0  0
 25 26  1  0  0  0  0
 25 48  1  0  0  0  0
 26 27  1  0  0  0  0
 26 28  2  0  0  0  0
 27 49  1  0  0  0  0
 28 29  1  0  0  0  0
 28 50  1  0  0  0  0
 29 30  1  0  0  0  0
 29 31  2  0  0  0  0
 30 51  1  0  0  0  0
 31  2  1  0  0  0  0
 31 24  1  0  0  0  0
M  END
>  <IDENTIFIER>
CNP0343476.1

>  <Energy>
495.108

$$$$
