
 OpenBabel09072520293D

 56 58  0  0  0  0  0  0  0  0999 V2000
    0.8247    2.0221   -1.3308 O   0  0  0  0  0  0  0  0  0  0  0  0
    1.3808    0.9419   -1.1934 C   0  0  0  0  0  0  0  0  0  0  0  0
    2.5992    0.9041   -0.3122 C   0  0  0  0  0  0  0  0  0  0  0  0
    3.2178    2.0698   -0.0249 O   0  0  0  0  0  0  0  0  0  0  0  0
    3.0384   -0.2590    0.2342 C   0  0  0  0  0  0  0  0  0  0  0  0
    4.2163   -0.4767    1.1372 C   0  0  0  0  0  0  0  0  0  0  0  0
    4.4030   -1.7769    1.6440 C   0  0  0  0  0  0  0  0  0  0  0  0
    5.4727   -2.0752    2.4895 C   0  0  0  0  0  0  0  0  0  0  0  0
    6.3886   -1.0805    2.8485 C   0  0  0  0  0  0  0  0  0  0  0  0
    7.4236   -1.3701    3.6649 O   0  0  0  0  0  0  0  0  0  0  0  0
    6.2249    0.2231    2.3517 C   0  0  0  0  0  0  0  0  0  0  0  0
    7.0927    1.2063    2.6737 O   0  0  0  0  0  0  0  0  0  0  0  0
    5.1482    0.5204    1.5050 C   0  0  0  0  0  0  0  0  0  0  0  0
    0.7555   -0.2623   -1.8428 C   0  0  0  0  0  0  0  0  0  0  0  0
    1.5271   -1.3051   -2.4314 C   0  0  0  0  0  0  0  0  0  0  0  0
    2.8743   -1.2576   -2.5316 O   0  0  0  0  0  0  0  0  0  0  0  0
    0.8932   -2.4171   -2.9859 C   0  0  0  0  0  0  0  0  0  0  0  0
   -0.4978   -2.5240   -2.9961 C   0  0  0  0  0  0  0  0  0  0  0  0
   -1.0902   -3.6022   -3.5513 O   0  0  0  0  0  0  0  0  0  0  0  0
   -1.2804   -1.4992   -2.4445 C   0  0  0  0  0  0  0  0  0  0  0  0
   -2.6289   -1.5842   -2.4774 O   0  0  0  0  0  0  0  0  0  0  0  0
   -0.6603   -0.3671   -1.8682 C   0  0  0  0  0  0  0  0  0  0  0  0
   -1.4042    0.6326   -1.3216 O   0  0  0  0  0  0  0  0  0  0  0  0
   -2.4981    0.4664   -0.4904 C   0  0  2  0  0  0  0  0  0  0  0  0
   -3.6929    0.7451   -1.2301 O   0  0  0  0  0  0  0  0  0  0  0  0
   -4.7318    1.4157   -0.5100 C   0  0  1  0  0  0  0  0  0  0  0  0
   -6.0570    1.1744   -1.2490 C   0  0  0  0  0  0  0  0  0  0  0  0
   -7.1048    1.8932   -0.6527 O   0  0  0  0  0  0  0  0  0  0  0  0
   -4.8297    0.9630    0.9749 C   0  0  1  0  0  0  0  0  0  0  0  0
   -5.2432   -0.3825    1.0661 O   0  0  0  0  0  0  0  0  0  0  0  0
   -3.4771    1.1757    1.7133 C   0  0  2  0  0  0  0  0  0  0  0  0
   -3.5354    2.2267    2.6470 O   0  0  0  0  0  0  0  0  0  0  0  0
   -2.3004    1.3791    0.7331 C   0  0  2  0  0  0  0  0  0  0  0  0
   -2.2386    2.7115    0.2815 O   0  0  0  0  0  0  0  0  0  0  0  0
    2.9306    2.9207   -0.3840 H   0  0  0  0  0  0  0  0  0  0  0  0
    2.4658   -1.1543    0.0189 H   0  0  0  0  0  0  0  0  0  0  0  0
    3.7137   -2.5724    1.3866 H   0  0  0  0  0  0  0  0  0  0  0  0
    5.5884   -3.0842    2.8653 H   0  0  0  0  0  0  0  0  0  0  0  0
    7.5648   -2.2580    4.0235 H   0  0  0  0  0  0  0  0  0  0  0  0
    7.8566    1.0630    3.2499 H   0  0  0  0  0  0  0  0  0  0  0  0
    5.0799    1.5334    1.1525 H   0  0  0  0  0  0  0  0  0  0  0  0
    3.4091   -0.4829   -2.3220 H   0  0  0  0  0  0  0  0  0  0  0  0
    1.4923   -3.2016   -3.4330 H   0  0  0  0  0  0  0  0  0  0  0  0
   -0.5827   -4.3234   -3.9501 H   0  0  0  0  0  0  0  0  0  0  0  0
   -3.1035   -2.3307   -2.8685 H   0  0  0  0  0  0  0  0  0  0  0  0
   -2.5342   -0.5867   -0.1342 H   0  0  0  0  0  0  0  0  0  0  0  0
   -4.5387    2.5099   -0.5455 H   0  0  0  0  0  0  0  0  0  0  0  0
   -6.2936    0.0855   -1.2946 H   0  0  0  0  0  0  0  0  0  0  0  0
   -5.9594    1.5167   -2.3012 H   0  0  0  0  0  0  0  0  0  0  0  0
   -7.5584    1.2748   -0.0213 H   0  0  0  0  0  0  0  0  0  0  0  0
   -5.6154    1.5509    1.4973 H   0  0  0  0  0  0  0  0  0  0  0  0
   -4.6047   -0.9493    0.5658 H   0  0  0  0  0  0  0  0  0  0  0  0
   -3.2908    0.2462    2.2956 H   0  0  0  0  0  0  0  0  0  0  0  0
   -3.8858    3.0287    2.1775 H   0  0  0  0  0  0  0  0  0  0  0  0
   -1.3430    1.1236    1.2482 H   0  0  0  0  0  0  0  0  0  0  0  0
   -1.6750    3.2155    0.9249 H   0  0  0  0  0  0  0  0  0  0  0  0
  1  2  2  0  0  0  0
  2  3  1  0  0  0  0
  2 14  1  0  0  0  0
  3  4  1  0  0  0  0
  3  5  2  0  0  0  0
  4 35  1  0  0  0  0
  5  6  1  0  0  0  0
  5 36  1  0  0  0  0
  6  7  2  0  0  0  0
  7  8  1  0  0  0  0
  7 37  1  0  0  0  0
  8  9  2  0  0  0  0
  8 38  1  0  0  0  0
  9 10  1  0  0  0  0
  9 11  1  0  0  0  0
 10 39  1  0  0  0  0
 11 12  1  0  0  0  0
 11 13  2  0  0  0  0
 12 40  1  0  0  0  0
 13  6  1  0  0  0  0
 13 41  1  0  0  0  0
 14 15  2  0  0  0  0
 15 16  1  0  0  0  0
 15 17  1  0  0  0  0
 16 42  1  0  0  0  0
 17 18  2  0  0  0  0
 17 43  1  0  0  0  0
 18 19  1  0  0  0  0
 18 20  1  0  0  0  0
 19 44  1  0  0  0  0
 20 21  1  0  0  0  0
 20 22  2  0  0  0  0
 21 45  1  0  0  0  0
 22 23  1  0  0  0  0
 22 14  1  0  0  0  0
 24 23  1  0  0  0  0
 24 25  1  0  0  0  0
 24 46  1  1  0  0  0
 25 26  1  0  0  0  0
 26 27  1  0  0  0  0
 26 29  1  0  0  0  0
 26 47  1  6  0  0  0
 27 28  1  0  0  0  0
 27 48  1  0  0  0  0
 27 49  1  0  0  0  0
 28 50  1  0  0  0  0
 29 30  1  0  0  0  0
 29 31  1  0  0  0  0
 29 51  1  1  0  0  0
 30 52  1  0  0  0  0
 31 32  1  0  0  0  0
 31 33  1  0  0  0  0
 31 53  1  1  0  0  0
 32 54  1  0  0  0  0
 33 34  1  0  0  0  0
 33 24  1  0  0  0  0
 33 55  1  1  0  0  0
 34 56  1  0  0  0  0
M  END
>  <IDENTIFIER>
CNP0425864.2

>  <Energy>
663.753

$$$$
