
 OpenBabel09052500462D

179178  0  0  0  0  0  0  0  0999 V2000
   -4.5000   -7.7942    0.0000 C   0  0  0  0  0  0  0  0  0  0  0  0
   -3.7500   -6.4952    0.0000 C   0  0  0  0  0  0  0  0  0  0  0  0
   -3.0000   -5.1962    0.0000 C   0  0  0  0  0  0  0  0  0  0  0  0
   -2.9394   -3.6541    0.0029 C   0  0  0  0  0  0  0  0  0  0  0  0
   -1.3975   -3.1991   -0.0287 C   0  0  0  0  0  0  0  0  0  0  0  0
   -1.2495   -1.6745   -0.0335 C   0  0  0  0  0  0  0  0  0  0  0  0
    0.0615   -0.8531   -0.1031 C   0  0  0  0  0  0  0  0  0  0  0  0
    1.4472   -0.8525   -0.1614 C   0  0  0  0  0  0  0  0  0  0  0  0
    2.7597   -1.6739   -0.1877 C   0  0  0  0  0  0  0  0  0  0  0  0
    2.9075   -3.1936   -0.0759 C   0  0  0  0  0  0  0  0  0  0  0  0
    4.4450   -3.6603   -0.1496 C   0  0  0  0  0  0  0  0  0  0  0  0
    4.5000   -5.1962    0.0000 C   0  0  0  0  0  0  0  0  0  0  0  0
    5.2500   -6.4952    0.0000 C   0  0  0  0  0  0  0  0  0  0  0  0
    6.0000   -7.7942    0.0000 C   0  0  0  0  0  0  0  0  0  0  0  0
    6.7500   -9.0933    0.0000 C   0  0  0  0  0  0  0  0  0  0  0  0
    7.5000  -10.3923    0.0000 C   0  0  0  0  0  0  0  0  0  0  0  0
    8.2500  -11.6913    0.0000 C   0  0  0  0  0  0  0  0  0  0  0  0
    7.6707  -13.2846    0.2018 C   0  0  0  0  0  0  0  0  0  0  0  0
    6.9583  -13.4056    1.1850 O   0  0  0  0  0  0  0  0  0  0  0  0
    8.0251  -14.5628   -0.4744 O   0  0  0  0  0  0  0  0  0  0  0  0
    9.0000  -15.5885    0.0000 C   0  0  1  0  0  0  0  0  0  0  0  0
    9.7500  -16.8875    0.0000 C   0  0  0  0  0  2  0  0  0  0  0  0
   10.5000  -18.1865    0.0000 O   0  0  0  0  0  0  0  0  0  0  0  0
    9.7500  -19.4856    0.0000 C   0  0  0  0  0  0  0  0  0  0  0  0
    8.5294  -19.4948    0.0002 O   0  0  0  0  0  0  0  0  0  0  0  0
   10.5000  -20.7846    0.0000 C   0  0  0  0  0  2  0  0  0  0  0  0
   11.2500  -22.0836    0.0000 C   0  0  0  0  0  0  0  0  0  0  0  0
   11.7652  -23.6346   -0.3948 C   0  0  0  0  0  0  0  0  0  0  0  0
   13.0097  -24.4371    0.4464 C   0  0  0  0  0  0  0  0  0  0  0  0
   13.5000  -25.9808    0.0000 C   0  0  0  0  0  0  0  0  0  0  0  0
   14.2500  -27.2798    0.0000 C   0  0  0  0  0  0  0  0  0  0  0  0
   15.0000  -28.5788    0.0000 C   0  0  0  0  0  0  0  0  0  0  0  0
   15.3199  -30.2266    0.0681 C   0  0  0  0  0  0  0  0  0  0  0  0
   16.9023  -30.8337   -0.0818 C   0  0  0  0  0  0  0  0  0  0  0  0
   17.2500  -32.4760    0.0000 C   0  0  0  0  0  0  0  0  0  0  0  0
   18.0000  -33.7750    0.0000 C   0  0  0  0  0  2  0  0  0  0  0  0
   18.7500  -35.0740    0.0000 C   0  0  0  0  0  0  0  0  0  0  0  0
   20.2500  -35.0740    0.0000 C   0  0  0  0  0  0  0  0  0  0  0  0
   21.0000  -33.7750    0.0000 C   0  0  0  0  0  2  0  0  0  0  0  0
   21.7500  -32.4760    0.0000 C   0  0  0  0  0  0  0  0  0  0  0  0
   22.0991  -30.8341    0.0833 C   0  0  0  0  0  0  0  0  0  0  0  0
   23.6758  -30.2237   -0.1085 C   0  0  0  0  0  0  0  0  0  0  0  0
   24.0000  -28.5788    0.0000 C   0  0  0  0  0  0  0  0  0  0  0  0
   24.7500  -27.2798    0.0000 C   0  0  0  0  0  0  0  0  0  0  0  0
   25.5000  -25.9808    0.0000 C   0  0  0  0  0  0  0  0  0  0  0  0
   26.2500  -24.6817    0.0000 C   0  0  0  0  0  0  0  0  0  0  0  0
   10.3155  -14.6255   -0.2658 C   0  0  0  0  0  0  0  0  0  0  0  0
   11.6209  -14.7425    0.2975 O   0  0  0  0  0  0  0  0  0  0  0  0
   12.7814  -14.6485   -0.4766 C   0  0  0  0  0  0  0  0  0  0  0  0
   12.7298  -15.1019   -1.6180 O   0  0  0  0  0  0  0  0  0  0  0  0
   14.1962  -14.0885    0.0000 C   0  0  0  0  0  0  0  0  0  0  0  0
   15.4952  -13.3385    0.0000 C   0  0  0  0  0  0  0  0  0  0  0  0
   16.7942  -12.5885    0.0000 C   0  0  0  0  0  0  0  0  0  0  0  0
   18.0933  -11.8385    0.0000 C   0  0  0  0  0  0  0  0  0  0  0  0
   19.3923  -11.0885    0.0000 C   0  0  0  0  0  2  0  0  0  0  0  0
   20.6913  -10.3385    0.0000 C   0  0  0  0  0  0  0  0  0  0  0  0
   22.3386  -10.0079   -0.0080 C   0  0  0  0  0  0  0  0  0  0  0  0
   22.9412   -8.4191    0.0080 C   0  0  0  0  0  0  0  0  0  0  0  0
   24.5885   -8.0885    0.0000 C   0  0  0  0  0  0  0  0  0  0  0  0
   25.8875   -7.3385    0.0000 C   0  0  0  0  0  2  0  0  0  0  0  0
   27.1865   -6.5885    0.0000 C   0  0  0  0  0  0  0  0  0  0  0  0
   28.4856   -5.8385    0.0000 C   0  0  0  0  0  0  0  0  0  0  0  0
   29.7846   -5.0885    0.0000 C   0  0  0  0  0  2  0  0  0  0  0  0
   31.0836   -4.3385    0.0000 C   0  0  0  0  0  0  0  0  0  0  0  0
   32.6190   -3.7954   -0.4176 C   0  0  0  0  0  0  0  0  0  0  0  0
   33.4525   -2.6043    0.4700 C   0  0  0  0  0  0  0  0  0  0  0  0
   34.9808   -2.0885    0.0000 C   0  0  0  0  0  0  0  0  0  0  0  0
   36.2798   -1.3385    0.0000 C   0  0  0  0  0  0  0  0  0  0  0  0
   37.5788   -0.5885    0.0000 C   0  0  0  0  0  0  0  0  0  0  0  0
   38.8779    0.1615    0.0000 C   0  0  0  0  0  0  0  0  0  0  0  0
   40.1769    0.9115    0.0000 C   0  0  0  0  0  0  0  0  0  0  0  0
   -5.6103   -7.6638    0.0064 H   0  0  0  0  0  0  0  0  0  0  0  0
   -4.2233   -8.3899   -0.8982 H   0  0  0  0  0  0  0  0  0  0  0  0
   -4.2139   -8.3956    0.8915 H   0  0  0  0  0  0  0  0  0  0  0  0
   -4.3130   -6.1656   -0.9091 H   0  0  0  0  0  0  0  0  0  0  0  0
   -4.2993   -6.1725    0.9197 H   0  0  0  0  0  0  0  0  0  0  0  0
   -2.3536   -5.3984   -0.8895 H   0  0  0  0  0  0  0  0  0  0  0  0
   -2.3364   -5.4021    0.8759 H   0  0  0  0  0  0  0  0  0  0  0  0
   -3.4361   -3.2644    0.9173 H   0  0  0  0  0  0  0  0  0  0  0  0
   -3.4696   -3.2623   -0.8917 H   0  0  0  0  0  0  0  0  0  0  0  0
   -0.8615   -3.5985    0.8593 H   0  0  0  0  0  0  0  0  0  0  0  0
   -0.9078   -3.5948   -0.9449 H   0  0  0  0  0  0  0  0  0  0  0  0
   -1.8449   -1.3296   -0.9075 H   0  0  0  0  0  0  0  0  0  0  0  0
   -1.7735   -1.3177    0.8805 H   0  0  0  0  0  0  0  0  0  0  0  0
   -0.2806    0.1835   -0.1165 H   0  0  0  0  0  0  0  0  0  0  0  0
    1.7864    0.1840   -0.2130 H   0  0  0  0  0  0  0  0  0  0  0  0
    3.2660   -1.3862   -1.1351 H   0  0  0  0  0  0  0  0  0  0  0  0
    3.3714   -1.2655    0.6469 H   0  0  0  0  0  0  0  0  0  0  0  0
    2.4604   -3.5113    0.8910 H   0  0  0  0  0  0  0  0  0  0  0  0
    2.3292   -3.6601   -0.9027 H   0  0  0  0  0  0  0  0  0  0  0  0
    5.0379   -3.1879    0.6629 H   0  0  0  0  0  0  0  0  0  0  0  0
    4.8766   -3.3672   -1.1306 H   0  0  0  0  0  0  0  0  0  0  0  0
    3.7371   -5.4696   -0.7724 H   0  0  0  0  0  0  0  0  0  0  0  0
    3.9369   -5.3115    0.9628 H   0  0  0  0  0  0  0  0  0  0  0  0
    5.8841   -5.9605    0.7802 H   0  0  0  0  0  0  0  0  0  0  0  0
    5.6166   -6.2796   -1.0398 H   0  0  0  0  0  0  0  0  0  0  0  0
    5.6830   -7.9548    1.0747 H   0  0  0  0  0  0  0  0  0  0  0  0
    7.0341   -7.3079    0.0272 H   0  0  0  0  0  0  0  0  0  0  0  0
    7.0713   -8.9279   -1.0745 H   0  0  0  0  0  0  0  0  0  0  0  0
    5.7201   -9.5849   -0.0331 H   0  0  0  0  0  0  0  0  0  0  0  0
    6.9010  -10.9115   -0.8137 H   0  0  0  0  0  0  0  0  0  0  0  0
    7.1282  -10.6209    1.0325 H   0  0  0  0  0  0  0  0  0  0  0  0
    9.0007  -11.5798    0.8186 H   0  0  0  0  0  0  0  0  0  0  0  0
    8.8794  -11.7173   -0.9211 H   0  0  0  0  0  0  0  0  0  0  0  0
    8.8011  -15.5804    1.0925 H   0  0  0  0  0  0  0  0  0  0  0  0
   11.0794  -22.2929    1.0767 H   0  0  0  0  0  0  0  0  0  0  0  0
   12.2542  -21.6145   -0.0617 H   0  0  0  0  0  0  0  0  0  0  0  0
   12.0693  -23.6048   -1.4620 H   0  0  0  0  0  0  0  0  0  0  0  0
   10.8707  -24.2893   -0.3284 H   0  0  0  0  0  0  0  0  0  0  0  0
   13.9079  -23.7850    0.4032 H   0  0  0  0  0  0  0  0  0  0  0  0
   12.6934  -24.4893    1.5096 H   0  0  0  0  0  0  0  0  0  0  0  0
   12.4331  -26.3431    0.0082 H   0  0  0  0  0  0  0  0  0  0  0  0
   13.7527  -25.6739   -1.0438 H   0  0  0  0  0  0  0  0  0  0  0  0
   13.6168  -27.7345   -0.8163 H   0  0  0  0  0  0  0  0  0  0  0  0
   13.8314  -27.5225    1.0106 H   0  0  0  0  0  0  0  0  0  0  0  0
   15.5658  -28.4161   -0.9514 H   0  0  0  0  0  0  0  0  0  0  0  0
   15.7438  -28.3114    0.7902 H   0  0  0  0  0  0  0  0  0  0  0  0
   14.9272  -30.5888    1.0416 H   0  0  0  0  0  0  0  0  0  0  0  0
   14.7154  -30.7068   -0.7296 H   0  0  0  0  0  0  0  0  0  0  0  0
   17.5095  -30.3415    0.7067 H   0  0  0  0  0  0  0  0  0  0  0  0
   17.2859  -30.4763   -1.0606 H   0  0  0  0  0  0  0  0  0  0  0  0
   16.5173  -32.7861   -0.7740 H   0  0  0  0  0  0  0  0  0  0  0  0
   16.7502  -32.6502    0.9757 H   0  0  0  0  0  0  0  0  0  0  0  0
   18.2060  -36.0122    0.0000 H   0  0  0  0  0  0  0  0  0  0  0  0
   20.7940  -36.0122   -0.0000 H   0  0  0  0  0  0  0  0  0  0  0  0
   22.2410  -32.6469   -0.9807 H   0  0  0  0  0  0  0  0  0  0  0  0
   22.4895  -32.7887    0.7664 H   0  0  0  0  0  0  0  0  0  0  0  0
   21.7383  -30.4831    1.0728 H   0  0  0  0  0  0  0  0  0  0  0  0
   21.4732  -30.3373   -0.6879 H   0  0  0  0  0  0  0  0  0  0  0  0
   24.3111  -30.7258    0.6513 H   0  0  0  0  0  0  0  0  0  0  0  0
   24.0294  -30.5584   -1.1061 H   0  0  0  0  0  0  0  0  0  0  0  0
   23.1844  -28.2869   -0.7088 H   0  0  0  0  0  0  0  0  0  0  0  0
   23.5138  -28.4544    0.9999 H   0  0  0  0  0  0  0  0  0  0  0  0
   25.4765  -27.8456    0.6653 H   0  0  0  0  0  0  0  0  0  0  0  0
   25.0008  -27.4331   -1.0853 H   0  0  0  0  0  0  0  0  0  0  0  0
   26.5234  -26.4331   -0.1996 H   0  0  0  0  0  0  0  0  0  0  0  0
   25.3299  -25.8759    1.1069 H   0  0  0  0  0  0  0  0  0  0  0  0
   26.3445  -24.5923   -1.1114 H   0  0  0  0  0  0  0  0  0  0  0  0
   25.3876  -24.0208    0.2673 H   0  0  0  0  0  0  0  0  0  0  0  0
   26.7850  -23.7550    0.0000 H   0  0  0  0  0  0  0  0  0  0  0  0
   10.3994  -14.5413   -1.3728 H   0  0  0  0  0  0  0  0  0  0  0  0
   10.0646  -13.6048    0.0554 H   0  0  0  0  0  0  0  0  0  0  0  0
   14.5881  -15.1481   -0.0464 H   0  0  0  0  0  0  0  0  0  0  0  0
   13.9966  -13.3924   -0.8559 H   0  0  0  0  0  0  0  0  0  0  0  0
   15.9363  -13.9375   -0.8656 H   0  0  0  0  0  0  0  0  0  0  0  0
   15.7851  -13.8473    0.9625 H   0  0  0  0  0  0  0  0  0  0  0  0
   16.4618  -11.9915   -0.8990 H   0  0  0  0  0  0  0  0  0  0  0  0
   16.4424  -11.9465    0.8581 H   0  0  0  0  0  0  0  0  0  0  0  0
   18.4754  -12.4127   -0.8800 H   0  0  0  0  0  0  0  0  0  0  0  0
   18.4560  -12.3819    0.9072 H   0  0  0  0  0  0  0  0  0  0  0  0
   20.4406   -9.7031   -0.8749 H   0  0  0  0  0  0  0  0  0  0  0  0
   20.4537   -9.7258    0.8946 H   0  0  0  0  0  0  0  0  0  0  0  0
   22.7716  -10.5217    0.8759 H   0  0  0  0  0  0  0  0  0  0  0  0
   22.7584  -10.4987   -0.9111 H   0  0  0  0  0  0  0  0  0  0  0  0
   22.5214   -7.9283    0.9111 H   0  0  0  0  0  0  0  0  0  0  0  0
   22.5082   -7.9053   -0.8759 H   0  0  0  0  0  0  0  0  0  0  0  0
   24.8261   -8.7012   -0.8946 H   0  0  0  0  0  0  0  0  0  0  0  0
   24.8392   -8.7239    0.8749 H   0  0  0  0  0  0  0  0  0  0  0  0
   26.8173   -6.0327    0.8958 H   0  0  0  0  0  0  0  0  0  0  0  0
   26.8175   -6.0330   -0.8961 H   0  0  0  0  0  0  0  0  0  0  0  0
   28.8548   -6.3944   -0.8958 H   0  0  0  0  0  0  0  0  0  0  0  0
   28.8546   -6.3939    0.8961 H   0  0  0  0  0  0  0  0  0  0  0  0
   31.3326   -4.5781    1.0549 H   0  0  0  0  0  0  0  0  0  0  0  0
   30.6132   -3.3333    0.0206 H   0  0  0  0  0  0  0  0  0  0  0  0
   32.5501   -3.4244   -1.4616 H   0  0  0  0  0  0  0  0  0  0  0  0
   33.2754   -4.6910   -0.4323 H   0  0  0  0  0  0  0  0  0  0  0  0
   32.8010   -1.7055    0.5061 H   0  0  0  0  0  0  0  0  0  0  0  0
   33.5421   -2.9861    1.5090 H   0  0  0  0  0  0  0  0  0  0  0  0
   35.3344   -3.1572   -0.0721 H   0  0  0  0  0  0  0  0  0  0  0  0
   34.6366   -1.7721   -1.0146 H   0  0  0  0  0  0  0  0  0  0  0  0
   36.5620   -1.8532    0.9598 H   0  0  0  0  0  0  0  0  0  0  0  0
   36.6983   -1.9314   -0.8700 H   0  0  0  0  0  0  0  0  0  0  0  0
   37.2259    0.0158   -0.8905 H   0  0  0  0  0  0  0  0  0  0  0  0
   37.2127    0.0532    0.8547 H   0  0  0  0  0  0  0  0  0  0  0  0
   39.1790   -0.4652   -0.8938 H   0  0  0  0  0  0  0  0  0  0  0  0
   39.1918   -0.3671    0.9419 H   0  0  0  0  0  0  0  0  0  0  0  0
   40.9304    0.0768   -0.0797 H   0  0  0  0  0  0  0  0  0  0  0  0
   40.0144    1.4559   -0.9602 H   0  0  0  0  0  0  0  0  0  0  0  0
   41.1035    1.4465    0.0000 H   0  0  0  0  0  0  0  0  0  0  0  0
  1  2  1  0  0  0  0
  1 72  1  0  0  0  0
  1 73  1  0  0  0  0
  1 74  1  0  0  0  0
  2  3  1  0  0  0  0
  2 75  1  0  0  0  0
  2 76  1  0  0  0  0
  3  4  1  0  0  0  0
  3 77  1  0  0  0  0
  3 78  1  0  0  0  0
  4  5  1  0  0  0  0
  4 79  1  0  0  0  0
  4 80  1  0  0  0  0
  5  6  1  0  0  0  0
  5 81  1  0  0  0  0
  5 82  1  0  0  0  0
  6  7  1  0  0  0  0
  6 83  1  0  0  0  0
  6 84  1  0  0  0  0
  7  8  2  0  0  0  0
  7 85  1  0  0  0  0
  8  9  1  0  0  0  0
  8 86  1  0  0  0  0
  9 10  1  0  0  0  0
  9 87  1  0  0  0  0
  9 88  1  0  0  0  0
 10 11  1  0  0  0  0
 10 89  1  0  0  0  0
 10 90  1  0  0  0  0
 11 12  1  0  0  0  0
 11 91  1  0  0  0  0
 11 92  1  0  0  0  0
 12 13  1  0  0  0  0
 12 93  1  0  0  0  0
 12 94  1  0  0  0  0
 13 14  1  0  0  0  0
 13 95  1  0  0  0  0
 13 96  1  0  0  0  0
 14 15  1  0  0  0  0
 14 97  1  0  0  0  0
 14 98  1  0  0  0  0
 15 16  1  0  0  0  0
 15 99  1  0  0  0  0
 15100  1  0  0  0  0
 16 17  1  0  0  0  0
 16101  1  0  0  0  0
 16102  1  0  0  0  0
 17 18  1  0  0  0  0
 17103  1  0  0  0  0
 17104  1  0  0  0  0
 18 19  2  0  0  0  0
 18 20  1  0  0  0  0
 20 21  1  0  0  0  0
 21 22  1  0  0  0  0
 21 47  1  0  0  0  0
 21105  1  1  0  0  0
 22 23  1  0  0  0  0
 23 24  1  0  0  0  0
 24 25  2  0  0  0  0
 24 26  1  0  0  0  0
 26 27  1  0  0  0  0
 27 28  1  0  0  0  0
 27106  1  0  0  0  0
 27107  1  0  0  0  0
 28 29  1  0  0  0  0
 28108  1  0  0  0  0
 28109  1  0  0  0  0
 29 30  1  0  0  0  0
 29110  1  0  0  0  0
 29111  1  0  0  0  0
 30 31  1  0  0  0  0
 30112  1  0  0  0  0
 30113  1  0  0  0  0
 31 32  1  0  0  0  0
 31114  1  0  0  0  0
 31115  1  0  0  0  0
 32 33  1  0  0  0  0
 32116  1  0  0  0  0
 32117  1  0  0  0  0
 33 34  1  0  0  0  0
 33118  1  0  0  0  0
 33119  1  0  0  0  0
 34 35  1  0  0  0  0
 34120  1  0  0  0  0
 34121  1  0  0  0  0
 35 36  1  0  0  0  0
 35122  1  0  0  0  0
 35123  1  0  0  0  0
 36 37  1  0  0  0  0
 37 38  2  0  0  0  0
 37124  1  0  0  0  0
 38 39  1  0  0  0  0
 38125  1  0  0  0  0
 39 40  1  0  0  0  0
 40 41  1  0  0  0  0
 40126  1  0  0  0  0
 40127  1  0  0  0  0
 41 42  1  0  0  0  0
 41128  1  0  0  0  0
 41129  1  0  0  0  0
 42 43  1  0  0  0  0
 42130  1  0  0  0  0
 42131  1  0  0  0  0
 43 44  1  0  0  0  0
 43132  1  0  0  0  0
 43133  1  0  0  0  0
 44 45  1  0  0  0  0
 44134  1  0  0  0  0
 44135  1  0  0  0  0
 45 46  1  0  0  0  0
 45136  1  0  0  0  0
 45137  1  0  0  0  0
 46138  1  0  0  0  0
 46139  1  0  0  0  0
 46140  1  0  0  0  0
 47 48  1  0  0  0  0
 47141  1  0  0  0  0
 47142  1  0  0  0  0
 48 49  1  0  0  0  0
 49 50  2  0  0  0  0
 49 51  1  0  0  0  0
 51 52  1  0  0  0  0
 51143  1  0  0  0  0
 51144  1  0  0  0  0
 52 53  1  0  0  0  0
 52145  1  0  0  0  0
 52146  1  0  0  0  0
 53 54  1  0  0  0  0
 53147  1  0  0  0  0
 53148  1  0  0  0  0
 54 55  1  0  0  0  0
 54149  1  0  0  0  0
 54150  1  0  0  0  0
 55 56  1  0  0  0  0
 56 57  1  0  0  0  0
 56151  1  0  0  0  0
 56152  1  0  0  0  0
 57 58  1  0  0  0  0
 57153  1  0  0  0  0
 57154  1  0  0  0  0
 58 59  1  0  0  0  0
 58155  1  0  0  0  0
 58156  1  0  0  0  0
 59 60  1  0  0  0  0
 59157  1  0  0  0  0
 59158  1  0  0  0  0
 60 61  1  0  0  0  0
 61 62  1  0  0  0  0
 61159  1  0  0  0  0
 61160  1  0  0  0  0
 62 63  1  0  0  0  0
 62161  1  0  0  0  0
 62162  1  0  0  0  0
 63 64  1  0  0  0  0
 64 65  1  0  0  0  0
 64163  1  0  0  0  0
 64164  1  0  0  0  0
 65 66  1  0  0  0  0
 65165  1  0  0  0  0
 65166  1  0  0  0  0
 66 67  1  0  0  0  0
 66167  1  0  0  0  0
 66168  1  0  0  0  0
 67 68  1  0  0  0  0
 67169  1  0  0  0  0
 67170  1  0  0  0  0
 68 69  1  0  0  0  0
 68171  1  0  0  0  0
 68172  1  0  0  0  0
 69 70  1  0  0  0  0
 69173  1  0  0  0  0
 69174  1  0  0  0  0
 70 71  1  0  0  0  0
 70175  1  0  0  0  0
 70176  1  0  0  0  0
 71177  1  0  0  0  0
 71178  1  0  0  0  0
 71179  1  0  0  0  0
M  END
>  <IDENTIFIER>
CNP0511107.1

>  <Energy>
14713.4

$$$$
