
 OpenBabel09052517303D

 14 14  0  0  0  0  0  0  0  0999 V2000
   -2.5367   -0.1784    0.8224 N   0  0  0  0  0  0  0  0  0  0  0  0
   -1.5793   -0.2296   -0.6601 S   0  0  0  0  0  0  0  0  0  0  0  0
   -1.9888   -1.5401   -1.3487 O   0  0  0  0  0  0  0  0  0  0  0  0
   -2.1881    0.8457   -1.5732 O   0  0  0  0  0  0  0  0  0  0  0  0
    0.1877   -0.0746   -0.4558 C   0  0  0  0  0  0  0  0  0  0  0  0
    0.8422    0.0859    0.7541 C   0  0  0  0  0  0  0  0  0  0  0  0
    2.2304    0.1818    0.6116 C   0  0  0  0  0  0  0  0  0  0  0  0
    2.6591    0.0964   -0.7076 C   0  0  0  0  0  0  0  0  0  0  0  0
    1.3138   -0.0984   -1.7013 S   0  0  0  0  0  0  0  0  0  0  0  0
   -3.5467   -0.2063    0.5591 H   0  0  0  0  0  0  0  0  0  0  0  0
   -2.3520    0.7394    1.2852 H   0  0  0  0  0  0  0  0  0  0  0  0
    0.3347    0.1326    1.7081 H   0  0  0  0  0  0  0  0  0  0  0  0
    2.9037    0.3107    1.4487 H   0  0  0  0  0  0  0  0  0  0  0  0
    3.6878    0.1481   -1.0373 H   0  0  0  0  0  0  0  0  0  0  0  0
  1  2  1  0  0  0  0
  1 10  1  0  0  0  0
  1 11  1  0  0  0  0
  2  3  2  0  0  0  0
  2  4  2  0  0  0  0
  2  5  1  0  0  0  0
  5  6  2  0  0  0  0
  6  7  1  0  0  0  0
  6 12  1  0  0  0  0
  7  8  2  0  0  0  0
  7 13  1  0  0  0  0
  8  9  1  0  0  0  0
  8 14  1  0  0  0  0
  9  5  1  0  0  0  0
M  END
>  <IDENTIFIER>
CNP0205312.0

>  <Energy>
573.45

$$$$
