
 OpenBabel09042522342D

 93 97  0  0  0  0  0  0  0  0999 V2000
    2.6491   -0.9642    0.0000 C   0  0  0  0  0  0  0  0  0  0  0  0
    1.5000    0.0000    0.0000 C   0  0  2  0  0  0  0  0  0  0  0  0
    0.7037   -0.8049    0.9068 O   0  0  0  0  0  0  0  0  0  0  0  0
   -0.5526   -1.1805    0.3661 C   0  0  1  0  0  0  0  0  0  0  0  0
   -0.9940   -2.4091    1.0941 O   0  0  0  0  0  0  0  0  0  0  0  0
   -2.1455   -3.3094    0.8114 C   0  0  2  0  0  0  0  0  0  0  0  0
   -3.3231   -2.7569   -0.0206 C   0  0  1  0  0  0  0  0  0  0  0  0
   -3.4655   -1.3806    0.1195 O   0  0  0  0  0  0  0  0  0  0  0  0
   -4.6517   -3.4390    0.4209 C   0  0  2  0  0  0  0  0  0  0  0  0
   -5.7286   -2.4414    0.0000 O   0  0  0  0  0  0  0  0  0  0  0  0
   -7.2286   -2.4414    0.0000 C   0  0  0  0  0  2  0  0  0  0  0  0
   -8.7286   -2.4414    0.0000 C   0  0  0  0  0  2  0  0  0  0  0  0
  -10.2286   -2.4414    0.0000 C   0  0  0  0  0  0  0  0  0  0  0  0
  -10.9242   -1.2284   -0.0292 C   0  0  0  0  0  0  0  0  0  0  0  0
  -12.3212   -1.2220   -0.0262 C   0  0  0  0  0  0  0  0  0  0  0  0
  -13.0344   -2.4306    0.0063 C   0  0  0  0  0  0  0  0  0  0  0  0
  -14.3838   -2.4238    0.0108 O   0  0  0  0  0  0  0  0  0  0  0  0
  -12.3337   -3.6526    0.0348 C   0  0  0  0  0  0  0  0  0  0  0  0
  -12.9861   -4.8338    0.0663 O   0  0  0  0  0  0  0  0  0  0  0  0
  -10.9328   -3.6507    0.0315 C   0  0  0  0  0  0  0  0  0  0  0  0
   -4.5505   -4.8203   -0.1037 O   0  0  0  0  0  0  0  0  0  0  0  0
   -3.3086   -5.7307    0.0000 C   0  0  2  0  0  0  0  0  0  0  0  0
   -4.0586   -7.0297    0.0000 C   0  0  0  0  0  0  0  0  0  0  0  0
   -4.8086   -8.3287    0.0000 O   0  0  0  0  0  0  0  0  0  0  0  0
   -6.0615   -8.8023   -0.3929 C   0  0  2  0  0  0  0  0  0  0  0  0
   -6.2117   -9.9796    0.3821 O   0  0  0  0  0  0  0  0  0  0  0  0
   -7.2677  -10.8287   -0.0341 C   0  0  0  0  0  0  0  0  0  0  0  0
   -8.4189  -10.0847   -0.7501 C   0  0  1  0  0  0  0  0  0  0  0  0
   -9.5940  -10.8586   -0.7321 O   0  0  0  0  0  0  0  0  0  0  0  0
   -8.5888   -8.7249   -0.0508 C   0  0  2  0  0  0  0  0  0  0  0  0
   -9.6847   -8.0265   -0.5808 O   0  0  0  0  0  0  0  0  0  0  0  0
   -7.2800   -7.8711   -0.1754 C   0  0  1  0  0  0  0  0  0  0  0  0
   -7.1255   -7.0889    0.9776 O   0  0  0  0  0  0  0  0  0  0  0  0
   -2.0799   -4.9975    0.7782 C   0  0  1  0  0  0  0  0  0  0  0  0
   -0.9770   -5.6068    0.1923 O   0  0  0  0  0  0  0  0  0  0  0  0
    0.3264   -5.6392    0.5348 C   0  0  0  0  0  0  0  0  0  0  0  0
    0.8811   -4.6590    0.9999 O   0  0  0  0  0  0  0  0  0  0  0  0
    1.0720   -6.9288    0.3657 C   0  0  0  0  0  0  0  0  0  0  0  0
    0.4233   -8.0888    0.0880 C   0  0  0  0  0  0  0  0  0  0  0  0
    1.0555   -9.4490   -0.0117 C   0  0  0  0  0  0  0  0  0  0  0  0
    2.4420   -9.6529    0.0060 C   0  0  0  0  0  0  0  0  0  0  0  0
    2.9753  -10.9506   -0.0545 C   0  0  0  0  0  0  0  0  0  0  0  0
    2.1332  -12.0653   -0.1209 C   0  0  0  0  0  0  0  0  0  0  0  0
    2.6799  -13.2992   -0.1571 O   0  0  0  0  0  0  0  0  0  0  0  0
    0.7398  -11.8774   -0.1416 C   0  0  0  0  0  0  0  0  0  0  0  0
   -0.0777  -12.9535   -0.1980 O   0  0  0  0  0  0  0  0  0  0  0  0
    0.2042  -10.5784   -0.0925 C   0  0  0  0  0  0  0  0  0  0  0  0
   -1.2927    0.2433    0.4158 C   0  0  2  0  0  0  0  0  0  0  0  0
   -2.2436    0.2903    1.4424 O   0  0  0  0  0  0  0  0  0  0  0  0
   -0.3220    1.4986    0.7040 C   0  0  2  0  0  0  0  0  0  0  0  0
   -0.9458    2.7007    0.3312 O   0  0  0  0  0  0  0  0  0  0  0  0
    1.1882    1.4546    0.2430 C   0  0  1  0  0  0  0  0  0  0  0  0
    2.0016    1.9963    1.2491 O   0  0  0  0  0  0  0  0  0  0  0  0
    2.1613   -1.8376   -0.5041 H   0  0  0  0  0  0  0  0  0  0  0  0
    3.2659   -0.3964   -0.7312 H   0  0  0  0  0  0  0  0  0  0  0  0
    3.4688   -1.6520    0.0000 H   0  0  0  0  0  0  0  0  0  0  0  0
    1.1121   -0.0888   -1.0520 H   0  0  0  0  0  0  0  0  0  0  0  0
   -0.4139   -1.4966   -0.6934 H   0  0  0  0  0  0  0  0  0  0  0  0
   -2.6177   -3.1947    1.8100 H   0  0  0  0  0  0  0  0  0  0  0  0
   -3.1502   -2.9398   -1.1047 H   0  0  0  0  0  0  0  0  0  0  0  0
   -3.9264   -1.2063    0.9818 H   0  0  0  0  0  0  0  0  0  0  0  0
   -4.7310   -3.4833    1.5282 H   0  0  0  0  0  0  0  0  0  0  0  0
  -10.3853   -0.2891   -0.0536 H   0  0  0  0  0  0  0  0  0  0  0  0
  -12.8487   -0.2766   -0.0485 H   0  0  0  0  0  0  0  0  0  0  0  0
  -14.8947   -1.6018   -0.0058 H   0  0  0  0  0  0  0  0  0  0  0  0
  -13.9515   -4.8975    0.0707 H   0  0  0  0  0  0  0  0  0  0  0  0
  -10.3945   -4.5911    0.0542 H   0  0  0  0  0  0  0  0  0  0  0  0
   -2.9483   -5.6587   -1.0572 H   0  0  0  0  0  0  0  0  0  0  0  0
   -4.2498   -6.8686    1.0846 H   0  0  0  0  0  0  0  0  0  0  0  0
   -3.0856   -7.5553   -0.1218 H   0  0  0  0  0  0  0  0  0  0  0  0
   -5.9882   -9.1044   -1.4628 H   0  0  0  0  0  0  0  0  0  0  0  0
   -6.8875  -11.6811   -0.6368 H   0  0  0  0  0  0  0  0  0  0  0  0
   -7.6704  -11.2547    0.9117 H   0  0  0  0  0  0  0  0  0  0  0  0
   -8.1434   -9.8990   -1.8094 H   0  0  0  0  0  0  0  0  0  0  0  0
   -9.8371  -11.0225    0.2178 H   0  0  0  0  0  0  0  0  0  0  0  0
   -8.7619   -8.9791    1.0264 H   0  0  0  0  0  0  0  0  0  0  0  0
  -10.2062   -7.6743    0.1862 H   0  0  0  0  0  0  0  0  0  0  0  0
   -7.2928   -7.2170   -1.0777 H   0  0  0  0  0  0  0  0  0  0  0  0
   -7.8045   -6.3669    0.9136 H   0  0  0  0  0  0  0  0  0  0  0  0
   -2.1206   -5.3273    1.8391 H   0  0  0  0  0  0  0  0  0  0  0  0
    2.1388   -6.9231    0.5424 H   0  0  0  0  0  0  0  0  0  0  0  0
   -0.6570   -8.0564   -0.0338 H   0  0  0  0  0  0  0  0  0  0  0  0
    3.1369   -8.8278    0.0590 H   0  0  0  0  0  0  0  0  0  0  0  0
    4.0498  -11.0903   -0.0408 H   0  0  0  0  0  0  0  0  0  0  0  0
    2.1489  -14.1103   -0.1864 H   0  0  0  0  0  0  0  0  0  0  0  0
   -1.0425  -12.8711   -0.1948 H   0  0  0  0  0  0  0  0  0  0  0  0
   -0.8668  -10.4510   -0.1037 H   0  0  0  0  0  0  0  0  0  0  0  0
   -1.7744    0.3573   -0.5871 H   0  0  0  0  0  0  0  0  0  0  0  0
   -2.9068    0.9818    1.1747 H   0  0  0  0  0  0  0  0  0  0  0  0
   -0.2410    1.4650    1.8164 H   0  0  0  0  0  0  0  0  0  0  0  0
   -0.4049    3.4432    0.7053 H   0  0  0  0  0  0  0  0  0  0  0  0
    1.3425    2.0189   -0.7119 H   0  0  0  0  0  0  0  0  0  0  0  0
    2.8897    2.1599    0.8365 H   0  0  0  0  0  0  0  0  0  0  0  0
  1 54  1  0  0  0  0
  1 55  1  0  0  0  0
  1 56  1  0  0  0  0
  2  1  1  0  0  0  0
  2  3  1  0  0  0  0
  2 57  1  1  0  0  0
  3  4  1  0  0  0  0
  4  5  1  0  0  0  0
  4 48  1  0  0  0  0
  4 58  1  6  0  0  0
  6  5  1  0  0  0  0
  6  7  1  0  0  0  0
  6 59  1  6  0  0  0
  7  8  1  0  0  0  0
  7  9  1  0  0  0  0
  7 60  1  1  0  0  0
  8 61  1  0  0  0  0
  9 10  1  0  0  0  0
  9 21  1  0  0  0  0
  9 62  1  6  0  0  0
 10 11  1  0  0  0  0
 11 12  1  0  0  0  0
 12 13  1  0  0  0  0
 13 14  2  0  0  0  0
 14 15  1  0  0  0  0
 14 63  1  0  0  0  0
 15 16  2  0  0  0  0
 15 64  1  0  0  0  0
 16 17  1  0  0  0  0
 16 18  1  0  0  0  0
 17 65  1  0  0  0  0
 18 19  1  0  0  0  0
 18 20  2  0  0  0  0
 19 66  1  0  0  0  0
 20 13  1  0  0  0  0
 20 67  1  0  0  0  0
 21 22  1  0  0  0  0
 22 23  1  0  0  0  0
 22 34  1  0  0  0  0
 22 68  1  6  0  0  0
 23 24  1  0  0  0  0
 23 69  1  0  0  0  0
 23 70  1  0  0  0  0
 25 24  1  0  0  0  0
 25 26  1  0  0  0  0
 25 71  1  1  0  0  0
 26 27  1  0  0  0  0
 27 28  1  0  0  0  0
 27 72  1  0  0  0  0
 27 73  1  0  0  0  0
 28 29  1  0  0  0  0
 28 30  1  0  0  0  0
 28 74  1  6  0  0  0
 29 75  1  0  0  0  0
 30 31  1  0  0  0  0
 30 32  1  0  0  0  0
 30 76  1  1  0  0  0
 31 77  1  0  0  0  0
 32 33  1  0  0  0  0
 32 25  1  0  0  0  0
 32 78  1  6  0  0  0
 33 79  1  0  0  0  0
 34 35  1  0  0  0  0
 34  6  1  0  0  0  0
 34 80  1  1  0  0  0
 35 36  1  0  0  0  0
 36 37  2  0  0  0  0
 36 38  1  0  0  0  0
 38 39  2  0  0  0  0
 38 81  1  0  0  0  0
 39 40  1  0  0  0  0
 39 82  1  0  0  0  0
 40 41  2  0  0  0  0
 41 42  1  0  0  0  0
 41 83  1  0  0  0  0
 42 43  2  0  0  0  0
 42 84  1  0  0  0  0
 43 44  1  0  0  0  0
 43 45  1  0  0  0  0
 44 85  1  0  0  0  0
 45 46  1  0  0  0  0
 45 47  2  0  0  0  0
 46 86  1  0  0  0  0
 47 40  1  0  0  0  0
 47 87  1  0  0  0  0
 48 49  1  0  0  0  0
 48 50  1  0  0  0  0
 48 88  1  1  0  0  0
 49 89  1  0  0  0  0
 50 51  1  0  0  0  0
 50 52  1  0  0  0  0
 50 90  1  1  0  0  0
 51 91  1  0  0  0  0
 52 53  1  0  0  0  0
 52  2  1  0  0  0  0
 52 92  1  6  0  0  0
 53 93  1  0  0  0  0
M  END
>  <IDENTIFIER>
CNP0361097.2

>  <Energy>
3826.01

$$$$
