
 OpenBabel09132510233D

 50 51  0  0  0  0  0  0  0  0999 V2000
    6.1614   -0.9779   -0.1155 C   0  0  0  0  0  0  0  0  0  0  0  0
    5.9925    0.5005    0.2348 C   0  0  0  0  0  0  0  0  0  0  0  0
    4.9915    0.7181    1.3891 C   0  0  0  0  0  0  0  0  0  0  0  0
    3.5862    0.2352    1.0651 C   0  0  0  0  0  0  0  0  0  0  0  0
    3.0969   -0.8884    1.7457 C   0  0  0  0  0  0  0  0  0  0  0  0
    1.8238   -1.3739    1.4502 C   0  0  0  0  0  0  0  0  0  0  0  0
    1.3974   -2.3546    2.0330 O   0  0  0  0  0  0  0  0  0  0  0  0
    1.0735   -0.7808    0.5317 O   0  0  0  0  0  0  0  0  0  0  0  0
    1.4663    0.2976   -0.1442 C   0  0  0  0  0  0  0  0  0  0  0  0
    0.6032    0.8652   -1.1111 C   0  0  0  0  0  0  0  0  0  0  0  0
   -0.7413    0.2024   -1.3627 C   0  0  0  0  0  0  0  0  0  0  0  0
   -1.6108    0.3109   -0.1777 N   0  0  0  0  0  0  0  0  0  0  0  0
   -2.9605   -0.2455   -0.4141 C   0  0  1  0  0  0  0  0  0  0  0  0
   -3.6690   -0.4048    0.9568 C   0  0  0  0  0  0  0  0  0  0  0  0
   -5.0741   -1.0659    0.9409 C   0  0  0  0  0  0  0  0  0  0  0  0
   -5.6555   -1.0820    2.3608 C   0  0  0  0  0  0  0  0  0  0  0  0
   -5.0349   -2.4976    0.3856 C   0  0  0  0  0  0  0  0  0  0  0  0
   -3.7993    0.6018   -1.3794 C   0  0  0  0  0  0  0  0  0  0  0  0
   -4.8479    0.1462   -1.8059 O   0  0  0  0  0  0  0  0  0  0  0  0
   -3.4292    1.8340   -1.8011 O   0  0  0  0  0  0  0  0  0  0  0  0
    1.0329    2.0217   -1.8210 C   0  0  0  0  0  0  0  0  0  0  0  0
    0.2843    2.6479   -2.7576 O   0  0  0  0  0  0  0  0  0  0  0  0
    2.2844    2.5749   -1.5474 C   0  0  0  0  0  0  0  0  0  0  0  0
    3.1317    2.0095   -0.6017 C   0  0  0  0  0  0  0  0  0  0  0  0
    2.7478    0.8582    0.1046 C   0  0  0  0  0  0  0  0  0  0  0  0
    6.9136   -1.0829   -0.9259 H   0  0  0  0  0  0  0  0  0  0  0  0
    5.2016   -1.4080   -0.4714 H   0  0  0  0  0  0  0  0  0  0  0  0
    6.5123   -1.5472    0.7711 H   0  0  0  0  0  0  0  0  0  0  0  0
    5.6900    1.0424   -0.6815 H   0  0  0  0  0  0  0  0  0  0  0  0
    6.9810    0.8994    0.5495 H   0  0  0  0  0  0  0  0  0  0  0  0
    4.9527    1.7910    1.6739 H   0  0  0  0  0  0  0  0  0  0  0  0
    5.3953    0.1704    2.2692 H   0  0  0  0  0  0  0  0  0  0  0  0
    3.7026   -1.3921    2.4906 H   0  0  0  0  0  0  0  0  0  0  0  0
   -0.5664   -0.8679   -1.6083 H   0  0  0  0  0  0  0  0  0  0  0  0
   -1.2528    0.6163   -2.2429 H   0  0  0  0  0  0  0  0  0  0  0  0
   -1.6669    1.2957    0.1717 H   0  0  0  0  0  0  0  0  0  0  0  0
   -2.8259   -1.2529   -0.8639 H   0  0  0  0  0  0  0  0  0  0  0  0
   -3.7642    0.6081    1.4081 H   0  0  0  0  0  0  0  0  0  0  0  0
   -3.0079   -1.0079    1.6187 H   0  0  0  0  0  0  0  0  0  0  0  0
   -5.7694   -0.4617    0.3239 H   0  0  0  0  0  0  0  0  0  0  0  0
   -5.0155   -1.6801    3.0441 H   0  0  0  0  0  0  0  0  0  0  0  0
   -6.6771   -1.5198    2.3521 H   0  0  0  0  0  0  0  0  0  0  0  0
   -5.7321   -0.0460    2.7552 H   0  0  0  0  0  0  0  0  0  0  0  0
   -4.3588   -3.1351    0.9948 H   0  0  0  0  0  0  0  0  0  0  0  0
   -4.6908   -2.5083   -0.6680 H   0  0  0  0  0  0  0  0  0  0  0  0
   -6.0537   -2.9405    0.4024 H   0  0  0  0  0  0  0  0  0  0  0  0
   -2.6432    2.3032   -1.4971 H   0  0  0  0  0  0  0  0  0  0  0  0
   -0.6061    2.4046   -3.0309 H   0  0  0  0  0  0  0  0  0  0  0  0
    2.6063    3.4623   -2.0789 H   0  0  0  0  0  0  0  0  0  0  0  0
    4.0807    2.4944   -0.4325 H   0  0  0  0  0  0  0  0  0  0  0  0
  1  2  1  0  0  0  0
  1 26  1  0  0  0  0
  1 27  1  0  0  0  0
  1 28  1  0  0  0  0
  2  3  1  0  0  0  0
  2 29  1  0  0  0  0
  2 30  1  0  0  0  0
  3  4  1  0  0  0  0
  3 31  1  0  0  0  0
  3 32  1  0  0  0  0
  4  5  2  0  0  0  0
  5  6  1  0  0  0  0
  5 33  1  0  0  0  0
  6  7  2  0  0  0  0
  6  8  1  0  0  0  0
  8  9  1  0  0  0  0
  9 10  2  0  0  0  0
 10 11  1  0  0  0  0
 10 21  1  0  0  0  0
 11 12  1  0  0  0  0
 11 34  1  0  0  0  0
 11 35  1  0  0  0  0
 12 13  1  0  0  0  0
 12 36  1  0  0  0  0
 13 14  1  0  0  0  0
 13 18  1  0  0  0  0
 13 37  1  6  0  0  0
 14 15  1  0  0  0  0
 14 38  1  0  0  0  0
 14 39  1  0  0  0  0
 15 16  1  0  0  0  0
 15 17  1  0  0  0  0
 15 40  1  0  0  0  0
 16 41  1  0  0  0  0
 16 42  1  0  0  0  0
 16 43  1  0  0  0  0
 17 44  1  0  0  0  0
 17 45  1  0  0  0  0
 17 46  1  0  0  0  0
 18 19  2  0  0  0  0
 18 20  1  0  0  0  0
 20 47  1  0  0  0  0
 21 22  1  0  0  0  0
 21 23  2  0  0  0  0
 22 48  1  0  0  0  0
 23 24  1  0  0  0  0
 23 49  1  0  0  0  0
 24 25  2  0  0  0  0
 24 50  1  0  0  0  0
 25  4  1  0  0  0  0
 25  9  1  0  0  0  0
M  END
>  <IDENTIFIER>
CNP0371748.2

>  <Energy>
252.707

$$$$
