
 OpenBabel09122519343D

 51 55  0  0  0  0  0  0  0  0999 V2000
    3.3139   -1.9754    2.6500 C   0  0  0  0  0  0  0  0  0  0  0  0
    2.6144   -1.4928    1.6176 C   0  0  0  0  0  0  0  0  0  0  0  0
    1.1517   -1.7152    1.4214 C   0  0  0  0  0  0  0  0  0  0  0  0
    0.8569   -0.8092    0.1937 C   0  0  2  0  0  0  0  0  0  0  0  0
    2.1577   -1.0286   -0.6180 C   0  0  0  0  0  0  0  0  0  0  0  0
    3.2159   -0.7315    0.4663 C   0  0  1  0  0  0  0  0  0  0  0  0
    3.2870    0.8016    0.7784 C   0  0  2  0  0  0  0  0  0  0  0  0
    3.6670    1.0427    2.1124 O   0  0  0  0  0  0  0  0  0  0  0  0
    1.9841    1.5454    0.3812 C   0  0  0  0  0  0  0  0  0  0  0  0
    0.7278    0.7009    0.6754 C   0  0  1  0  0  0  0  0  0  0  0  0
   -0.6374    1.2526    0.1454 C   0  0  2  0  0  0  0  0  0  0  0  0
   -0.5937    2.1842   -1.1571 C   0  0  0  0  0  0  0  0  0  0  0  0
   -0.8837    1.4507   -2.4535 C   0  0  0  0  0  0  0  0  0  0  0  0
   -2.2461    0.6927   -2.3608 C   0  0  0  0  0  0  0  0  0  0  0  0
   -2.6920    0.3108   -0.8993 C   0  0  2  0  0  0  0  0  0  0  0  0
   -3.7147   -0.8410   -0.9433 C   0  0  0  0  0  0  0  0  0  0  0  0
   -3.3613    1.5274   -0.2169 C   0  0  0  0  0  0  0  0  0  0  0  0
   -4.4338    1.9378   -0.6342 O   0  0  0  0  0  0  0  0  0  0  0  0
   -2.7624    2.1985    0.8197 O   0  0  0  0  0  0  0  0  0  0  0  0
   -1.4268    2.0669    1.2055 C   0  0  0  0  0  0  0  0  0  0  0  0
   -1.4533   -0.0507   -0.0470 C   0  0  1  0  0  0  0  0  0  0  0  0
   -0.4591   -1.1150   -0.5690 C   0  0  2  0  0  0  0  0  0  0  0  0
   -0.9689   -2.5456   -0.5158 C   0  0  0  0  0  0  0  0  0  0  0  0
   -1.0066   -3.2071   -1.5424 O   0  0  0  0  0  0  0  0  0  0  0  0
   -1.4173   -3.1027    0.6315 O   0  0  0  0  0  0  0  0  0  0  0  0
    2.8214   -2.5460    3.4306 H   0  0  0  0  0  0  0  0  0  0  0  0
    4.3842   -1.8057    2.7163 H   0  0  0  0  0  0  0  0  0  0  0  0
    0.5241   -1.4560    2.3011 H   0  0  0  0  0  0  0  0  0  0  0  0
    1.0433   -2.7991    1.2034 H   0  0  0  0  0  0  0  0  0  0  0  0
    2.2640   -0.4093   -1.5338 H   0  0  0  0  0  0  0  0  0  0  0  0
    2.2169   -2.0967   -0.9336 H   0  0  0  0  0  0  0  0  0  0  0  0
    4.2177   -1.1320    0.1973 H   0  0  0  0  0  0  0  0  0  0  0  0
    4.0694    1.2645    0.1375 H   0  0  0  0  0  0  0  0  0  0  0  0
    2.8590    0.9605    2.6818 H   0  0  0  0  0  0  0  0  0  0  0  0
    2.0383    1.6550   -0.7206 H   0  0  0  0  0  0  0  0  0  0  0  0
    1.9384    2.5706    0.8079 H   0  0  0  0  0  0  0  0  0  0  0  0
    0.6263    0.6679    1.7817 H   0  0  0  0  0  0  0  0  0  0  0  0
    0.3029    2.8299   -1.2042 H   0  0  0  0  0  0  0  0  0  0  0  0
   -1.4142    2.9333   -1.1281 H   0  0  0  0  0  0  0  0  0  0  0  0
   -0.0239    0.7886   -2.6443 H   0  0  0  0  0  0  0  0  0  0  0  0
   -0.8973    2.1301   -3.3329 H   0  0  0  0  0  0  0  0  0  0  0  0
   -2.1356   -0.2046   -3.0086 H   0  0  0  0  0  0  0  0  0  0  0  0
   -3.0603    1.3005   -2.8126 H   0  0  0  0  0  0  0  0  0  0  0  0
   -4.6137   -0.5406   -1.5233 H   0  0  0  0  0  0  0  0  0  0  0  0
   -4.0347   -1.1184    0.0842 H   0  0  0  0  0  0  0  0  0  0  0  0
   -3.2929   -1.7367   -1.4389 H   0  0  0  0  0  0  0  0  0  0  0  0
   -1.4198    1.5665    2.1981 H   0  0  0  0  0  0  0  0  0  0  0  0
   -0.9614    3.0675    1.3356 H   0  0  0  0  0  0  0  0  0  0  0  0
   -1.7653   -0.4052    0.9644 H   0  0  0  0  0  0  0  0  0  0  0  0
   -0.2330   -0.9221   -1.6190 H   0  0  0  0  0  0  0  0  0  0  0  0
   -1.4485   -2.6212    1.4694 H   0  0  0  0  0  0  0  0  0  0  0  0
  1  2  2  0  0  0  0
  1 26  1  0  0  0  0
  1 27  1  0  0  0  0
  2  3  1  0  0  0  0
  3 28  1  0  0  0  0
  3 29  1  0  0  0  0
  4  3  1  1  0  0  0
  4  5  1  0  0  0  0
  5 30  1  0  0  0  0
  5 31  1  0  0  0  0
  6  5  1  0  0  0  0
  6  7  1  0  0  0  0
  6  2  1  0  0  0  0
  6 32  1  6  0  0  0
  7  8  1  0  0  0  0
  7  9  1  0  0  0  0
  7 33  1  6  0  0  0
  8 34  1  0  0  0  0
  9 35  1  0  0  0  0
  9 36  1  0  0  0  0
 10  9  1  0  0  0  0
 10 11  1  0  0  0  0
 10  4  1  0  0  0  0
 10 37  1  1  0  0  0
 11 12  1  6  0  0  0
 12 13  1  0  0  0  0
 12 38  1  0  0  0  0
 12 39  1  0  0  0  0
 13 14  1  0  0  0  0
 13 40  1  0  0  0  0
 13 41  1  0  0  0  0
 14 15  1  0  0  0  0
 14 42  1  0  0  0  0
 14 43  1  0  0  0  0
 15 16  1  6  0  0  0
 15 17  1  0  0  0  0
 16 44  1  0  0  0  0
 16 45  1  0  0  0  0
 16 46  1  0  0  0  0
 17 18  2  0  0  0  0
 17 19  1  0  0  0  0
 19 20  1  0  0  0  0
 20 11  1  0  0  0  0
 20 47  1  0  0  0  0
 20 48  1  0  0  0  0
 21 15  1  0  0  0  0
 21 22  1  0  0  0  0
 21 11  1  0  0  0  0
 21 49  1  1  0  0  0
 22 23  1  0  0  0  0
 22  4  1  0  0  0  0
 22 50  1  6  0  0  0
 23 24  2  0  0  0  0
 23 25  1  0  0  0  0
 25 51  1  0  0  0  0
M  END
>  <IDENTIFIER>
CNP0143667.3

>  <Energy>
921.114

$$$$
