
 OpenBabel09102511072D

155154  0  0  0  0  0  0  0  0999 V2000
   18.1865   10.5000    0.0000 C   0  0  0  0  0  0  0  0  0  0  0  0
   16.8875    9.7500    0.0000 C   0  0  0  0  0  2  0  0  0  0  0  0
   15.5885    9.0000    0.0000 C   0  0  0  0  0  0  0  0  0  0  0  0
   13.9439    8.6538    0.0330 C   0  0  0  0  0  0  0  0  0  0  0  0
   13.3415    7.0635   -0.0242 C   0  0  0  0  0  0  0  0  0  0  0  0
   11.6913    6.7500    0.0000 C   0  0  0  0  0  0  0  0  0  0  0  0
   10.3923    6.0000    0.0000 C   0  0  0  0  0  0  0  0  0  0  0  0
    9.0933    5.2500    0.0000 C   0  0  0  0  0  0  0  0  0  0  0  0
    7.7942    4.5000    0.0000 C   0  0  0  0  0  0  0  0  0  0  0  0
    6.4952    3.7500    0.0000 C   0  0  0  0  0  0  0  0  0  0  0  0
    5.1962    3.0000    0.0000 C   0  0  0  0  0  0  0  0  0  0  0  0
    3.5753    2.7397   -0.1100 C   0  0  0  0  0  0  0  0  0  0  0  0
    3.0427    1.1729    0.0956 C   0  0  0  0  0  0  0  0  0  0  0  0
    1.4617    0.7473   -0.0945 C   0  0  0  0  0  0  0  0  0  0  0  0
    0.8273   -0.6736    0.3919 C   0  0  0  0  0  0  0  0  0  0  0  0
    0.9837   -0.9515    1.5690 O   0  0  0  0  0  0  0  0  0  0  0  0
   -0.0594   -1.5075   -0.3734 O   0  0  0  0  0  0  0  0  0  0  0  0
   -1.2990   -2.2500    0.0000 C   0  0  1  0  0  0  0  0  0  0  0  0
   -2.0490   -0.9510   -0.0000 C   0  0  0  0  0  0  0  0  0  0  0  0
   -3.4865   -0.6367    0.0774 O   0  0  0  0  0  0  0  0  0  0  0  0
   -3.9933    0.7287    0.0186 C   0  0  0  0  0  0  0  0  0  0  0  0
   -3.1553    1.6153   -0.0577 O   0  0  0  0  0  0  0  0  0  0  0  0
   -5.5504    1.2856    0.0277 C   0  0  0  0  0  0  0  0  0  0  0  0
   -5.7990    2.9462    0.0000 C   0  0  0  0  0  0  0  0  0  0  0  0
   -6.5490    4.2452    0.0000 C   0  0  0  0  0  0  0  0  0  0  0  0
   -7.2990    5.5442    0.0000 C   0  0  0  0  0  0  0  0  0  0  0  0
   -8.0490    6.8433    0.0000 C   0  0  0  0  0  0  0  0  0  0  0  0
   -8.7990    8.1423    0.0000 C   0  0  0  0  0  0  0  0  0  0  0  0
   -9.5490    9.4413    0.0000 C   0  0  0  0  0  0  0  0  0  0  0  0
   -9.8848   11.0848    0.1036 C   0  0  0  0  0  0  0  0  0  0  0  0
  -11.4483   11.7037   -0.1706 C   0  0  0  0  0  0  0  0  0  0  0  0
  -11.7990   13.3385    0.0000 C   0  0  0  0  0  0  0  0  0  0  0  0
  -12.5490   14.6375    0.0000 C   0  0  0  0  0  0  0  0  0  0  0  0
  -13.2990   15.9365    0.0000 C   0  0  0  0  0  0  0  0  0  0  0  0
  -14.0490   17.2356    0.0000 C   0  0  0  0  0  0  0  0  0  0  0  0
  -14.7990   18.5346    0.0000 C   0  0  0  0  0  2  0  0  0  0  0  0
  -15.5490   19.8336    0.0000 C   0  0  0  0  0  0  0  0  0  0  0  0
  -15.9779   21.4280    0.3130 C   0  0  0  0  0  0  0  0  0  0  0  0
  -17.3362   22.1643   -0.3986 C   0  0  0  0  0  0  0  0  0  0  0  0
  -17.7990   23.7308    0.0000 C   0  0  0  0  0  0  0  0  0  0  0  0
  -18.5490   25.0298    0.0000 C   0  0  0  0  0  0  0  0  0  0  0  0
  -19.2990   26.3288    0.0000 C   0  0  0  0  0  0  0  0  0  0  0  0
  -19.8481   24.2798    0.0000 C   0  0  0  0  0  0  0  0  0  0  0  0
   -0.5490   -3.5490    0.0000 C   0  0  0  0  0  0  0  0  0  0  0  0
    0.7071   -4.0446    0.6024 O   0  0  0  0  0  0  0  0  0  0  0  0
    1.4268   -5.2176    0.1209 C   0  0  0  0  0  0  0  0  0  0  0  0
    1.1341   -5.6103   -0.9987 O   0  0  0  0  0  0  0  0  0  0  0  0
    2.5813   -6.1476    0.8653 C   0  0  0  0  0  0  0  0  0  0  0  0
    3.2010   -7.4462    0.0000 C   0  0  0  0  0  0  0  0  0  0  0  0
    3.9510   -8.7452    0.0000 C   0  0  0  0  0  0  0  0  0  0  0  0
    4.7010  -10.0442    0.0000 C   0  0  0  0  0  0  0  0  0  0  0  0
    5.4510  -11.3433    0.0000 C   0  0  0  0  0  0  0  0  0  0  0  0
    6.2010  -12.6423    0.0000 C   0  0  0  0  0  0  0  0  0  0  0  0
    6.9510  -13.9413    0.0000 C   0  0  0  0  0  0  0  0  0  0  0  0
    7.3156  -15.4609    0.7174 C   0  0  0  0  0  0  0  0  0  0  0  0
    8.4510  -16.5394    0.0000 C   0  0  3  0  0  0  0  0  0  0  0  0
    9.2010  -17.8385    0.0000 C   0  0  0  0  0  0  0  0  0  0  0  0
    9.7500  -15.7894    0.0000 C   0  0  0  0  0  2  0  0  0  0  0  0
   11.0490  -15.0394    0.0000 C   0  0  0  0  0  0  0  0  0  0  0  0
   18.7093    9.7542   -0.6333 H   0  0  0  0  0  0  0  0  0  0  0  0
   17.8036   11.3231   -0.6377 H   0  0  0  0  0  0  0  0  0  0  0  0
   19.1131   11.0350    0.0000 H   0  0  0  0  0  0  0  0  0  0  0  0
   15.8064    8.4268   -0.9253 H   0  0  0  0  0  0  0  0  0  0  0  0
   15.8625    8.3300    0.8415 H   0  0  0  0  0  0  0  0  0  0  0  0
   13.5430    9.1093    0.9629 H   0  0  0  0  0  0  0  0  0  0  0  0
   13.4882    9.1980   -0.8206 H   0  0  0  0  0  0  0  0  0  0  0  0
   13.7859    6.5215    0.8366 H   0  0  0  0  0  0  0  0  0  0  0  0
   13.7435    6.5986   -0.9491 H   0  0  0  0  0  0  0  0  0  0  0  0
   11.4597    7.4291   -0.8571 H   0  0  0  0  0  0  0  0  0  0  0  0
   11.4935    7.4029    0.8904 H   0  0  0  0  0  0  0  0  0  0  0  0
   10.6891    5.5007   -0.9608 H   0  0  0  0  0  0  0  0  0  0  0  0
   10.8628    5.4732    0.8948 H   0  0  0  0  0  0  0  0  0  0  0  0
    9.5711    4.2325    0.2112 H   0  0  0  0  0  0  0  0  0  0  0  0
    8.8464    5.7130    1.0023 H   0  0  0  0  0  0  0  0  0  0  0  0
    7.3242    5.5114   -0.2461 H   0  0  0  0  0  0  0  0  0  0  0  0
    8.0530    4.0132   -0.9921 H   0  0  0  0  0  0  0  0  0  0  0  0
    6.0657    4.2072   -0.9515 H   0  0  0  0  0  0  0  0  0  0  0  0
    6.1475    4.3261    0.9004 H   0  0  0  0  0  0  0  0  0  0  0  0
    5.4682    2.2453   -0.7822 H   0  0  0  0  0  0  0  0  0  0  0  0
    5.3405    2.4296    0.9513 H   0  0  0  0  0  0  0  0  0  0  0  0
    3.2530    3.0831   -1.1160 H   0  0  0  0  0  0  0  0  0  0  0  0
    3.0641    3.3751    0.6435 H   0  0  0  0  0  0  0  0  0  0  0  0
    3.6249    0.5191   -0.5877 H   0  0  0  0  0  0  0  0  0  0  0  0
    3.3235    0.8960    1.1336 H   0  0  0  0  0  0  0  0  0  0  0  0
    1.1768    0.9198   -1.1532 H   0  0  0  0  0  0  0  0  0  0  0  0
    0.9121    1.5003    0.5099 H   0  0  0  0  0  0  0  0  0  0  0  0
   -1.9353   -2.5431   -0.8751 H   0  0  0  0  0  0  0  0  0  0  0  0
   -1.6304   -0.3626    0.8502 H   0  0  0  0  0  0  0  0  0  0  0  0
   -1.7954   -0.3923   -0.9489 H   0  0  0  0  0  0  0  0  0  0  0  0
   -6.0331    0.8991    0.9499 H   0  0  0  0  0  0  0  0  0  0  0  0
   -6.0764    0.8428   -0.8434 H   0  0  0  0  0  0  0  0  0  0  0  0
   -5.1237    3.1471   -0.8690 H   0  0  0  0  0  0  0  0  0  0  0  0
   -5.1447    3.1617    0.8828 H   0  0  0  0  0  0  0  0  0  0  0  0
   -6.9959    3.9764   -0.9960 H   0  0  0  0  0  0  0  0  0  0  0  0
   -7.1286    3.7425    0.8421 H   0  0  0  0  0  0  0  0  0  0  0  0
   -8.3320    5.0627    0.0715 H   0  0  0  0  0  0  0  0  0  0  0  0
   -6.9509    5.7212    1.0657 H   0  0  0  0  0  0  0  0  0  0  0  0
   -7.0148    7.3305   -0.0314 H   0  0  0  0  0  0  0  0  0  0  0  0
   -8.3695    6.6799   -1.0723 H   0  0  0  0  0  0  0  0  0  0  0  0
   -8.1525    8.6842   -0.7664 H   0  0  0  0  0  0  0  0  0  0  0  0
   -8.4462    8.3509    1.0452 H   0  0  0  0  0  0  0  0  0  0  0  0
  -10.0760    9.3096   -0.9811 H   0  0  0  0  0  0  0  0  0  0  0  0
  -10.3351    9.1488    0.7393 H   0  0  0  0  0  0  0  0  0  0  0  0
   -9.5814   11.4059    1.1224 H   0  0  0  0  0  0  0  0  0  0  0  0
   -9.2130   11.5985   -0.6155 H   0  0  0  0  0  0  0  0  0  0  0  0
  -12.1397   11.1589    0.5062 H   0  0  0  0  0  0  0  0  0  0  0  0
  -11.7181   11.4224   -1.2102 H   0  0  0  0  0  0  0  0  0  0  0  0
  -10.9050   13.6700   -0.5875 H   0  0  0  0  0  0  0  0  0  0  0  0
  -11.4316   13.4026    1.0541 H   0  0  0  0  0  0  0  0  0  0  0  0
  -12.6316   14.5859   -1.1210 H   0  0  0  0  0  0  0  0  0  0  0  0
  -13.3605   14.0124    0.4922 H   0  0  0  0  0  0  0  0  0  0  0  0
  -13.3228   15.9193    1.1275 H   0  0  0  0  0  0  0  0  0  0  0  0
  -14.2754   15.5044   -0.3957 H   0  0  0  0  0  0  0  0  0  0  0  0
  -13.8955   17.3773   -1.1007 H   0  0  0  0  0  0  0  0  0  0  0  0
  -13.2019   17.8028    0.4657 H   0  0  0  0  0  0  0  0  0  0  0  0
  -15.5800   19.9245   -1.1058 H   0  0  0  0  0  0  0  0  0  0  0  0
  -16.5235   19.3903    0.2931 H   0  0  0  0  0  0  0  0  0  0  0  0
  -16.1017   21.5107    1.4130 H   0  0  0  0  0  0  0  0  0  0  0  0
  -15.1049   22.0551    0.0339 H   0  0  0  0  0  0  0  0  0  0  0  0
  -18.2078   21.5150   -0.1709 H   0  0  0  0  0  0  0  0  0  0  0  0
  -17.1820   22.1334   -1.4975 H   0  0  0  0  0  0  0  0  0  0  0  0
  -16.7767   24.1617   -0.1371 H   0  0  0  0  0  0  0  0  0  0  0  0
  -17.8021   23.5400    1.1032 H   0  0  0  0  0  0  0  0  0  0  0  0
  -18.3032   25.1875   -1.0866 H   0  0  0  0  0  0  0  0  0  0  0  0
  -18.4047   26.9929   -0.0944 H   0  0  0  0  0  0  0  0  0  0  0  0
  -19.5475   26.3563    1.0935 H   0  0  0  0  0  0  0  0  0  0  0  0
  -19.8340   27.2554    0.0000 H   0  0  0  0  0  0  0  0  0  0  0  0
  -19.9210   23.9182    1.0616 H   0  0  0  0  0  0  0  0  0  0  0  0
  -19.8592   23.6675   -0.9517 H   0  0  0  0  0  0  0  0  0  0  0  0
  -20.7748   23.7448    0.0000 H   0  0  0  0  0  0  0  0  0  0  0  0
   -1.3127   -4.2953    0.3152 H   0  0  0  0  0  0  0  0  0  0  0  0
   -0.4012   -3.7918   -1.0865 H   0  0  0  0  0  0  0  0  0  0  0  0
    2.1017   -6.5566    1.7790 H   0  0  0  0  0  0  0  0  0  0  0  0
    3.4285   -5.5045    1.1825 H   0  0  0  0  0  0  0  0  0  0  0  0
    3.6709   -6.9035   -0.8533 H   0  0  0  0  0  0  0  0  0  0  0  0
    2.1803   -7.7637   -0.3570 H   0  0  0  0  0  0  0  0  0  0  0  0
    3.2635   -9.1327    0.7995 H   0  0  0  0  0  0  0  0  0  0  0  0
    3.5478   -9.0371   -1.0163 H   0  0  0  0  0  0  0  0  0  0  0  0
    5.2135   -9.7280    0.9586 H   0  0  0  0  0  0  0  0  0  0  0  0
    5.4369   -9.6313   -0.7548 H   0  0  0  0  0  0  0  0  0  0  0  0
    5.0175  -11.5936   -1.0098 H   0  0  0  0  0  0  0  0  0  0  0  0
    4.7095  -11.6520    0.8095 H   0  0  0  0  0  0  0  0  0  0  0  0
    6.6026  -12.4272    1.0248 H   0  0  0  0  0  0  0  0  0  0  0  0
    5.2915  -13.3236    0.0258 H   0  0  0  0  0  0  0  0  0  0  0  0
    7.9945  -13.5539   -0.0815 H   0  0  0  0  0  0  0  0  0  0  0  0
    6.7659  -14.2929   -1.0463 H   0  0  0  0  0  0  0  0  0  0  0  0
    7.6467  -15.2678    1.7597 H   0  0  0  0  0  0  0  0  0  0  0  0
    6.3539  -16.0123    0.7768 H   0  0  0  0  0  0  0  0  0  0  0  0
    8.0044  -16.5226   -1.0242 H   0  0  0  0  0  0  0  0  0  0  0  0
    8.2906  -18.4727    0.0742 H   0  0  0  0  0  0  0  0  0  0  0  0
    9.5699  -17.8803   -1.0645 H   0  0  0  0  0  0  0  0  0  0  0  0
    9.7360  -18.7652    0.0000 H   0  0  0  0  0  0  0  0  0  0  0  0
   11.5676  -15.7774    0.6458 H   0  0  0  0  0  0  0  0  0  0  0  0
   10.6610  -14.2091    0.6251 H   0  0  0  0  0  0  0  0  0  0  0  0
   11.9756  -14.5044    0.0000 H   0  0  0  0  0  0  0  0  0  0  0  0
  1  2  1  0  0  0  0
  1 60  1  0  0  0  0
  1 61  1  0  0  0  0
  1 62  1  0  0  0  0
  2  3  1  0  0  0  0
  3  4  1  0  0  0  0
  3 63  1  0  0  0  0
  3 64  1  0  0  0  0
  4  5  1  0  0  0  0
  4 65  1  0  0  0  0
  4 66  1  0  0  0  0
  5  6  1  0  0  0  0
  5 67  1  0  0  0  0
  5 68  1  0  0  0  0
  6  7  1  0  0  0  0
  6 69  1  0  0  0  0
  6 70  1  0  0  0  0
  7  8  1  0  0  0  0
  7 71  1  0  0  0  0
  7 72  1  0  0  0  0
  8  9  1  0  0  0  0
  8 73  1  0  0  0  0
  8 74  1  0  0  0  0
  9 10  1  0  0  0  0
  9 75  1  0  0  0  0
  9 76  1  0  0  0  0
 10 11  1  0  0  0  0
 10 77  1  0  0  0  0
 10 78  1  0  0  0  0
 11 12  1  0  0  0  0
 11 79  1  0  0  0  0
 11 80  1  0  0  0  0
 12 13  1  0  0  0  0
 12 81  1  0  0  0  0
 12 82  1  0  0  0  0
 13 14  1  0  0  0  0
 13 83  1  0  0  0  0
 13 84  1  0  0  0  0
 14 15  1  0  0  0  0
 14 85  1  0  0  0  0
 14 86  1  0  0  0  0
 15 16  2  0  0  0  0
 15 17  1  0  0  0  0
 17 18  1  0  0  0  0
 18 19  1  0  0  0  0
 18 44  1  0  0  0  0
 18 87  1  1  0  0  0
 19 20  1  0  0  0  0
 19 88  1  0  0  0  0
 19 89  1  0  0  0  0
 20 21  1  0  0  0  0
 21 22  2  0  0  0  0
 21 23  1  0  0  0  0
 23 24  1  0  0  0  0
 23 90  1  0  0  0  0
 23 91  1  0  0  0  0
 24 25  1  0  0  0  0
 24 92  1  0  0  0  0
 24 93  1  0  0  0  0
 25 26  1  0  0  0  0
 25 94  1  0  0  0  0
 25 95  1  0  0  0  0
 26 27  1  0  0  0  0
 26 96  1  0  0  0  0
 26 97  1  0  0  0  0
 27 28  1  0  0  0  0
 27 98  1  0  0  0  0
 27 99  1  0  0  0  0
 28 29  1  0  0  0  0
 28100  1  0  0  0  0
 28101  1  0  0  0  0
 29 30  1  0  0  0  0
 29102  1  0  0  0  0
 29103  1  0  0  0  0
 30 31  1  0  0  0  0
 30104  1  0  0  0  0
 30105  1  0  0  0  0
 31 32  1  0  0  0  0
 31106  1  0  0  0  0
 31107  1  0  0  0  0
 32 33  1  0  0  0  0
 32108  1  0  0  0  0
 32109  1  0  0  0  0
 33 34  1  0  0  0  0
 33110  1  0  0  0  0
 33111  1  0  0  0  0
 34 35  1  0  0  0  0
 34112  1  0  0  0  0
 34113  1  0  0  0  0
 35 36  1  0  0  0  0
 35114  1  0  0  0  0
 35115  1  0  0  0  0
 36 37  1  0  0  0  0
 37 38  1  0  0  0  0
 37116  1  0  0  0  0
 37117  1  0  0  0  0
 38 39  1  0  0  0  0
 38118  1  0  0  0  0
 38119  1  0  0  0  0
 39 40  1  0  0  0  0
 39120  1  0  0  0  0
 39121  1  0  0  0  0
 40 41  1  0  0  0  0
 40122  1  0  0  0  0
 40123  1  0  0  0  0
 41 42  1  0  0  0  0
 41 43  1  0  0  0  0
 41124  1  0  0  0  0
 42125  1  0  0  0  0
 42126  1  0  0  0  0
 42127  1  0  0  0  0
 43128  1  0  0  0  0
 43129  1  0  0  0  0
 43130  1  0  0  0  0
 44 45  1  0  0  0  0
 44131  1  0  0  0  0
 44132  1  0  0  0  0
 45 46  1  0  0  0  0
 46 47  2  0  0  0  0
 46 48  1  0  0  0  0
 48 49  1  0  0  0  0
 48133  1  0  0  0  0
 48134  1  0  0  0  0
 49 50  1  0  0  0  0
 49135  1  0  0  0  0
 49136  1  0  0  0  0
 50 51  1  0  0  0  0
 50137  1  0  0  0  0
 50138  1  0  0  0  0
 51 52  1  0  0  0  0
 51139  1  0  0  0  0
 51140  1  0  0  0  0
 52 53  1  0  0  0  0
 52141  1  0  0  0  0
 52142  1  0  0  0  0
 53 54  1  0  0  0  0
 53143  1  0  0  0  0
 53144  1  0  0  0  0
 54 55  1  0  0  0  0
 54145  1  0  0  0  0
 54146  1  0  0  0  0
 55 56  1  0  0  0  0
 55147  1  0  0  0  0
 55148  1  0  0  0  0
 56 57  1  0  0  0  0
 56 58  1  0  0  0  0
 56149  1  0  0  0  0
 57150  1  0  0  0  0
 57151  1  0  0  0  0
 57152  1  0  0  0  0
 58 59  1  0  0  0  0
 59153  1  0  0  0  0
 59154  1  0  0  0  0
 59155  1  0  0  0  0
M  END
>  <IDENTIFIER>
CNP0550149.1

>  <Energy>
13782.9

$$$$
