
 OpenBabel09112503033D

 76 79  0  0  0  0  0  0  0  0999 V2000
    7.3928   -0.5127    3.1618 C   0  0  0  0  0  0  0  0  0  0  0  0
    6.1182   -0.8011    2.6284 O   0  0  0  0  0  0  0  0  0  0  0  0
    6.1510   -0.7606    1.2116 C   0  0  1  0  0  0  0  0  0  0  0  0
    5.2522   -1.8967    0.6703 C   0  0  0  0  0  0  0  0  0  0  0  0
    3.7480   -1.6981    1.0458 C   0  0  0  0  0  0  0  0  0  0  0  0
    3.2227   -0.2129    0.8775 C   0  0  1  0  0  0  0  0  0  0  0  0
    3.1151    0.4143    2.3016 C   0  0  0  0  0  0  0  0  0  0  0  0
    4.2932    0.5080    0.0559 C   0  0  0  0  0  0  0  0  0  0  0  0
    4.1178    0.8275   -1.2443 C   0  0  0  0  0  0  0  0  0  0  0  0
    2.8923    0.4523   -1.9719 C   0  0  0  0  0  0  0  0  0  0  0  0
    2.7485    0.8224   -3.1273 O   0  0  0  0  0  0  0  0  0  0  0  0
    1.9180   -0.5155   -1.3306 C   0  0  2  0  0  0  0  0  0  0  0  0
    0.5236   -0.5553   -2.0270 C   0  0  1  0  0  0  0  0  0  0  0  0
   -0.3774   -1.6981   -1.5378 C   0  0  0  0  0  0  0  0  0  0  0  0
   -1.7593   -1.2245   -1.9320 C   0  0  0  0  0  0  0  0  0  0  0  0
   -1.7583    0.2112   -1.3837 C   0  0  2  0  0  0  0  0  0  0  0  0
   -3.0465    1.0246   -1.7876 C   0  0  2  0  0  0  0  0  0  0  0  0
   -3.0942    2.4220   -1.1438 C   0  0  0  0  0  0  0  0  0  0  0  0
   -4.3790    0.2708   -1.5181 C   0  0  0  0  0  0  0  0  0  0  0  0
   -4.7082   -0.0111   -0.0431 C   0  0  0  0  0  0  0  0  0  0  0  0
   -6.0396   -0.7852    0.0510 C   0  0  0  0  0  0  0  0  0  0  0  0
   -6.5483   -1.0673    1.4845 C   0  0  0  0  0  0  0  0  0  0  0  0
   -5.5569   -1.9058    2.3009 C   0  0  0  0  0  0  0  0  0  0  0  0
   -6.9120    0.2236    2.2318 C   0  0  0  0  0  0  0  0  0  0  0  0
   -0.3529    0.7446   -1.8742 C   0  0  2  0  0  0  0  0  0  0  0  0
   -0.4753    1.4165   -3.2748 C   0  0  0  0  0  0  0  0  0  0  0  0
    0.3339    1.7614   -0.9147 C   0  0  0  0  0  0  0  0  0  0  0  0
    0.9505    1.1580    0.3671 C   0  0  0  0  0  0  0  0  0  0  0  0
    1.7951   -0.1628    0.1727 C   0  0  2  0  0  0  0  0  0  0  0  0
    5.6779    0.6329    0.6758 C   0  0  0  0  0  0  0  0  0  0  0  0
    7.3032   -0.4292    4.2638 H   0  0  0  0  0  0  0  0  0  0  0  0
    7.7813    0.4619    2.7900 H   0  0  0  0  0  0  0  0  0  0  0  0
    8.1052   -1.3400    2.9471 H   0  0  0  0  0  0  0  0  0  0  0  0
    7.1787   -0.9621    0.8178 H   0  0  0  0  0  0  0  0  0  0  0  0
    5.6036   -2.8959    1.0059 H   0  0  0  0  0  0  0  0  0  0  0  0
    5.3388   -1.8754   -0.4397 H   0  0  0  0  0  0  0  0  0  0  0  0
    3.5676   -2.0411    2.0882 H   0  0  0  0  0  0  0  0  0  0  0  0
    3.1851   -2.4140    0.4139 H   0  0  0  0  0  0  0  0  0  0  0  0
    4.0460    0.3124    2.8832 H   0  0  0  0  0  0  0  0  0  0  0  0
    2.3157   -0.0927    2.8831 H   0  0  0  0  0  0  0  0  0  0  0  0
    2.9105    1.4999    2.2871 H   0  0  0  0  0  0  0  0  0  0  0  0
    4.9153    1.3065   -1.8060 H   0  0  0  0  0  0  0  0  0  0  0  0
    2.3790   -1.5203   -1.4324 H   0  0  0  0  0  0  0  0  0  0  0  0
    0.6693   -0.7782   -3.1101 H   0  0  0  0  0  0  0  0  0  0  0  0
   -0.3895   -1.7777   -0.4329 H   0  0  0  0  0  0  0  0  0  0  0  0
   -0.0913   -2.6923   -1.9430 H   0  0  0  0  0  0  0  0  0  0  0  0
   -2.5475   -1.8741   -1.4960 H   0  0  0  0  0  0  0  0  0  0  0  0
   -1.8583   -1.2231   -3.0405 H   0  0  0  0  0  0  0  0  0  0  0  0
   -1.7308    0.1105   -0.2744 H   0  0  0  0  0  0  0  0  0  0  0  0
   -3.0422    1.1606   -2.8894 H   0  0  0  0  0  0  0  0  0  0  0  0
   -3.0618    2.3535   -0.0369 H   0  0  0  0  0  0  0  0  0  0  0  0
   -4.0240    2.9496   -1.4462 H   0  0  0  0  0  0  0  0  0  0  0  0
   -2.2592    3.0585   -1.4805 H   0  0  0  0  0  0  0  0  0  0  0  0
   -4.3757   -0.6847   -2.0832 H   0  0  0  0  0  0  0  0  0  0  0  0
   -5.2091    0.8772   -1.9452 H   0  0  0  0  0  0  0  0  0  0  0  0
   -4.7993    0.9529    0.4942 H   0  0  0  0  0  0  0  0  0  0  0  0
   -3.8949   -0.6109    0.4129 H   0  0  0  0  0  0  0  0  0  0  0  0
   -5.9168   -1.7571   -0.4766 H   0  0  0  0  0  0  0  0  0  0  0  0
   -6.8315   -0.2137   -0.4826 H   0  0  0  0  0  0  0  0  0  0  0  0
   -7.4845   -1.6603    1.3804 H   0  0  0  0  0  0  0  0  0  0  0  0
   -4.6116   -1.3516    2.4768 H   0  0  0  0  0  0  0  0  0  0  0  0
   -5.3300   -2.8544    1.7697 H   0  0  0  0  0  0  0  0  0  0  0  0
   -5.9985   -2.1575    3.2887 H   0  0  0  0  0  0  0  0  0  0  0  0
   -6.0201    0.8593    2.4056 H   0  0  0  0  0  0  0  0  0  0  0  0
   -7.3591   -0.0229    3.2183 H   0  0  0  0  0  0  0  0  0  0  0  0
   -7.6616    0.8022    1.6502 H   0  0  0  0  0  0  0  0  0  0  0  0
   -1.0716    2.3480   -3.2365 H   0  0  0  0  0  0  0  0  0  0  0  0
   -0.9426    0.7322   -4.0138 H   0  0  0  0  0  0  0  0  0  0  0  0
    0.5173    1.7033   -3.6727 H   0  0  0  0  0  0  0  0  0  0  0  0
   -0.3154    2.6160   -0.6534 H   0  0  0  0  0  0  0  0  0  0  0  0
    1.1837    2.2181   -1.4613 H   0  0  0  0  0  0  0  0  0  0  0  0
    0.1485    0.9497    1.1091 H   0  0  0  0  0  0  0  0  0  0  0  0
    1.5597    1.9850    0.7727 H   0  0  0  0  0  0  0  0  0  0  0  0
    1.1976   -0.9469    0.6785 H   0  0  0  0  0  0  0  0  0  0  0  0
    5.7011    1.3892    1.4889 H   0  0  0  0  0  0  0  0  0  0  0  0
    6.3976    0.9830   -0.0971 H   0  0  0  0  0  0  0  0  0  0  0  0
  1  2  1  0  0  0  0
  1 31  1  0  0  0  0
  1 32  1  0  0  0  0
  1 33  1  0  0  0  0
  3  2  1  0  0  0  0
  3  4  1  0  0  0  0
  3 34  1  6  0  0  0
  4  5  1  0  0  0  0
  4 35  1  0  0  0  0
  4 36  1  0  0  0  0
  5  6  1  0  0  0  0
  5 37  1  0  0  0  0
  5 38  1  0  0  0  0
  6  7  1  1  0  0  0
  6  8  1  0  0  0  0
  7 39  1  0  0  0  0
  7 40  1  0  0  0  0
  7 41  1  0  0  0  0
  8  9  2  0  0  0  0
  8 30  1  0  0  0  0
  9 10  1  0  0  0  0
  9 42  1  0  0  0  0
 10 11  2  0  0  0  0
 12 10  1  0  0  0  0
 12 13  1  0  0  0  0
 12 43  1  6  0  0  0
 13 14  1  0  0  0  0
 13 44  1  6  0  0  0
 14 15  1  0  0  0  0
 14 45  1  0  0  0  0
 14 46  1  0  0  0  0
 15 47  1  0  0  0  0
 15 48  1  0  0  0  0
 16 15  1  0  0  0  0
 16 17  1  0  0  0  0
 16 25  1  0  0  0  0
 16 49  1  1  0  0  0
 17 18  1  0  0  0  0
 17 19  1  0  0  0  0
 17 50  1  6  0  0  0
 18 51  1  0  0  0  0
 18 52  1  0  0  0  0
 18 53  1  0  0  0  0
 19 20  1  0  0  0  0
 19 54  1  0  0  0  0
 19 55  1  0  0  0  0
 20 21  1  0  0  0  0
 20 56  1  0  0  0  0
 20 57  1  0  0  0  0
 21 22  1  0  0  0  0
 21 58  1  0  0  0  0
 21 59  1  0  0  0  0
 22 23  1  0  0  0  0
 22 24  1  0  0  0  0
 22 60  1  0  0  0  0
 23 61  1  0  0  0  0
 23 62  1  0  0  0  0
 23 63  1  0  0  0  0
 24 64  1  0  0  0  0
 24 65  1  0  0  0  0
 24 66  1  0  0  0  0
 25 26  1  6  0  0  0
 25 27  1  0  0  0  0
 25 13  1  0  0  0  0
 26 67  1  0  0  0  0
 26 68  1  0  0  0  0
 26 69  1  0  0  0  0
 27 28  1  0  0  0  0
 27 70  1  0  0  0  0
 27 71  1  0  0  0  0
 28 72  1  0  0  0  0
 28 73  1  0  0  0  0
 29 28  1  0  0  0  0
 29  6  1  0  0  0  0
 29 12  1  0  0  0  0
 29 74  1  1  0  0  0
 30  3  1  0  0  0  0
 30 75  1  0  0  0  0
 30 76  1  0  0  0  0
M  END
>  <IDENTIFIER>
CNP0245269.1

>  <Energy>
918.673

$$$$
