
 OpenBabel09052522133D

 46 46  0  0  0  0  0  0  0  0999 V2000
   -6.1221    2.5767   -1.1611 C   0  0  0  0  0  0  0  0  0  0  0  0
   -6.2622    1.5552   -0.0429 C   0  0  0  0  0  0  0  0  0  0  0  0
   -5.0905    0.8352    0.0774 O   0  0  0  0  0  0  0  0  0  0  0  0
   -4.9264   -0.2104    0.9316 C   0  0  0  0  0  0  0  0  0  0  0  0
   -5.8490   -0.5580    1.6567 O   0  0  0  0  0  0  0  0  0  0  0  0
   -3.6469   -0.9787    0.9347 C   0  0  0  0  0  0  0  0  0  0  0  0
   -3.5829   -2.2130    1.7771 C   0  0  0  0  0  0  0  0  0  0  0  0
   -2.5441   -2.8269    1.9572 O   0  0  0  0  0  0  0  0  0  0  0  0
   -2.5964   -0.5038    0.2135 C   0  0  0  0  0  0  0  0  0  0  0  0
   -1.2739   -1.1585    0.0317 C   0  0  0  0  0  0  0  0  0  0  0  0
   -0.1312   -0.4052    0.3335 C   0  0  0  0  0  0  0  0  0  0  0  0
    1.1585   -0.9294    0.1612 C   0  0  0  0  0  0  0  0  0  0  0  0
    2.2982   -0.0624    0.5585 C   0  0  0  0  0  0  0  0  0  0  0  0
    3.4026    0.2458   -0.1754 C   0  0  0  0  0  0  0  0  0  0  0  0
    3.5962   -0.1649   -1.5982 C   0  0  0  0  0  0  0  0  0  0  0  0
    2.7199   -0.7167   -2.2425 O   0  0  0  0  0  0  0  0  0  0  0  0
    4.4654    1.0935    0.4453 C   0  0  0  0  0  0  0  0  0  0  0  0
    4.4024    1.3855    1.6322 O   0  0  0  0  0  0  0  0  0  0  0  0
    5.5151    1.5173   -0.3083 O   0  0  0  0  0  0  0  0  0  0  0  0
    6.5860    2.2691    0.1465 C   0  0  0  0  0  0  0  0  0  0  0  0
    6.1550    3.6583    0.6213 C   0  0  0  0  0  0  0  0  0  0  0  0
    1.3062   -2.2579   -0.3128 C   0  0  0  0  0  0  0  0  0  0  0  0
    2.5783   -2.8835   -0.4306 N   0  0  0  0  0  0  0  0  0  0  0  0
    0.1640   -3.0032   -0.6337 C   0  0  0  0  0  0  0  0  0  0  0  0
   -1.1218   -2.4715   -0.4753 C   0  0  0  0  0  0  0  0  0  0  0  0
   -2.2381   -3.2598   -0.8715 N   0  0  0  0  0  0  0  0  0  0  0  0
   -7.0672    3.1508   -1.2641 H   0  0  0  0  0  0  0  0  0  0  0  0
   -5.9124    2.0588   -2.1218 H   0  0  0  0  0  0  0  0  0  0  0  0
   -5.2927    3.2799   -0.9376 H   0  0  0  0  0  0  0  0  0  0  0  0
   -7.1012    0.8691   -0.2937 H   0  0  0  0  0  0  0  0  0  0  0  0
   -6.4866    2.0750    0.9139 H   0  0  0  0  0  0  0  0  0  0  0  0
   -4.4695   -2.5499    2.3031 H   0  0  0  0  0  0  0  0  0  0  0  0
   -2.6919    0.4664   -0.2666 H   0  0  0  0  0  0  0  0  0  0  0  0
   -0.2476    0.6054    0.7112 H   0  0  0  0  0  0  0  0  0  0  0  0
    2.1896    0.3922    1.5394 H   0  0  0  0  0  0  0  0  0  0  0  0
    4.5192    0.0882   -2.1097 H   0  0  0  0  0  0  0  0  0  0  0  0
    7.2978    2.3992   -0.6953 H   0  0  0  0  0  0  0  0  0  0  0  0
    7.1092    1.7280    0.9644 H   0  0  0  0  0  0  0  0  0  0  0  0
    5.6399    4.2006   -0.1987 H   0  0  0  0  0  0  0  0  0  0  0  0
    7.0515    4.2364    0.9292 H   0  0  0  0  0  0  0  0  0  0  0  0
    5.4760    3.5951    1.4958 H   0  0  0  0  0  0  0  0  0  0  0  0
    3.4438   -2.4175   -0.1261 H   0  0  0  0  0  0  0  0  0  0  0  0
    2.6551   -3.8505   -0.7749 H   0  0  0  0  0  0  0  0  0  0  0  0
    0.2775   -4.0137   -1.0080 H   0  0  0  0  0  0  0  0  0  0  0  0
   -2.1003   -4.2126   -1.2407 H   0  0  0  0  0  0  0  0  0  0  0  0
   -3.1994   -2.8943   -0.8501 H   0  0  0  0  0  0  0  0  0  0  0  0
  1  2  1  0  0  0  0
  1 27  1  0  0  0  0
  1 28  1  0  0  0  0
  1 29  1  0  0  0  0
  2  3  1  0  0  0  0
  2 30  1  0  0  0  0
  2 31  1  0  0  0  0
  3  4  1  0  0  0  0
  4  5  2  0  0  0  0
  4  6  1  0  0  0  0
  6  7  1  0  0  0  0
  6  9  2  3  0  0  0
  7  8  2  0  0  0  0
  7 32  1  0  0  0  0
  9 10  1  0  0  0  0
  9 33  1  0  0  0  0
 10 11  2  0  0  0  0
 11 12  1  0  0  0  0
 11 34  1  0  0  0  0
 12 13  1  0  0  0  0
 12 22  2  0  0  0  0
 13 14  2  3  0  0  0
 13 35  1  0  0  0  0
 14 15  1  0  0  0  0
 14 17  1  0  0  0  0
 15 16  2  0  0  0  0
 15 36  1  0  0  0  0
 17 18  2  0  0  0  0
 17 19  1  0  0  0  0
 19 20  1  0  0  0  0
 20 21  1  0  0  0  0
 20 37  1  0  0  0  0
 20 38  1  0  0  0  0
 21 39  1  0  0  0  0
 21 40  1  0  0  0  0
 21 41  1  0  0  0  0
 22 23  1  0  0  0  0
 22 24  1  0  0  0  0
 23 42  1  0  0  0  0
 23 43  1  0  0  0  0
 24 25  2  0  0  0  0
 24 44  1  0  0  0  0
 25 26  1  0  0  0  0
 25 10  1  0  0  0  0
 26 45  1  0  0  0  0
 26 46  1  0  0  0  0
M  END
>  <IDENTIFIER>
CNP0038041.0

>  <Energy>
439.659

$$$$
