
 OpenBabel09132509533D

 81 86  0  0  0  0  0  0  0  0999 V2000
    7.2753   -2.5910   -0.6572 C   0  0  0  0  0  0  0  0  0  0  0  0
    6.6909   -1.2742   -0.1499 C   0  0  2  0  0  0  0  0  0  0  0  0
    5.9773   -0.6335   -1.1866 O   0  0  0  0  0  0  0  0  0  0  0  0
    5.2129    0.4840   -0.7152 C   0  0  1  0  0  0  0  0  0  0  0  0
    3.8800    0.0660   -0.4922 O   0  0  0  0  0  0  0  0  0  0  0  0
    2.8961    0.9348   -1.0333 C   0  0  1  0  0  0  0  0  0  0  0  0
    2.2153    0.2071   -2.2214 C   0  0  0  0  0  0  0  0  0  0  0  0
    0.6902    0.3651   -2.1905 C   0  0  0  0  0  0  0  0  0  0  0  0
    0.0927   -0.3154   -0.9020 C   0  0  2  0  0  0  0  0  0  0  0  0
    0.0794   -1.8331   -1.1759 C   0  0  0  0  0  0  0  0  0  0  0  0
    0.6105   -2.6611   -0.4548 O   0  0  0  0  0  0  0  0  0  0  0  0
   -1.4055    0.1291   -0.7021 C   0  0  1  0  0  0  0  0  0  0  0  0
   -2.3524   -0.1098   -1.9054 C   0  0  0  0  0  0  0  0  0  0  0  0
   -3.7421    0.4724   -1.6006 C   0  0  0  0  0  0  0  0  0  0  0  0
   -4.4230   -0.1531   -0.3264 C   0  0  2  0  0  0  0  0  0  0  0  0
   -4.8406   -1.6086   -0.6791 C   0  0  0  0  0  0  0  0  0  0  0  0
   -5.6268    0.7793    0.0984 C   0  0  1  0  0  0  0  0  0  0  0  0
   -6.9539    0.1146    0.4437 C   0  0  0  0  0  0  0  0  0  0  0  0
   -7.1761   -0.7468    1.4318 C   0  0  0  0  0  0  0  0  0  0  0  0
   -8.5743   -1.0808    1.3577 C   0  0  0  0  0  0  0  0  0  0  0  0
   -9.1550   -1.8502    2.1056 O   0  0  0  0  0  0  0  0  0  0  0  0
   -9.1737   -0.4275    0.3493 O   0  0  0  0  0  0  0  0  0  0  0  0
   -8.2426    0.3632   -0.2998 C   0  0  0  0  0  0  0  0  0  0  0  0
   -5.1044    1.6037    1.3023 C   0  0  0  0  0  0  0  0  0  0  0  0
   -3.5909    1.4272    1.2869 C   0  0  0  0  0  0  0  0  0  0  0  0
   -3.4568   -0.0680    0.8981 C   0  0  1  0  0  0  0  0  0  0  0  0
   -3.9803   -0.8911    1.9261 O   0  0  0  0  0  0  0  0  0  0  0  0
   -2.0104   -0.5627    0.5719 C   0  0  2  0  0  0  0  0  0  0  0  0
   -1.0526   -0.4956    1.8020 C   0  0  0  0  0  0  0  0  0  0  0  0
    0.0406    0.5425    1.6038 C   0  0  0  0  0  0  0  0  0  0  0  0
    0.9554    0.1178    0.4127 C   0  0  1  0  0  0  0  0  0  0  0  0
    1.7724   -0.9513    0.8416 O   0  0  0  0  0  0  0  0  0  0  0  0
    1.8880    1.3069    0.0800 C   0  0  0  0  0  0  0  0  0  0  0  0
    5.7782    1.1788    0.5723 C   0  0  1  0  0  0  0  0  0  0  0  0
    5.3653    0.5088    1.7391 O   0  0  0  0  0  0  0  0  0  0  0  0
    7.3125    1.1440    0.4981 C   0  0  2  0  0  0  0  0  0  0  0  0
    7.7470    1.9055   -0.6080 O   0  0  0  0  0  0  0  0  0  0  0  0
    7.8057   -0.3384    0.4073 C   0  0  1  0  0  0  0  0  0  0  0  0
    8.2504   -0.8178    1.6534 O   0  0  0  0  0  0  0  0  0  0  0  0
    6.4592   -3.2432   -1.0351 H   0  0  0  0  0  0  0  0  0  0  0  0
    7.8003   -3.1226    0.1648 H   0  0  0  0  0  0  0  0  0  0  0  0
    7.9918   -2.4028   -1.4849 H   0  0  0  0  0  0  0  0  0  0  0  0
    5.9675   -1.5514    0.6505 H   0  0  0  0  0  0  0  0  0  0  0  0
    5.3061    1.2238   -1.5432 H   0  0  0  0  0  0  0  0  0  0  0  0
    3.2951    1.9231   -1.3629 H   0  0  0  0  0  0  0  0  0  0  0  0
    2.4170   -0.8853   -2.1633 H   0  0  0  0  0  0  0  0  0  0  0  0
    2.6606    0.5635   -3.1750 H   0  0  0  0  0  0  0  0  0  0  0  0
    0.2481   -0.0776   -3.1095 H   0  0  0  0  0  0  0  0  0  0  0  0
    0.4586    1.4517   -2.2203 H   0  0  0  0  0  0  0  0  0  0  0  0
   -0.4361   -2.2005   -2.0561 H   0  0  0  0  0  0  0  0  0  0  0  0
   -1.3761    1.2291   -0.5527 H   0  0  0  0  0  0  0  0  0  0  0  0
   -2.4364   -1.1860   -2.1465 H   0  0  0  0  0  0  0  0  0  0  0  0
   -1.9661    0.4070   -2.8082 H   0  0  0  0  0  0  0  0  0  0  0  0
   -4.4064    0.3418   -2.4833 H   0  0  0  0  0  0  0  0  0  0  0  0
   -3.6090    1.5681   -1.4925 H   0  0  0  0  0  0  0  0  0  0  0  0
   -5.5577   -1.6069   -1.5276 H   0  0  0  0  0  0  0  0  0  0  0  0
   -5.3223   -2.1206    0.1753 H   0  0  0  0  0  0  0  0  0  0  0  0
   -3.9734   -2.2359   -0.9603 H   0  0  0  0  0  0  0  0  0  0  0  0
   -5.8356    1.4691   -0.7500 H   0  0  0  0  0  0  0  0  0  0  0  0
   -6.4612   -1.1228    2.1492 H   0  0  0  0  0  0  0  0  0  0  0  0
   -8.5345    1.4327   -0.2311 H   0  0  0  0  0  0  0  0  0  0  0  0
   -8.1499    0.0542   -1.3620 H   0  0  0  0  0  0  0  0  0  0  0  0
   -5.4363    1.1182    2.2461 H   0  0  0  0  0  0  0  0  0  0  0  0
   -5.4726    2.6506    1.3442 H   0  0  0  0  0  0  0  0  0  0  0  0
   -3.1150    1.6969    2.2539 H   0  0  0  0  0  0  0  0  0  0  0  0
   -3.1587    2.0960    0.5204 H   0  0  0  0  0  0  0  0  0  0  0  0
   -3.7582   -0.5068    2.8127 H   0  0  0  0  0  0  0  0  0  0  0  0
   -2.1260   -1.6468    0.3506 H   0  0  0  0  0  0  0  0  0  0  0  0
   -0.5500   -1.4788    1.9369 H   0  0  0  0  0  0  0  0  0  0  0  0
   -1.5942   -0.2959    2.7459 H   0  0  0  0  0  0  0  0  0  0  0  0
    0.6488    0.6506    2.5284 H   0  0  0  0  0  0  0  0  0  0  0  0
   -0.4408    1.5297    1.4307 H   0  0  0  0  0  0  0  0  0  0  0  0
    2.2981   -0.6601    1.6330 H   0  0  0  0  0  0  0  0  0  0  0  0
    2.4453    1.6658    0.9721 H   0  0  0  0  0  0  0  0  0  0  0  0
    1.2569    2.1601   -0.2538 H   0  0  0  0  0  0  0  0  0  0  0  0
    5.4199    2.2343    0.6239 H   0  0  0  0  0  0  0  0  0  0  0  0
    4.4702    0.8614    1.9812 H   0  0  0  0  0  0  0  0  0  0  0  0
    7.7700    1.6210    1.3924 H   0  0  0  0  0  0  0  0  0  0  0  0
    7.6674    1.3602   -1.4329 H   0  0  0  0  0  0  0  0  0  0  0  0
    8.6931   -0.3360   -0.2633 H   0  0  0  0  0  0  0  0  0  0  0  0
    7.4969   -0.7490    2.2948 H   0  0  0  0  0  0  0  0  0  0  0  0
  1 40  1  0  0  0  0
  1 41  1  0  0  0  0
  1 42  1  0  0  0  0
  2  1  1  0  0  0  0
  2  3  1  0  0  0  0
  2 43  1  1  0  0  0
  3  4  1  0  0  0  0
  4  5  1  0  0  0  0
  4 34  1  0  0  0  0
  4 44  1  6  0  0  0
  6  5  1  0  0  0  0
  6  7  1  0  0  0  0
  6 45  1  6  0  0  0
  7  8  1  0  0  0  0
  7 46  1  0  0  0  0
  7 47  1  0  0  0  0
  8  9  1  0  0  0  0
  8 48  1  0  0  0  0
  8 49  1  0  0  0  0
  9 10  1  6  0  0  0
  9 12  1  0  0  0  0
 10 11  2  0  0  0  0
 10 50  1  0  0  0  0
 12 13  1  0  0  0  0
 12 51  1  1  0  0  0
 13 14  1  0  0  0  0
 13 52  1  0  0  0  0
 13 53  1  0  0  0  0
 14 15  1  0  0  0  0
 14 54  1  0  0  0  0
 14 55  1  0  0  0  0
 15 16  1  6  0  0  0
 15 17  1  0  0  0  0
 16 56  1  0  0  0  0
 16 57  1  0  0  0  0
 16 58  1  0  0  0  0
 17 18  1  0  0  0  0
 17 24  1  0  0  0  0
 17 59  1  6  0  0  0
 18 19  2  0  0  0  0
 19 20  1  0  0  0  0
 19 60  1  0  0  0  0
 20 21  2  0  0  0  0
 20 22  1  0  0  0  0
 22 23  1  0  0  0  0
 23 18  1  0  0  0  0
 23 61  1  0  0  0  0
 23 62  1  0  0  0  0
 24 25  1  0  0  0  0
 24 63  1  0  0  0  0
 24 64  1  0  0  0  0
 25 26  1  0  0  0  0
 25 65  1  0  0  0  0
 25 66  1  0  0  0  0
 26 27  1  1  0  0  0
 26 28  1  0  0  0  0
 26 15  1  0  0  0  0
 27 67  1  0  0  0  0
 28 29  1  0  0  0  0
 28 12  1  0  0  0  0
 28 68  1  6  0  0  0
 29 30  1  0  0  0  0
 29 69  1  0  0  0  0
 29 70  1  0  0  0  0
 30 31  1  0  0  0  0
 30 71  1  0  0  0  0
 30 72  1  0  0  0  0
 31 32  1  1  0  0  0
 31 33  1  0  0  0  0
 31  9  1  0  0  0  0
 32 73  1  0  0  0  0
 33  6  1  0  0  0  0
 33 74  1  0  0  0  0
 33 75  1  0  0  0  0
 34 35  1  0  0  0  0
 34 36  1  0  0  0  0
 34 76  1  1  0  0  0
 35 77  1  0  0  0  0
 36 37  1  0  0  0  0
 36 38  1  0  0  0  0
 36 78  1  1  0  0  0
 37 79  1  0  0  0  0
 38 39  1  0  0  0  0
 38  2  1  0  0  0  0
 38 80  1  6  0  0  0
 39 81  1  0  0  0  0
M  END
>  <IDENTIFIER>
CNP0138077.29

>  <Energy>
1248.96

$$$$
