
 OpenBabel09092509023D

 96 95  0  0  0  0  0  0  0  0999 V2000
   13.9143    0.0118   -1.0777 C   0  0  0  0  0  0  0  0  0  0  0  0
   13.4687   -0.1252    0.3763 C   0  0  0  0  0  0  0  0  0  0  0  0
   12.5166    0.9966    0.8253 C   0  0  0  0  0  0  0  0  0  0  0  0
   11.1978    1.0962    0.0369 C   0  0  0  0  0  0  0  0  0  0  0  0
   10.3662   -0.1923    0.0939 C   0  0  0  0  0  0  0  0  0  0  0  0
    9.0216    0.0363   -0.5344 C   0  0  0  0  0  0  0  0  0  0  0  0
    8.5724   -0.6817   -1.5848 C   0  0  0  0  0  0  0  0  0  0  0  0
    7.2096   -0.4918   -2.2258 C   0  0  0  0  0  0  0  0  0  0  0  0
    6.4510    0.6759   -1.6384 C   0  0  0  0  0  0  0  0  0  0  0  0
    5.2983    0.6324   -0.9485 C   0  0  0  0  0  0  0  0  0  0  0  0
    4.4568   -0.5771   -0.6342 C   0  0  0  0  0  0  0  0  0  0  0  0
    4.4560   -0.8352    0.8843 C   0  0  0  0  0  0  0  0  0  0  0  0
    3.3777   -1.8447    1.3128 C   0  0  0  0  0  0  0  0  0  0  0  0
    1.9757   -1.2074    1.2874 C   0  0  0  0  0  0  0  0  0  0  0  0
    0.8829   -2.2249    1.6349 C   0  0  0  0  0  0  0  0  0  0  0  0
   -0.5182   -1.5923    1.7122 C   0  0  0  0  0  0  0  0  0  0  0  0
   -0.8873   -0.8286    0.4702 C   0  0  0  0  0  0  0  0  0  0  0  0
   -0.8507   -1.3753   -0.6233 O   0  0  0  0  0  0  0  0  0  0  0  0
   -1.3061    0.4587    0.5952 O   0  0  0  0  0  0  0  0  0  0  0  0
   -1.3906    1.3794   -0.4260 C   0  0  0  0  0  0  0  0  0  0  0  0
   -2.7961    1.8035   -0.8223 C   0  0  0  0  0  0  0  0  0  0  0  0
   -4.0380    1.3158   -0.4972 C   0  0  0  0  0  0  0  0  0  0  0  0
   -4.2764    0.1213    0.4151 C   0  0  0  0  0  0  0  0  0  0  0  0
   -5.0851    0.4692    1.4795 O   0  0  0  0  0  0  0  0  0  0  0  0
   -4.7424    1.3522    2.4534 C   0  0  0  0  0  0  0  0  0  0  0  0
   -5.7066    1.6376    3.5569 C   0  0  0  0  0  0  0  0  0  0  0  0
   -3.6563    1.9144    2.4414 O   0  0  0  0  0  0  0  0  0  0  0  0
   -5.2905    2.0089   -1.0774 C   0  0  2  0  0  0  0  0  0  0  0  0
   -6.0115    1.1763   -2.1628 C   0  0  0  0  0  0  0  0  0  0  0  0
   -6.9469    0.1086   -1.6222 C   0  0  0  0  0  0  0  0  0  0  0  0
   -8.2778    0.2817   -1.4211 C   0  0  0  0  0  0  0  0  0  0  0  0
   -9.0345    1.5690   -1.6618 C   0  0  0  0  0  0  0  0  0  0  0  0
   -9.0897   -0.8135   -0.9371 C   0  0  0  0  0  0  0  0  0  0  0  0
   -9.8181   -1.7162   -0.6034 C   0  0  0  0  0  0  0  0  0  0  0  0
  -10.7607   -2.7656   -0.2851 C   0  0  0  0  0  0  0  0  0  0  0  0
  -10.5775   -3.6910    0.6808 C   0  0  0  0  0  0  0  0  0  0  0  0
  -11.6518   -4.7164    0.9407 C   0  0  0  0  0  0  0  0  0  0  0  0
   -9.3351   -3.7578    1.5349 C   0  0  0  0  0  0  0  0  0  0  0  0
   -4.9492    3.2346   -1.6386 O   0  0  0  0  0  0  0  0  0  0  0  0
   -5.3860    4.4498   -1.2029 C   0  0  0  0  0  0  0  0  0  0  0  0
   -4.8847    5.6950   -1.8567 C   0  0  0  0  0  0  0  0  0  0  0  0
   -6.1748    4.5451   -0.2730 O   0  0  0  0  0  0  0  0  0  0  0  0
   14.6290   -0.8026   -1.3197 H   0  0  0  0  0  0  0  0  0  0  0  0
   14.4175    0.9889   -1.2360 H   0  0  0  0  0  0  0  0  0  0  0  0
   13.0493   -0.0754   -1.7667 H   0  0  0  0  0  0  0  0  0  0  0  0
   14.3710   -0.0887    1.0244 H   0  0  0  0  0  0  0  0  0  0  0  0
   12.9924   -1.1167    0.5252 H   0  0  0  0  0  0  0  0  0  0  0  0
   13.0444    1.9721    0.7459 H   0  0  0  0  0  0  0  0  0  0  0  0
   12.2742    0.8321    1.8981 H   0  0  0  0  0  0  0  0  0  0  0  0
   11.3958    1.3660   -1.0226 H   0  0  0  0  0  0  0  0  0  0  0  0
   10.6117    1.9271    0.4894 H   0  0  0  0  0  0  0  0  0  0  0  0
   10.1992   -0.4790    1.1540 H   0  0  0  0  0  0  0  0  0  0  0  0
   10.9045   -1.0178   -0.4184 H   0  0  0  0  0  0  0  0  0  0  0  0
    8.4114    0.8111   -0.0835 H   0  0  0  0  0  0  0  0  0  0  0  0
    9.2052   -1.4607   -2.0007 H   0  0  0  0  0  0  0  0  0  0  0  0
    6.6687   -1.4495   -2.1272 H   0  0  0  0  0  0  0  0  0  0  0  0
    7.3458   -0.2931   -3.3099 H   0  0  0  0  0  0  0  0  0  0  0  0
    6.9124    1.6527   -1.7581 H   0  0  0  0  0  0  0  0  0  0  0  0
    4.9252    1.5762   -0.5608 H   0  0  0  0  0  0  0  0  0  0  0  0
    4.7845   -1.5046   -1.1421 H   0  0  0  0  0  0  0  0  0  0  0  0
    3.4450   -0.3410   -1.0147 H   0  0  0  0  0  0  0  0  0  0  0  0
    4.2992    0.1047    1.4576 H   0  0  0  0  0  0  0  0  0  0  0  0
    5.4613   -1.2320    1.1495 H   0  0  0  0  0  0  0  0  0  0  0  0
    3.5787   -2.1577    2.3610 H   0  0  0  0  0  0  0  0  0  0  0  0
    3.4316   -2.7480    0.6656 H   0  0  0  0  0  0  0  0  0  0  0  0
    1.7573   -0.8028    0.2805 H   0  0  0  0  0  0  0  0  0  0  0  0
    1.9515   -0.3686    2.0177 H   0  0  0  0  0  0  0  0  0  0  0  0
    1.1009   -2.6977    2.6174 H   0  0  0  0  0  0  0  0  0  0  0  0
    0.8822   -3.0199    0.8576 H   0  0  0  0  0  0  0  0  0  0  0  0
   -0.5668   -0.8995    2.5816 H   0  0  0  0  0  0  0  0  0  0  0  0
   -1.2587   -2.4031    1.8771 H   0  0  0  0  0  0  0  0  0  0  0  0
   -0.8652    1.0282   -1.3408 H   0  0  0  0  0  0  0  0  0  0  0  0
   -0.8524    2.2867   -0.0769 H   0  0  0  0  0  0  0  0  0  0  0  0
   -2.7429    2.6379   -1.5128 H   0  0  0  0  0  0  0  0  0  0  0  0
   -3.3810   -0.3564    0.8153 H   0  0  0  0  0  0  0  0  0  0  0  0
   -4.7729   -0.6749   -0.1607 H   0  0  0  0  0  0  0  0  0  0  0  0
   -6.6332    1.0411    3.4198 H   0  0  0  0  0  0  0  0  0  0  0  0
   -5.9678    2.7163    3.5550 H   0  0  0  0  0  0  0  0  0  0  0  0
   -5.2467    1.3708    4.5313 H   0  0  0  0  0  0  0  0  0  0  0  0
   -6.0060    2.1938   -0.2465 H   0  0  0  0  0  0  0  0  0  0  0  0
   -5.2931    0.7493   -2.8951 H   0  0  0  0  0  0  0  0  0  0  0  0
   -6.6057    1.8639   -2.7902 H   0  0  0  0  0  0  0  0  0  0  0  0
   -6.5248   -0.8674   -1.4112 H   0  0  0  0  0  0  0  0  0  0  0  0
   -8.4254    2.4286   -1.9875 H   0  0  0  0  0  0  0  0  0  0  0  0
   -9.5357    1.8776   -0.7213 H   0  0  0  0  0  0  0  0  0  0  0  0
   -9.8125    1.3906   -2.4352 H   0  0  0  0  0  0  0  0  0  0  0  0
  -11.6774   -2.7747   -0.8671 H   0  0  0  0  0  0  0  0  0  0  0  0
  -12.5310   -4.5845    0.2732 H   0  0  0  0  0  0  0  0  0  0  0  0
  -12.0025   -4.6271    1.9906 H   0  0  0  0  0  0  0  0  0  0  0  0
  -11.2438   -5.7358    0.7809 H   0  0  0  0  0  0  0  0  0  0  0  0
   -8.5913   -2.9750    1.2832 H   0  0  0  0  0  0  0  0  0  0  0  0
   -8.8524   -4.7484    1.3979 H   0  0  0  0  0  0  0  0  0  0  0  0
   -9.6146   -3.6414    2.6030 H   0  0  0  0  0  0  0  0  0  0  0  0
   -4.1767    5.4448   -2.6737 H   0  0  0  0  0  0  0  0  0  0  0  0
   -4.3611    6.3220   -1.1041 H   0  0  0  0  0  0  0  0  0  0  0  0
   -5.7392    6.2661   -2.2763 H   0  0  0  0  0  0  0  0  0  0  0  0
  1  2  1  0  0  0  0
  1 43  1  0  0  0  0
  1 44  1  0  0  0  0
  1 45  1  0  0  0  0
  2  3  1  0  0  0  0
  2 46  1  0  0  0  0
  2 47  1  0  0  0  0
  3  4  1  0  0  0  0
  3 48  1  0  0  0  0
  3 49  1  0  0  0  0
  4  5  1  0  0  0  0
  4 50  1  0  0  0  0
  4 51  1  0  0  0  0
  5  6  1  0  0  0  0
  5 52  1  0  0  0  0
  5 53  1  0  0  0  0
  6  7  2  3  0  0  0
  6 54  1  0  0  0  0
  7  8  1  0  0  0  0
  7 55  1  0  0  0  0
  8  9  1  0  0  0  0
  8 56  1  0  0  0  0
  8 57  1  0  0  0  0
  9 10  2  3  0  0  0
  9 58  1  0  0  0  0
 10 11  1  0  0  0  0
 10 59  1  0  0  0  0
 11 12  1  0  0  0  0
 11 60  1  0  0  0  0
 11 61  1  0  0  0  0
 12 13  1  0  0  0  0
 12 62  1  0  0  0  0
 12 63  1  0  0  0  0
 13 14  1  0  0  0  0
 13 64  1  0  0  0  0
 13 65  1  0  0  0  0
 14 15  1  0  0  0  0
 14 66  1  0  0  0  0
 14 67  1  0  0  0  0
 15 16  1  0  0  0  0
 15 68  1  0  0  0  0
 15 69  1  0  0  0  0
 16 17  1  0  0  0  0
 16 70  1  0  0  0  0
 16 71  1  0  0  0  0
 17 18  2  0  0  0  0
 17 19  1  0  0  0  0
 19 20  1  0  0  0  0
 20 21  1  0  0  0  0
 20 72  1  0  0  0  0
 20 73  1  0  0  0  0
 21 22  2  3  0  0  0
 21 74  1  0  0  0  0
 22 23  1  0  0  0  0
 22 28  1  0  0  0  0
 23 24  1  0  0  0  0
 23 75  1  0  0  0  0
 23 76  1  0  0  0  0
 24 25  1  0  0  0  0
 25 26  1  0  0  0  0
 25 27  2  0  0  0  0
 26 77  1  0  0  0  0
 26 78  1  0  0  0  0
 26 79  1  0  0  0  0
 28 29  1  0  0  0  0
 28 39  1  0  0  0  0
 28 80  1  1  0  0  0
 29 30  1  0  0  0  0
 29 81  1  0  0  0  0
 29 82  1  0  0  0  0
 30 31  2  3  0  0  0
 30 83  1  0  0  0  0
 31 32  1  0  0  0  0
 31 33  1  0  0  0  0
 32 84  1  0  0  0  0
 32 85  1  0  0  0  0
 32 86  1  0  0  0  0
 33 34  3  0  0  0  0
 34 35  1  0  0  0  0
 35 36  2  0  0  0  0
 35 87  1  0  0  0  0
 36 37  1  0  0  0  0
 36 38  1  0  0  0  0
 37 88  1  0  0  0  0
 37 89  1  0  0  0  0
 37 90  1  0  0  0  0
 38 91  1  0  0  0  0
 38 92  1  0  0  0  0
 38 93  1  0  0  0  0
 39 40  1  0  0  0  0
 40 41  1  0  0  0  0
 40 42  2  0  0  0  0
 41 94  1  0  0  0  0
 41 95  1  0  0  0  0
 41 96  1  0  0  0  0
M  END
>  <IDENTIFIER>
CNP0435339.0

>  <Energy>
402.519

$$$$
