
 OpenBabel09062501573D

 48 51  0  0  0  0  0  0  0  0999 V2000
   -7.5084   -1.2523   -0.8483 C   0  0  0  0  0  0  0  0  0  0  0  0
   -6.7069    0.1313    0.0101 S   0  0  0  0  0  0  0  0  0  0  0  0
   -7.0197    1.4105   -0.7808 O   0  0  0  0  0  0  0  0  0  0  0  0
   -7.5303    0.4358    1.2713 O   0  0  0  0  0  0  0  0  0  0  0  0
   -4.9673    0.1986    0.4533 C   0  0  0  0  0  0  0  0  0  0  0  0
   -4.0072    0.3299   -0.5472 C   0  0  0  0  0  0  0  0  0  0  0  0
   -2.6498    0.3601   -0.2242 C   0  0  0  0  0  0  0  0  0  0  0  0
   -2.2095    0.2715    1.1165 C   0  0  0  0  0  0  0  0  0  0  0  0
   -0.7331    0.2571    1.4353 C   0  0  0  0  0  0  0  0  0  0  0  0
   -0.3857   -0.1252    2.5406 O   0  0  0  0  0  0  0  0  0  0  0  0
    0.3455    0.6290    0.4448 C   0  0  0  0  0  0  0  0  0  0  0  0
    1.5694    0.0105    0.4144 C   0  0  0  0  0  0  0  0  0  0  0  0
    1.9287   -1.3762    1.5562 S   0  0  0  0  0  0  0  0  0  0  0  0
    3.7245   -1.3670    1.5846 C   0  0  0  0  0  0  0  0  0  0  0  0
    4.4404   -0.3059    2.1554 C   0  0  0  0  0  0  0  0  0  0  0  0
    5.8411   -0.3336    2.1597 C   0  0  0  0  0  0  0  0  0  0  0  0
    6.5227   -1.4214    1.6036 C   0  0  0  0  0  0  0  0  0  0  0  0
    5.8073   -2.4816    1.0411 C   0  0  0  0  0  0  0  0  0  0  0  0
    4.4111   -2.4544    1.0312 C   0  0  0  0  0  0  0  0  0  0  0  0
    2.5949    0.4222   -0.6597 C   0  0  1  0  0  0  0  0  0  0  0  0
    2.1536   -0.1121   -2.0263 C   0  0  0  0  0  0  0  0  0  0  0  0
    1.1903    0.9440   -2.5896 C   0  0  0  0  0  0  0  0  0  0  0  0
    1.1842    2.0702   -1.5484 C   0  0  2  0  0  0  0  0  0  0  0  0
    2.5624    1.9386   -0.9003 C   0  0  0  0  0  0  0  0  0  0  0  0
    0.1433    1.7759   -0.4923 C   0  0  0  0  0  0  0  0  0  0  0  0
   -0.7946    2.5456   -0.3453 O   0  0  0  0  0  0  0  0  0  0  0  0
   -3.2044    0.1289    2.1281 C   0  0  0  0  0  0  0  0  0  0  0  0
   -2.8361   -0.0135    3.8474 Cl  0  0  0  0  0  0  0  0  0  0  0  0
   -4.5629    0.0962    1.7854 C   0  0  0  0  0  0  0  0  0  0  0  0
   -8.5994   -1.0622   -0.9185 H   0  0  0  0  0  0  0  0  0  0  0  0
   -7.3430   -2.1895   -0.2782 H   0  0  0  0  0  0  0  0  0  0  0  0
   -7.0907   -1.3470   -1.8719 H   0  0  0  0  0  0  0  0  0  0  0  0
   -4.3108    0.3956   -1.5846 H   0  0  0  0  0  0  0  0  0  0  0  0
   -1.9540    0.4281   -1.0457 H   0  0  0  0  0  0  0  0  0  0  0  0
    3.9182    0.5385    2.5866 H   0  0  0  0  0  0  0  0  0  0  0  0
    6.3979    0.4864    2.5940 H   0  0  0  0  0  0  0  0  0  0  0  0
    7.6051   -1.4437    1.6083 H   0  0  0  0  0  0  0  0  0  0  0  0
    6.3337   -3.3259    0.6126 H   0  0  0  0  0  0  0  0  0  0  0  0
    3.8619   -3.2791    0.5939 H   0  0  0  0  0  0  0  0  0  0  0  0
    3.6015    0.0394   -0.4226 H   0  0  0  0  0  0  0  0  0  0  0  0
    1.7697   -1.1552   -2.0151 H   0  0  0  0  0  0  0  0  0  0  0  0
    3.0558   -0.0997   -2.6808 H   0  0  0  0  0  0  0  0  0  0  0  0
    0.1701    0.5701   -2.8262 H   0  0  0  0  0  0  0  0  0  0  0  0
    1.6424    1.3288   -3.5319 H   0  0  0  0  0  0  0  0  0  0  0  0
    0.9622    3.0574   -2.0111 H   0  0  0  0  0  0  0  0  0  0  0  0
    2.6994    2.5490    0.0195 H   0  0  0  0  0  0  0  0  0  0  0  0
    3.3495    2.2220   -1.6365 H   0  0  0  0  0  0  0  0  0  0  0  0
   -5.3062   -0.0169    2.5645 H   0  0  0  0  0  0  0  0  0  0  0  0
  1  2  1  0  0  0  0
  1 30  1  0  0  0  0
  1 31  1  0  0  0  0
  1 32  1  0  0  0  0
  2  3  2  0  0  0  0
  2  4  2  0  0  0  0
  2  5  1  0  0  0  0
  5  6  2  0  0  0  0
  6  7  1  0  0  0  0
  6 33  1  0  0  0  0
  7  8  2  0  0  0  0
  7 34  1  0  0  0  0
  8  9  1  0  0  0  0
  8 27  1  0  0  0  0
  9 10  2  0  0  0  0
  9 11  1  0  0  0  0
 11 12  2  0  0  0  0
 12 13  1  0  0  0  0
 12 20  1  0  0  0  0
 13 14  1  0  0  0  0
 14 15  2  0  0  0  0
 15 16  1  0  0  0  0
 15 35  1  0  0  0  0
 16 17  2  0  0  0  0
 16 36  1  0  0  0  0
 17 18  1  0  0  0  0
 17 37  1  0  0  0  0
 18 19  2  0  0  0  0
 18 38  1  0  0  0  0
 19 14  1  0  0  0  0
 19 39  1  0  0  0  0
 20 21  1  0  0  0  0
 20 40  1  1  0  0  0
 21 22  1  0  0  0  0
 21 41  1  0  0  0  0
 21 42  1  0  0  0  0
 22 43  1  0  0  0  0
 22 44  1  0  0  0  0
 23 22  1  0  0  0  0
 23 24  1  0  0  0  0
 23 25  1  0  0  0  0
 23 45  1  6  0  0  0
 24 20  1  0  0  0  0
 24 46  1  0  0  0  0
 24 47  1  0  0  0  0
 25 26  2  0  0  0  0
 25 11  1  0  0  0  0
 27 28  1  0  0  0  0
 27 29  2  0  0  0  0
 29  5  1  0  0  0  0
 29 48  1  0  0  0  0
M  END
>  <IDENTIFIER>
CNP0579466.0

>  <Energy>
924.387

$$$$
