
 OpenBabel09062513363D

 39 42  0  0  0  0  0  0  0  0999 V2000
   -1.9569   -3.2035    0.0141 C   0  0  0  0  0  0  0  0  0  0  0  0
   -1.0694   -2.2230   -0.2367 C   0  0  0  0  0  0  0  0  0  0  0  0
    0.3239   -2.6824   -0.6761 C   0  0  0  0  0  0  0  0  0  0  0  0
    1.3603   -1.6148   -1.0386 C   0  0  0  0  0  0  0  0  0  0  0  0
    1.6728   -0.7093    0.1671 C   0  0  2  0  0  0  0  0  0  0  0  0
    0.6876    0.4487    0.5005 C   0  0  2  0  0  0  0  0  0  0  0  0
   -0.5994    0.3537   -0.3717 C   0  0  1  0  0  0  0  0  0  0  0  0
   -1.5422   -0.7744   -0.0435 C   0  0  2  0  0  0  0  0  0  0  0  0
   -2.0002   -0.4859    1.4071 C   0  0  0  0  0  0  0  0  0  0  0  0
   -2.1161    1.0367    1.3847 C   0  0  0  0  0  0  0  0  0  0  0  0
   -1.7077    1.3203   -0.0674 C   0  0  1  0  0  0  0  0  0  0  0  0
   -1.3904    2.7878   -0.3546 C   0  0  0  0  0  0  0  0  0  0  0  0
   -2.7549    0.8503   -0.8880 O   0  0  0  0  0  0  0  0  0  0  0  0
   -2.6434   -0.4872   -0.8814 O   0  0  0  0  0  0  0  0  0  0  0  0
    2.0889    0.7346   -0.0678 C   0  0  0  0  0  0  0  0  0  0  0  0
    2.2221    1.3395   -1.4783 C   0  0  0  0  0  0  0  0  0  0  0  0
    3.0854    1.2821    0.9627 C   0  0  0  0  0  0  0  0  0  0  0  0
   -1.6836   -4.2489   -0.0978 H   0  0  0  0  0  0  0  0  0  0  0  0
   -2.9707   -2.9819    0.3320 H   0  0  0  0  0  0  0  0  0  0  0  0
    0.2052   -3.3272   -1.5750 H   0  0  0  0  0  0  0  0  0  0  0  0
    0.7482   -3.3111    0.1379 H   0  0  0  0  0  0  0  0  0  0  0  0
    1.0230   -1.0924   -1.9480 H   0  0  0  0  0  0  0  0  0  0  0  0
    2.3048   -2.1257   -1.3228 H   0  0  0  0  0  0  0  0  0  0  0  0
    2.0622   -1.1917    1.0910 H   0  0  0  0  0  0  0  0  0  0  0  0
    0.5932    0.4880    1.6052 H   0  0  0  0  0  0  0  0  0  0  0  0
   -0.3894    0.3955   -1.4556 H   0  0  0  0  0  0  0  0  0  0  0  0
   -1.2212   -0.7938    2.1387 H   0  0  0  0  0  0  0  0  0  0  0  0
   -2.9567   -0.9918    1.6599 H   0  0  0  0  0  0  0  0  0  0  0  0
   -1.3929    1.4814    2.1026 H   0  0  0  0  0  0  0  0  0  0  0  0
   -3.1377    1.4154    1.6061 H   0  0  0  0  0  0  0  0  0  0  0  0
   -2.2799    3.4165   -0.1378 H   0  0  0  0  0  0  0  0  0  0  0  0
   -1.1146    2.9159   -1.4230 H   0  0  0  0  0  0  0  0  0  0  0  0
   -0.5440    3.1311    0.2772 H   0  0  0  0  0  0  0  0  0  0  0  0
    2.1061    2.4414   -1.4097 H   0  0  0  0  0  0  0  0  0  0  0  0
    1.5001    0.9844   -2.2296 H   0  0  0  0  0  0  0  0  0  0  0  0
    3.2379    1.1196   -1.8681 H   0  0  0  0  0  0  0  0  0  0  0  0
    2.9656    2.3823    1.0493 H   0  0  0  0  0  0  0  0  0  0  0  0
    4.1207    1.0586    0.6299 H   0  0  0  0  0  0  0  0  0  0  0  0
    2.9417    0.8372    1.9713 H   0  0  0  0  0  0  0  0  0  0  0  0
  1  2  2  0  0  0  0
  1 18  1  0  0  0  0
  1 19  1  0  0  0  0
  2  3  1  0  0  0  0
  3  4  1  0  0  0  0
  3 20  1  0  0  0  0
  3 21  1  0  0  0  0
  4 22  1  0  0  0  0
  4 23  1  0  0  0  0
  5  4  1  0  0  0  0
  5  6  1  0  0  0  0
  5 24  1  1  0  0  0
  6  7  1  0  0  0  0
  6 15  1  0  0  0  0
  6 25  1  1  0  0  0
  7  8  1  0  0  0  0
  7 11  1  0  0  0  0
  7 26  1  6  0  0  0
  8  9  1  0  0  0  0
  8  2  1  6  0  0  0
  8 14  1  0  0  0  0
  9 10  1  0  0  0  0
  9 27  1  0  0  0  0
  9 28  1  0  0  0  0
 10 11  1  0  0  0  0
 10 29  1  0  0  0  0
 10 30  1  0  0  0  0
 11 12  1  6  0  0  0
 11 13  1  0  0  0  0
 12 31  1  0  0  0  0
 12 32  1  0  0  0  0
 12 33  1  0  0  0  0
 13 14  1  0  0  0  0
 15 16  1  0  0  0  0
 15 17  1  0  0  0  0
 15  5  1  0  0  0  0
 16 34  1  0  0  0  0
 16 35  1  0  0  0  0
 16 36  1  0  0  0  0
 17 37  1  0  0  0  0
 17 38  1  0  0  0  0
 17 39  1  0  0  0  0
M  END
>  <IDENTIFIER>
CNP0199215.1

>  <Energy>
1840.74

$$$$
