
 OpenBabel09072503083D

 67 72  0  0  0  0  0  0  0  0999 V2000
    3.2744    3.7913    0.6743 C   0  0  0  0  0  0  0  0  0  0  0  0
    1.8589    3.3189    0.6142 C   0  0  0  0  0  0  0  0  0  0  0  0
    0.9715    4.0298    1.0653 O   0  0  0  0  0  0  0  0  0  0  0  0
    1.5738    2.1148    0.0431 O   0  0  0  0  0  0  0  0  0  0  0  0
    0.3241    1.5123    0.0472 C   0  0  1  0  0  0  0  0  0  0  0  0
   -0.2941    1.5912   -1.3523 C   0  0  0  0  0  0  0  0  0  0  0  0
   -1.7486    1.1021   -1.2832 C   0  0  0  0  0  0  0  0  0  0  0  0
   -1.8928   -0.3939   -0.8608 C   0  0  2  0  0  0  0  0  0  0  0  0
   -1.4710   -1.2706   -2.0810 C   0  0  0  0  0  0  0  0  0  0  0  0
   -3.4291   -0.6122   -0.5765 C   0  0  2  0  0  0  0  0  0  0  0  0
   -3.8984   -2.0080   -0.1875 C   0  0  0  0  0  0  0  0  0  0  0  0
   -5.3844   -1.8532   -0.3426 C   0  0  1  0  0  0  0  0  0  0  0  0
   -6.0775   -1.1179    0.7526 C   0  0  0  0  0  0  0  0  0  0  0  0
   -6.6598   -0.0049    0.2151 C   0  0  0  0  0  0  0  0  0  0  0  0
   -6.3766    0.1160   -1.0899 O   0  0  0  0  0  0  0  0  0  0  0  0
   -5.4911   -0.8602   -1.5053 C   0  0  1  0  0  0  0  0  0  0  0  0
   -4.2168   -0.2644   -1.7028 O   0  0  0  0  0  0  0  0  0  0  0  0
   -1.0409   -0.6247    0.4737 C   0  0  1  0  0  0  0  0  0  0  0  0
   -0.9221   -2.1155    0.9456 C   0  0  0  0  0  0  0  0  0  0  0  0
    0.5221   -2.4250    1.4053 C   0  0  2  0  0  0  0  0  0  0  0  0
    0.9248   -1.5163    2.5789 C   0  0  0  0  0  0  0  0  0  0  0  0
    0.8017   -0.0800    2.0673 C   0  0  1  0  0  0  0  0  0  0  0  0
    0.6521    0.9955    3.0860 C   0  0  0  0  0  0  0  0  0  0  0  0
    1.8895    0.7184    2.4575 O   0  0  0  0  0  0  0  0  0  0  0  0
    0.3898    0.0394    0.5613 C   0  0  2  0  0  0  0  0  0  0  0  0
    1.4296   -0.8784   -0.1798 C   0  0  1  0  0  0  0  0  0  0  0  0
    2.7135   -0.3818   -0.0056 O   0  0  0  0  0  0  0  0  0  0  0  0
    3.5658    0.0088   -0.9920 C   0  0  0  0  0  0  0  0  0  0  0  0
    3.2278   -0.0429   -2.1676 O   0  0  0  0  0  0  0  0  0  0  0  0
    4.9355    0.5233   -0.6050 C   0  0  0  0  0  0  0  0  0  0  0  0
    5.7499    0.9921   -1.8197 C   0  0  0  0  0  0  0  0  0  0  0  0
    5.7046   -0.5550    0.1642 C   0  0  0  0  0  0  0  0  0  0  0  0
    1.4115   -2.2293    0.3063 O   0  0  0  0  0  0  0  0  0  0  0  0
    3.3327    4.7971    1.1425 H   0  0  0  0  0  0  0  0  0  0  0  0
    3.6939    3.8455   -0.3516 H   0  0  0  0  0  0  0  0  0  0  0  0
    3.8699    3.0864    1.2880 H   0  0  0  0  0  0  0  0  0  0  0  0
   -0.3706    2.0790    0.7056 H   0  0  0  0  0  0  0  0  0  0  0  0
    0.3038    1.0328   -2.0998 H   0  0  0  0  0  0  0  0  0  0  0  0
   -0.3090    2.6565   -1.6711 H   0  0  0  0  0  0  0  0  0  0  0  0
   -2.2413    1.2774   -2.2650 H   0  0  0  0  0  0  0  0  0  0  0  0
   -2.2723    1.7511   -0.5450 H   0  0  0  0  0  0  0  0  0  0  0  0
   -2.1316   -1.0546   -2.9475 H   0  0  0  0  0  0  0  0  0  0  0  0
   -1.5552   -2.3557   -1.8962 H   0  0  0  0  0  0  0  0  0  0  0  0
   -0.4574   -1.0735   -2.4498 H   0  0  0  0  0  0  0  0  0  0  0  0
   -3.7080    0.0844    0.2504 H   0  0  0  0  0  0  0  0  0  0  0  0
   -3.6106   -2.3800    0.8124 H   0  0  0  0  0  0  0  0  0  0  0  0
   -3.5649   -2.7266   -0.9647 H   0  0  0  0  0  0  0  0  0  0  0  0
   -5.9204   -2.8181   -0.4754 H   0  0  0  0  0  0  0  0  0  0  0  0
   -6.1619   -1.4276    1.7857 H   0  0  0  0  0  0  0  0  0  0  0  0
   -7.2619    0.7029    0.7684 H   0  0  0  0  0  0  0  0  0  0  0  0
   -5.8207   -1.3751   -2.4326 H   0  0  0  0  0  0  0  0  0  0  0  0
   -1.6020   -0.0693    1.2621 H   0  0  0  0  0  0  0  0  0  0  0  0
   -1.1300   -2.8296    0.1309 H   0  0  0  0  0  0  0  0  0  0  0  0
   -1.6355   -2.3196    1.7715 H   0  0  0  0  0  0  0  0  0  0  0  0
    0.5845   -3.4860    1.7309 H   0  0  0  0  0  0  0  0  0  0  0  0
    1.9676   -1.7452    2.8898 H   0  0  0  0  0  0  0  0  0  0  0  0
    0.2399   -1.6843    3.4386 H   0  0  0  0  0  0  0  0  0  0  0  0
    0.7576    0.7244    4.1572 H   0  0  0  0  0  0  0  0  0  0  0  0
    0.3578    2.0212    2.7978 H   0  0  0  0  0  0  0  0  0  0  0  0
    1.1949   -0.9193   -1.2474 H   0  0  0  0  0  0  0  0  0  0  0  0
    4.7977    1.3941    0.0645 H   0  0  0  0  0  0  0  0  0  0  0  0
    5.9290    0.1508   -2.5232 H   0  0  0  0  0  0  0  0  0  0  0  0
    6.7304    1.3969   -1.4892 H   0  0  0  0  0  0  0  0  0  0  0  0
    5.2066    1.8014   -2.3533 H   0  0  0  0  0  0  0  0  0  0  0  0
    5.8663   -1.4506   -0.4733 H   0  0  0  0  0  0  0  0  0  0  0  0
    5.1406   -0.8574    1.0727 H   0  0  0  0  0  0  0  0  0  0  0  0
    6.6917   -0.1619    0.4893 H   0  0  0  0  0  0  0  0  0  0  0  0
  1  2  1  0  0  0  0
  1 34  1  0  0  0  0
  1 35  1  0  0  0  0
  1 36  1  0  0  0  0
  2  3  2  0  0  0  0
  2  4  1  0  0  0  0
  5  4  1  0  0  0  0
  5  6  1  0  0  0  0
  5 37  1  1  0  0  0
  6  7  1  0  0  0  0
  6 38  1  0  0  0  0
  6 39  1  0  0  0  0
  7  8  1  0  0  0  0
  7 40  1  0  0  0  0
  7 41  1  0  0  0  0
  8  9  1  6  0  0  0
  8 10  1  0  0  0  0
  8 18  1  0  0  0  0
  9 42  1  0  0  0  0
  9 43  1  0  0  0  0
  9 44  1  0  0  0  0
 10 11  1  0  0  0  0
 10 45  1  1  0  0  0
 11 46  1  0  0  0  0
 11 47  1  0  0  0  0
 12 11  1  0  0  0  0
 12 13  1  0  0  0  0
 12 48  1  6  0  0  0
 13 14  2  0  0  0  0
 13 49  1  0  0  0  0
 14 15  1  0  0  0  0
 14 50  1  0  0  0  0
 16 15  1  0  0  0  0
 16 17  1  0  0  0  0
 16 12  1  0  0  0  0
 16 51  1  6  0  0  0
 17 10  1  0  0  0  0
 18 19  1  0  0  0  0
 18 52  1  1  0  0  0
 19 53  1  0  0  0  0
 19 54  1  0  0  0  0
 20 19  1  0  0  0  0
 20 21  1  0  0  0  0
 20 55  1  1  0  0  0
 21 22  1  0  0  0  0
 21 56  1  0  0  0  0
 21 57  1  0  0  0  0
 22 23  1  0  0  0  0
 22 24  1  6  0  0  0
 23 24  1  0  0  0  0
 23 58  1  0  0  0  0
 23 59  1  0  0  0  0
 25 22  1  0  0  0  0
 25 26  1  0  0  0  0
 25  5  1  0  0  0  0
 25 18  1  0  0  0  0
 26 27  1  0  0  0  0
 26 33  1  0  0  0  0
 26 60  1  0  0  0  0
 27 28  1  0  0  0  0
 28 29  2  0  0  0  0
 28 30  1  0  0  0  0
 30 31  1  0  0  0  0
 30 32  1  0  0  0  0
 30 61  1  0  0  0  0
 31 62  1  0  0  0  0
 31 63  1  0  0  0  0
 31 64  1  0  0  0  0
 32 65  1  0  0  0  0
 32 66  1  0  0  0  0
 32 67  1  0  0  0  0
 33 20  1  0  0  0  0
M  END
>  <IDENTIFIER>
CNP0255032.1

>  <Energy>
2235.98

$$$$
