
 OpenBabel09092519593D

 47 49  0  0  0  0  0  0  0  0999 V2000
   -2.5284   -0.0725    1.3604 C   0  0  0  0  0  0  0  0  0  0  0  0
   -2.3588   -0.1799    0.0216 C   0  0  0  0  0  0  0  0  0  0  0  0
   -2.1239    1.0591   -0.8410 C   0  0  0  0  0  0  0  0  0  0  0  0
   -1.5082    2.2149   -0.0676 C   0  0  0  0  0  0  0  0  0  0  0  0
   -2.1474    3.3885    0.1789 C   0  0  0  0  0  0  0  0  0  0  0  0
   -3.5485    3.7600   -0.2331 C   0  0  0  0  0  0  0  0  0  0  0  0
   -0.1116    2.0132    0.4322 C   0  0  0  0  0  0  0  0  0  0  0  0
    0.4032    2.8405    1.1725 O   0  0  0  0  0  0  0  0  0  0  0  0
    0.5984    0.9269    0.0120 O   0  0  0  0  0  0  0  0  0  0  0  0
    1.9198    0.6583    0.3352 C   0  0  2  0  0  0  0  0  0  0  0  0
    2.8817    1.7512   -0.1000 C   0  0  0  0  0  0  0  0  0  0  0  0
    4.1955    1.0153    0.0638 C   0  0  0  0  0  0  0  0  0  0  0  0
    3.9526   -0.3056   -0.5402 N   0  0  1  0  0  0  0  0  0  0  0  0
    4.6070   -1.4294    0.1550 C   0  0  0  0  0  0  0  0  0  0  0  0
    3.5120   -2.3503    0.5470 C   0  0  0  0  0  0  0  0  0  0  0  0
    2.3318   -1.8677    0.2062 C   0  0  0  0  0  0  0  0  0  0  0  0
    1.0518   -2.6139    0.4571 C   0  0  0  0  0  0  0  0  0  0  0  0
   -0.0244   -1.9423   -0.0799 O   0  0  0  0  0  0  0  0  0  0  0  0
   -1.3025   -2.3985   -0.0124 C   0  0  0  0  0  0  0  0  0  0  0  0
   -1.5579   -3.4521    0.5576 O   0  0  0  0  0  0  0  0  0  0  0  0
   -2.4087   -1.5625   -0.6316 C   0  0  1  0  0  0  0  0  0  0  0  0
   -3.8078   -2.1880   -0.4296 C   0  0  0  0  0  0  0  0  0  0  0  0
   -2.1705   -1.4442   -2.0151 O   0  0  0  0  0  0  0  0  0  0  0  0
    2.4966   -0.5349   -0.4528 C   0  0  1  0  0  0  0  0  0  0  0  0
   -2.5130    0.8838    1.8711 H   0  0  0  0  0  0  0  0  0  0  0  0
   -2.6917   -0.9495    1.9780 H   0  0  0  0  0  0  0  0  0  0  0  0
   -3.0707    1.2755   -1.3632 H   0  0  0  0  0  0  0  0  0  0  0  0
   -1.3997    0.8306   -1.6515 H   0  0  0  0  0  0  0  0  0  0  0  0
   -1.6245    4.1626    0.7330 H   0  0  0  0  0  0  0  0  0  0  0  0
   -4.1037    2.9787   -0.7768 H   0  0  0  0  0  0  0  0  0  0  0  0
   -3.5057    4.6611   -0.8794 H   0  0  0  0  0  0  0  0  0  0  0  0
   -4.1332    4.0054    0.6774 H   0  0  0  0  0  0  0  0  0  0  0  0
    2.0401    0.5009    1.4335 H   0  0  0  0  0  0  0  0  0  0  0  0
    2.8299    2.6912    0.4880 H   0  0  0  0  0  0  0  0  0  0  0  0
    2.7240    1.9808   -1.1790 H   0  0  0  0  0  0  0  0  0  0  0  0
    4.3980    0.9280    1.1576 H   0  0  0  0  0  0  0  0  0  0  0  0
    5.0458    1.5426   -0.4171 H   0  0  0  0  0  0  0  0  0  0  0  0
    5.1828   -1.1227    1.0547 H   0  0  0  0  0  0  0  0  0  0  0  0
    5.2882   -1.9482   -0.5517 H   0  0  0  0  0  0  0  0  0  0  0  0
    3.6623   -3.3032    1.0385 H   0  0  0  0  0  0  0  0  0  0  0  0
    0.9141   -2.7454    1.5527 H   0  0  0  0  0  0  0  0  0  0  0  0
    1.1268   -3.6135   -0.0252 H   0  0  0  0  0  0  0  0  0  0  0  0
   -3.8578   -3.1885   -0.9105 H   0  0  0  0  0  0  0  0  0  0  0  0
   -4.5831   -1.5405   -0.8926 H   0  0  0  0  0  0  0  0  0  0  0  0
   -4.0506   -2.3137    0.6465 H   0  0  0  0  0  0  0  0  0  0  0  0
   -2.1292   -2.3599   -2.3995 H   0  0  0  0  0  0  0  0  0  0  0  0
    2.0999   -0.5421   -1.4925 H   0  0  0  0  0  0  0  0  0  0  0  0
  1  2  2  0  0  0  0
  1 25  1  0  0  0  0
  1 26  1  0  0  0  0
  2  3  1  0  0  0  0
  3  4  1  0  0  0  0
  3 27  1  0  0  0  0
  3 28  1  0  0  0  0
  4  5  2  0  0  0  0
  4  7  1  0  0  0  0
  5  6  1  0  0  0  0
  5 29  1  0  0  0  0
  6 30  1  0  0  0  0
  6 31  1  0  0  0  0
  6 32  1  0  0  0  0
  7  8  2  0  0  0  0
  7  9  1  0  0  0  0
  9 10  1  0  0  0  0
 10 11  1  0  0  0  0
 10 33  1  1  0  0  0
 11 12  1  0  0  0  0
 11 34  1  0  0  0  0
 11 35  1  0  0  0  0
 12 36  1  0  0  0  0
 12 37  1  0  0  0  0
 13 12  1  1  0  0  0
 13 14  1  0  0  0  0
 14 15  1  0  0  0  0
 14 38  1  0  0  0  0
 14 39  1  0  0  0  0
 15 16  2  0  0  0  0
 15 40  1  0  0  0  0
 16 17  1  0  0  0  0
 16 24  1  0  0  0  0
 17 18  1  0  0  0  0
 17 41  1  0  0  0  0
 17 42  1  0  0  0  0
 18 19  1  0  0  0  0
 19 20  2  0  0  0  0
 19 21  1  0  0  0  0
 21 22  1  0  0  0  0
 21 23  1  6  0  0  0
 21  2  1  0  0  0  0
 22 43  1  0  0  0  0
 22 44  1  0  0  0  0
 22 45  1  0  0  0  0
 23 46  1  0  0  0  0
 24 10  1  0  0  0  0
 24 13  1  0  0  0  0
 24 47  1  6  0  0  0
M  END
>  <IDENTIFIER>
CNP0189357.8

>  <Energy>
410.928

$$$$
