
 OpenBabel09082521453D

 52 56  0  0  0  0  0  0  0  0999 V2000
    5.8681    0.0255   -0.1109 C   0  0  0  0  0  0  0  0  0  0  0  0
    4.6803   -0.5100    0.3442 O   0  0  0  0  0  0  0  0  0  0  0  0
    3.4397    0.0253    0.1903 C   0  0  0  0  0  0  0  0  0  0  0  0
    3.2653    1.2755   -0.4162 C   0  0  0  0  0  0  0  0  0  0  0  0
    1.9990    1.8158   -0.5937 C   0  0  0  0  0  0  0  0  0  0  0  0
    0.8396    1.1327   -0.1761 C   0  0  0  0  0  0  0  0  0  0  0  0
   -0.5381    1.6968   -0.4139 C   0  0  0  0  0  0  0  0  0  0  0  0
   -0.7996    2.8546   -1.1872 C   0  0  0  0  0  0  0  0  0  0  0  0
    0.0484    3.6491   -1.8503 O   0  0  0  0  0  0  0  0  0  0  0  0
   -0.6770    4.6675   -2.4566 C   0  0  0  0  0  0  0  0  0  0  0  0
   -2.0060    4.4364   -2.1334 O   0  0  0  0  0  0  0  0  0  0  0  0
   -2.0488    3.3422   -1.3694 C   0  0  0  0  0  0  0  0  0  0  0  0
   -3.1666    2.7571   -0.8060 C   0  0  0  0  0  0  0  0  0  0  0  0
   -2.9833    1.6176   -0.0087 C   0  0  0  0  0  0  0  0  0  0  0  0
   -1.6742    1.0639    0.1631 C   0  0  0  0  0  0  0  0  0  0  0  0
   -1.4982   -0.1400    1.0596 C   0  0  2  0  0  0  0  0  0  0  0  0
   -0.1950   -0.9677    0.8738 C   0  0  1  0  0  0  0  0  0  0  0  0
   -0.3184   -1.9910   -0.0503 O   0  0  0  0  0  0  0  0  0  0  0  0
   -0.1642   -3.3184    0.2266 C   0  0  0  0  0  0  0  0  0  0  0  0
   -0.2714   -4.3234   -0.8731 C   0  0  0  0  0  0  0  0  0  0  0  0
    0.0527   -3.7094    1.3661 O   0  0  0  0  0  0  0  0  0  0  0  0
    1.0022   -0.1313    0.4550 C   0  0  0  0  0  0  0  0  0  0  0  0
    2.2978   -0.6869    0.6346 C   0  0  0  0  0  0  0  0  0  0  0  0
    2.3776   -1.9076    1.2402 O   0  0  0  0  0  0  0  0  0  0  0  0
    3.5011   -2.6367    1.5676 C   0  0  0  0  0  0  0  0  0  0  0  0
   -2.7478   -0.9475    1.2122 N   0  0  0  0  0  0  0  0  0  0  0  0
   -3.1790   -1.6626   -0.0127 C   0  0  0  0  0  0  0  0  0  0  0  0
   -3.8258   -0.0597    1.6879 C   0  0  0  0  0  0  0  0  0  0  0  0
   -4.1993    1.0033    0.6414 C   0  0  0  0  0  0  0  0  0  0  0  0
    6.6999   -0.6553    0.1630 H   0  0  0  0  0  0  0  0  0  0  0  0
    6.0516    1.0153    0.3574 H   0  0  0  0  0  0  0  0  0  0  0  0
    5.8431    0.1227   -1.2177 H   0  0  0  0  0  0  0  0  0  0  0  0
    4.1132    1.8482   -0.7672 H   0  0  0  0  0  0  0  0  0  0  0  0
    1.9697    2.7764   -1.0688 H   0  0  0  0  0  0  0  0  0  0  0  0
   -0.5396    4.6322   -3.5578 H   0  0  0  0  0  0  0  0  0  0  0  0
   -0.3533    5.6542   -2.0615 H   0  0  0  0  0  0  0  0  0  0  0  0
   -4.1486    3.1871   -0.9613 H   0  0  0  0  0  0  0  0  0  0  0  0
   -1.3023    0.3643    2.0357 H   0  0  0  0  0  0  0  0  0  0  0  0
    0.0019   -1.3878    1.8876 H   0  0  0  0  0  0  0  0  0  0  0  0
   -0.4707   -3.8174   -1.8399 H   0  0  0  0  0  0  0  0  0  0  0  0
   -1.1022   -5.0267   -0.6532 H   0  0  0  0  0  0  0  0  0  0  0  0
    0.6786   -4.8934   -0.9494 H   0  0  0  0  0  0  0  0  0  0  0  0
    3.1852   -3.5753    2.0670 H   0  0  0  0  0  0  0  0  0  0  0  0
    4.1369   -2.0652    2.2769 H   0  0  0  0  0  0  0  0  0  0  0  0
    4.0689   -2.9071    0.6528 H   0  0  0  0  0  0  0  0  0  0  0  0
   -2.5951   -2.5805   -0.1716 H   0  0  0  0  0  0  0  0  0  0  0  0
   -3.1086   -1.0230   -0.9188 H   0  0  0  0  0  0  0  0  0  0  0  0
   -4.2265   -2.0206    0.0886 H   0  0  0  0  0  0  0  0  0  0  0  0
   -3.4805    0.4534    2.6130 H   0  0  0  0  0  0  0  0  0  0  0  0
   -4.7288   -0.6404    1.9787 H   0  0  0  0  0  0  0  0  0  0  0  0
   -4.8084    1.7764    1.1585 H   0  0  0  0  0  0  0  0  0  0  0  0
   -4.8219    0.5641   -0.1676 H   0  0  0  0  0  0  0  0  0  0  0  0
  1  2  1  0  0  0  0
  1 30  1  0  0  0  0
  1 31  1  0  0  0  0
  1 32  1  0  0  0  0
  2  3  1  0  0  0  0
  3  4  2  0  0  0  0
  4  5  1  0  0  0  0
  4 33  1  0  0  0  0
  5  6  2  0  0  0  0
  5 34  1  0  0  0  0
  6  7  1  0  0  0  0
  7  8  2  0  0  0  0
  8  9  1  0  0  0  0
  9 10  1  0  0  0  0
 10 11  1  0  0  0  0
 10 35  1  0  0  0  0
 10 36  1  0  0  0  0
 11 12  1  0  0  0  0
 12 13  2  0  0  0  0
 12  8  1  0  0  0  0
 13 14  1  0  0  0  0
 13 37  1  0  0  0  0
 14 15  2  0  0  0  0
 15 16  1  0  0  0  0
 15  7  1  0  0  0  0
 16 17  1  0  0  0  0
 16 26  1  0  0  0  0
 16 38  1  1  0  0  0
 17 18  1  0  0  0  0
 17 22  1  0  0  0  0
 17 39  1  1  0  0  0
 18 19  1  0  0  0  0
 19 20  1  0  0  0  0
 19 21  2  0  0  0  0
 20 40  1  0  0  0  0
 20 41  1  0  0  0  0
 20 42  1  0  0  0  0
 22 23  2  0  0  0  0
 22  6  1  0  0  0  0
 23 24  1  0  0  0  0
 23  3  1  0  0  0  0
 24 25  1  0  0  0  0
 25 43  1  0  0  0  0
 25 44  1  0  0  0  0
 25 45  1  0  0  0  0
 26 27  1  0  0  0  0
 26 28  1  0  0  0  0
 27 46  1  0  0  0  0
 27 47  1  0  0  0  0
 27 48  1  0  0  0  0
 28 29  1  0  0  0  0
 28 49  1  0  0  0  0
 28 50  1  0  0  0  0
 29 14  1  0  0  0  0
 29 51  1  0  0  0  0
 29 52  1  0  0  0  0
M  END
>  <IDENTIFIER>
CNP0426425.1

>  <Energy>
551.24

$$$$
