
 OpenBabel09122521503D

 41 43  0  0  0  0  0  0  0  0999 V2000
   -1.9072    1.2810   -2.9933 C   0  0  0  0  0  0  0  0  0  0  0  0
   -1.3298    0.9751   -1.6432 C   0  0  0  0  0  0  0  0  0  0  0  0
   -0.1066    1.4698   -1.2536 C   0  0  0  0  0  0  0  0  0  0  0  0
    0.4072    1.0521    0.1270 C   0  0  2  0  0  0  0  0  0  0  0  0
   -0.7661    0.4001    0.9705 C   0  0  1  0  0  0  0  0  0  0  0  0
   -2.1218    1.0609    0.6174 C   0  0  0  0  0  0  0  0  0  0  0  0
   -2.1370    0.1411   -0.6119 C   0  0  2  0  0  0  0  0  0  0  0  0
   -1.2649   -0.8835    0.2226 C   0  0  2  0  0  0  0  0  0  0  0  0
   -2.0829   -1.8035    1.1820 C   0  0  0  0  0  0  0  0  0  0  0  0
   -2.7788   -2.7847    0.4611 O   0  0  0  0  0  0  0  0  0  0  0  0
   -0.2274   -1.7799   -0.5652 C   0  0  0  0  0  0  0  0  0  0  0  0
    1.1151   -2.0767    0.1924 C   0  0  0  0  0  0  0  0  0  0  0  0
    1.7413   -0.9657    1.1176 C   0  0  0  0  0  0  0  0  0  0  0  0
    1.8300    0.5498    0.6169 C   0  0  1  0  0  0  0  0  0  0  0  0
    2.9521    0.6887   -0.4651 C   0  0  0  0  0  0  0  0  0  0  0  0
    2.2415    1.4210    1.8316 C   0  0  0  0  0  0  0  0  0  0  0  0
    2.2960    2.7821    1.4860 O   0  0  0  0  0  0  0  0  0  0  0  0
   -1.2181    1.9076   -3.5989 H   0  0  0  0  0  0  0  0  0  0  0  0
   -2.8655    1.8268   -2.8684 H   0  0  0  0  0  0  0  0  0  0  0  0
   -2.0957    0.3321   -3.5369 H   0  0  0  0  0  0  0  0  0  0  0  0
    0.4931    2.0958   -1.9131 H   0  0  0  0  0  0  0  0  0  0  0  0
    0.6697    0.3166   -0.5772 H   0  0  0  0  0  0  0  0  0  0  0  0
   -0.5577    0.3685    2.0596 H   0  0  0  0  0  0  0  0  0  0  0  0
   -2.1628    2.1665    0.4902 H   0  0  0  0  0  0  0  0  0  0  0  0
   -2.9114    0.7630    1.3369 H   0  0  0  0  0  0  0  0  0  0  0  0
   -3.1184   -0.1848   -1.0177 H   0  0  0  0  0  0  0  0  0  0  0  0
   -2.7932   -1.2758    1.8507 H   0  0  0  0  0  0  0  0  0  0  0  0
   -1.3779   -2.3152    1.8707 H   0  0  0  0  0  0  0  0  0  0  0  0
   -3.5836   -2.3430    0.0843 H   0  0  0  0  0  0  0  0  0  0  0  0
    0.0387   -1.3011   -1.5293 H   0  0  0  0  0  0  0  0  0  0  0  0
   -0.6842   -2.7188   -0.9433 H   0  0  0  0  0  0  0  0  0  0  0  0
    1.8570   -2.3881   -0.5738 H   0  0  0  0  0  0  0  0  0  0  0  0
    0.9520   -2.9551    0.8540 H   0  0  0  0  0  0  0  0  0  0  0  0
    2.7418   -1.3117    1.4578 H   0  0  0  0  0  0  0  0  0  0  0  0
    1.1245   -0.9828    2.0379 H   0  0  0  0  0  0  0  0  0  0  0  0
    3.9345    0.3771   -0.0500 H   0  0  0  0  0  0  0  0  0  0  0  0
    3.0313    1.7373   -0.8212 H   0  0  0  0  0  0  0  0  0  0  0  0
    2.7413    0.0444   -1.3460 H   0  0  0  0  0  0  0  0  0  0  0  0
    3.2201    1.0823    2.2473 H   0  0  0  0  0  0  0  0  0  0  0  0
    1.5105    1.3135    2.6600 H   0  0  0  0  0  0  0  0  0  0  0  0
    3.2388    2.9880    1.2537 H   0  0  0  0  0  0  0  0  0  0  0  0
  1  2  1  0  0  0  0
  1 18  1  0  0  0  0
  1 19  1  0  0  0  0
  1 20  1  0  0  0  0
  2  3  2  0  0  0  0
  3 21  1  0  0  0  0
  4  3  1  0  0  0  0
  4  5  1  0  0  0  0
  4 22  1  6  0  0  0
  5  6  1  0  0  0  0
  5 23  1  1  0  0  0
  6 24  1  0  0  0  0
  6 25  1  0  0  0  0
  7  6  1  0  0  0  0
  7  8  1  0  0  0  0
  7  2  1  0  0  0  0
  7 26  1  6  0  0  0
  8  9  1  1  0  0  0
  8 11  1  0  0  0  0
  8  5  1  0  0  0  0
  9 10  1  0  0  0  0
  9 27  1  0  0  0  0
  9 28  1  0  0  0  0
 10 29  1  0  0  0  0
 11 12  1  0  0  0  0
 11 30  1  0  0  0  0
 11 31  1  0  0  0  0
 12 13  1  0  0  0  0
 12 32  1  0  0  0  0
 12 33  1  0  0  0  0
 13 14  1  0  0  0  0
 13 34  1  0  0  0  0
 13 35  1  0  0  0  0
 14 15  1  6  0  0  0
 14 16  1  0  0  0  0
 14  4  1  0  0  0  0
 15 36  1  0  0  0  0
 15 37  1  0  0  0  0
 15 38  1  0  0  0  0
 16 17  1  0  0  0  0
 16 39  1  0  0  0  0
 16 40  1  0  0  0  0
 17 41  1  0  0  0  0
M  END
>  <IDENTIFIER>
CNP0281118.1

>  <Energy>
1332.05

$$$$
