
 OpenBabel09122503383D

 70 74  0  0  0  0  0  0  0  0999 V2000
    0.4399    2.0647   -2.6792 C   0  0  0  0  0  0  0  0  0  0  0  0
    0.2467    2.2434   -1.1707 C   0  0  1  0  0  0  0  0  0  0  0  0
   -0.5893    3.4586   -0.8360 C   0  0  0  0  0  0  0  0  0  0  0  0
   -1.9537    3.4389   -0.9034 C   0  0  0  0  0  0  0  0  0  0  0  0
   -2.7027    2.2453   -1.3884 C   0  0  0  0  0  0  0  0  0  0  0  0
   -2.0007    0.8829   -0.9924 C   0  0  1  0  0  0  0  0  0  0  0  0
   -0.5038    1.0711   -0.4751 C   0  0  1  0  0  0  0  0  0  0  0  0
    0.1880   -0.3028   -0.5373 C   0  0  1  0  0  0  0  0  0  0  0  0
    1.5550   -0.2431   -0.3086 O   0  0  0  0  0  0  0  0  0  0  0  0
    2.4691   -0.7337   -1.2005 C   0  0  0  0  0  0  0  0  0  0  0  0
    2.1085   -1.2558   -2.2465 O   0  0  0  0  0  0  0  0  0  0  0  0
    3.9084   -0.6884   -0.9335 C   0  0  0  0  0  0  0  0  0  0  0  0
    4.4334   -0.1706    0.1834 C   0  0  0  0  0  0  0  0  0  0  0  0
    5.8959   -0.1321    0.4577 C   0  0  0  0  0  0  0  0  0  0  0  0
    6.3353    0.4164    1.6739 C   0  0  0  0  0  0  0  0  0  0  0  0
    7.6941    0.4722    1.9783 C   0  0  0  0  0  0  0  0  0  0  0  0
    8.6377   -0.0193    1.0723 C   0  0  0  0  0  0  0  0  0  0  0  0
    8.2204   -0.5680   -0.1383 C   0  0  0  0  0  0  0  0  0  0  0  0
    6.8638   -0.6288   -0.4494 C   0  0  0  0  0  0  0  0  0  0  0  0
   -0.4722   -1.2774    0.4602 C   0  0  1  0  0  0  0  0  0  0  0  0
   -0.1863   -0.9201    1.7908 O   0  0  0  0  0  0  0  0  0  0  0  0
   -2.0050   -1.4817    0.0919 C   0  0  1  0  0  0  0  0  0  0  0  0
   -2.0217   -1.9974   -1.2350 O   0  0  0  0  0  0  0  0  0  0  0  0
   -2.7543   -2.5825    0.9877 C   0  0  0  0  0  0  0  0  0  0  0  0
   -2.6408   -2.3581    2.5229 C   0  0  0  0  0  0  0  0  0  0  0  0
   -2.1459   -4.0028    0.7678 C   0  0  0  0  0  0  0  0  0  0  0  0
   -4.2443   -2.6977    0.5097 C   0  0  0  0  0  0  0  0  0  0  0  0
   -5.0009   -1.3833    0.2800 C   0  0  0  0  0  0  0  0  0  0  0  0
   -4.2073   -0.4326   -0.6362 C   0  0  0  0  0  0  0  0  0  0  0  0
   -2.8127   -0.0687   -0.0192 C   0  0  2  0  0  0  0  0  0  0  0  0
   -3.1114    0.7671    1.2737 C   0  0  0  0  0  0  0  0  0  0  0  0
   -2.4529    4.5650   -0.4456 O   0  0  0  0  0  0  0  0  0  0  0  0
   -1.4438    5.3309   -0.0764 C   0  0  0  0  0  0  0  0  0  0  0  0
   -0.2419    4.6686   -0.2834 C   0  0  0  0  0  0  0  0  0  0  0  0
    0.9659    2.9527   -3.0905 H   0  0  0  0  0  0  0  0  0  0  0  0
   -0.5141    1.9371   -3.2215 H   0  0  0  0  0  0  0  0  0  0  0  0
    1.0756    1.1775   -2.8717 H   0  0  0  0  0  0  0  0  0  0  0  0
    1.2556    2.3790   -0.7262 H   0  0  0  0  0  0  0  0  0  0  0  0
   -2.5940    2.3315   -2.4904 H   0  0  0  0  0  0  0  0  0  0  0  0
   -3.7954    2.3143   -1.2387 H   0  0  0  0  0  0  0  0  0  0  0  0
   -1.9479    0.3467   -1.9668 H   0  0  0  0  0  0  0  0  0  0  0  0
   -0.4947    1.4000    0.5826 H   0  0  0  0  0  0  0  0  0  0  0  0
    0.0104   -0.6865   -1.5639 H   0  0  0  0  0  0  0  0  0  0  0  0
    4.5307   -1.1145   -1.7071 H   0  0  0  0  0  0  0  0  0  0  0  0
    3.7616    0.2410    0.9338 H   0  0  0  0  0  0  0  0  0  0  0  0
    5.6169    0.8035    2.3894 H   0  0  0  0  0  0  0  0  0  0  0  0
    8.0225    0.8978    2.9201 H   0  0  0  0  0  0  0  0  0  0  0  0
    9.6927    0.0222    1.3105 H   0  0  0  0  0  0  0  0  0  0  0  0
    8.9522   -0.9510   -0.8394 H   0  0  0  0  0  0  0  0  0  0  0  0
    6.5996   -1.0622   -1.3993 H   0  0  0  0  0  0  0  0  0  0  0  0
    0.0437   -2.2524    0.3252 H   0  0  0  0  0  0  0  0  0  0  0  0
   -0.7752   -0.1912    2.0794 H   0  0  0  0  0  0  0  0  0  0  0  0
   -1.2901   -2.6545   -1.3742 H   0  0  0  0  0  0  0  0  0  0  0  0
   -1.5912   -2.4856    2.8609 H   0  0  0  0  0  0  0  0  0  0  0  0
   -3.2147   -3.1364    3.0689 H   0  0  0  0  0  0  0  0  0  0  0  0
   -2.9852   -1.3989    2.9076 H   0  0  0  0  0  0  0  0  0  0  0  0
   -1.0745   -4.0478    1.0462 H   0  0  0  0  0  0  0  0  0  0  0  0
   -2.2429   -4.3401   -0.2857 H   0  0  0  0  0  0  0  0  0  0  0  0
   -2.6832   -4.7598    1.3805 H   0  0  0  0  0  0  0  0  0  0  0  0
   -4.8288   -3.3495    1.1974 H   0  0  0  0  0  0  0  0  0  0  0  0
   -4.2487   -3.1945   -0.4845 H   0  0  0  0  0  0  0  0  0  0  0  0
   -5.2571   -0.9010    1.2382 H   0  0  0  0  0  0  0  0  0  0  0  0
   -5.9725   -1.6186   -0.2085 H   0  0  0  0  0  0  0  0  0  0  0  0
   -4.8302    0.4634   -0.8194 H   0  0  0  0  0  0  0  0  0  0  0  0
   -4.0838   -0.9172   -1.6315 H   0  0  0  0  0  0  0  0  0  0  0  0
   -3.7144    0.2605    2.0285 H   0  0  0  0  0  0  0  0  0  0  0  0
   -3.7390    1.6429    1.0063 H   0  0  0  0  0  0  0  0  0  0  0  0
   -2.2472    1.2024    1.7867 H   0  0  0  0  0  0  0  0  0  0  0  0
   -1.5585    6.3188    0.3510 H   0  0  0  0  0  0  0  0  0  0  0  0
    0.7487    5.0258   -0.0410 H   0  0  0  0  0  0  0  0  0  0  0  0
  1 35  1  0  0  0  0
  1 36  1  0  0  0  0
  1 37  1  0  0  0  0
  2  1  1  0  0  0  0
  2  3  1  0  0  0  0
  2 38  1  1  0  0  0
  3  4  2  0  0  0  0
  4  5  1  0  0  0  0
  4 32  1  0  0  0  0
  5 39  1  0  0  0  0
  5 40  1  0  0  0  0
  6  5  1  0  0  0  0
  6  7  1  0  0  0  0
  6 41  1  6  0  0  0
  7  8  1  0  0  0  0
  7  2  1  0  0  0  0
  7 42  1  1  0  0  0
  8  9  1  0  0  0  0
  8 20  1  0  0  0  0
  8 43  1  6  0  0  0
  9 10  1  0  0  0  0
 10 11  2  0  0  0  0
 10 12  1  0  0  0  0
 12 13  2  0  0  0  0
 12 44  1  0  0  0  0
 13 14  1  0  0  0  0
 13 45  1  0  0  0  0
 14 15  2  0  0  0  0
 15 16  1  0  0  0  0
 15 46  1  0  0  0  0
 16 17  2  0  0  0  0
 16 47  1  0  0  0  0
 17 18  1  0  0  0  0
 17 48  1  0  0  0  0
 18 19  2  0  0  0  0
 18 49  1  0  0  0  0
 19 14  1  0  0  0  0
 19 50  1  0  0  0  0
 20 21  1  0  0  0  0
 20 22  1  0  0  0  0
 20 51  1  6  0  0  0
 21 52  1  0  0  0  0
 22 23  1  6  0  0  0
 22 24  1  0  0  0  0
 23 53  1  0  0  0  0
 24 25  1  0  0  0  0
 24 26  1  0  0  0  0
 24 27  1  0  0  0  0
 25 54  1  0  0  0  0
 25 55  1  0  0  0  0
 25 56  1  0  0  0  0
 26 57  1  0  0  0  0
 26 58  1  0  0  0  0
 26 59  1  0  0  0  0
 27 28  1  0  0  0  0
 27 60  1  0  0  0  0
 27 61  1  0  0  0  0
 28 29  1  0  0  0  0
 28 62  1  0  0  0  0
 28 63  1  0  0  0  0
 29 30  1  0  0  0  0
 29 64  1  0  0  0  0
 29 65  1  0  0  0  0
 30 31  1  1  0  0  0
 30 22  1  0  0  0  0
 30  6  1  0  0  0  0
 31 66  1  0  0  0  0
 31 67  1  0  0  0  0
 31 68  1  0  0  0  0
 32 33  1  0  0  0  0
 33 34  2  0  0  0  0
 33 69  1  0  0  0  0
 34  3  1  0  0  0  0
 34 70  1  0  0  0  0
M  END
>  <IDENTIFIER>
CNP0139041.1

>  <Energy>
850.231

$$$$
