
 OpenBabel09132501103D

 56 58  0  0  0  0  0  0  0  0999 V2000
   -3.0198   -3.2945    1.7075 C   0  0  0  0  0  0  0  0  0  0  0  0
   -3.1404   -2.0713    0.8642 C   0  0  0  0  0  0  0  0  0  0  0  0
   -4.0214   -1.9336   -0.1411 N   0  0  0  0  0  0  0  0  0  0  0  0
   -3.8405   -0.7167   -0.6324 N   0  0  0  0  0  0  0  0  0  0  0  0
   -4.6251   -0.1602   -1.7510 C   0  0  0  0  0  0  0  0  0  0  0  0
   -5.5343    0.9801   -1.2630 C   0  0  0  0  0  0  0  0  0  0  0  0
   -5.4971   -1.2423   -2.4087 C   0  0  0  0  0  0  0  0  0  0  0  0
   -2.8359   -0.1333    0.0729 C   0  0  0  0  0  0  0  0  0  0  0  0
   -2.2723    1.2603   -0.1722 C   0  0  1  0  0  0  0  0  0  0  0  0
   -2.5000    2.2013    1.0311 C   0  0  0  0  0  0  0  0  0  0  0  0
   -1.6108    1.8373    2.2324 C   0  0  0  0  0  0  0  0  0  0  0  0
   -0.1249    1.8608    1.8205 C   0  0  1  0  0  0  0  0  0  0  0  0
    0.6966    1.5475    2.9167 O   0  0  0  0  0  0  0  0  0  0  0  0
    0.1547    0.9096    0.6296 C   0  0  2  0  0  0  0  0  0  0  0  0
    1.5407    1.0627    0.2064 N   0  0  0  0  0  0  0  0  0  0  0  0
    2.4506    0.0475    0.1915 C   0  0  0  0  0  0  0  0  0  0  0  0
    2.1244   -1.0780    0.5435 O   0  0  0  0  0  0  0  0  0  0  0  0
    3.7264    0.2959   -0.2228 N   0  0  0  0  0  0  0  0  0  0  0  0
    4.7627   -0.7226   -0.2847 C   0  0  0  0  0  0  0  0  0  0  0  0
    5.3192   -0.8623   -1.7069 C   0  0  0  0  0  0  0  0  0  0  0  0
    6.7563   -1.2937   -1.4637 C   0  0  0  0  0  0  0  0  0  0  0  0
    7.1601   -0.3007   -0.3828 C   0  0  0  0  0  0  0  0  0  0  0  0
    5.9872   -0.3774    0.5909 C   0  0  0  0  0  0  0  0  0  0  0  0
   -0.7742    1.2580   -0.5539 C   0  0  0  0  0  0  0  0  0  0  0  0
   -2.3828   -0.9718    1.0264 N   0  0  0  0  0  0  0  0  0  0  0  0
   -3.7556   -4.0601    1.3825 H   0  0  0  0  0  0  0  0  0  0  0  0
   -3.2159   -3.0331    2.7684 H   0  0  0  0  0  0  0  0  0  0  0  0
   -1.9958   -3.7116    1.6152 H   0  0  0  0  0  0  0  0  0  0  0  0
   -3.9261    0.2134   -2.5308 H   0  0  0  0  0  0  0  0  0  0  0  0
   -6.2494    0.6002   -0.5023 H   0  0  0  0  0  0  0  0  0  0  0  0
   -6.1098    1.3995   -2.1158 H   0  0  0  0  0  0  0  0  0  0  0  0
   -4.9652    1.8099   -0.8062 H   0  0  0  0  0  0  0  0  0  0  0  0
   -6.2287   -1.6573   -1.6820 H   0  0  0  0  0  0  0  0  0  0  0  0
   -4.8567   -2.0681   -2.7856 H   0  0  0  0  0  0  0  0  0  0  0  0
   -6.0546   -0.8166   -3.2704 H   0  0  0  0  0  0  0  0  0  0  0  0
   -2.8057    1.6872   -1.0417 H   0  0  0  0  0  0  0  0  0  0  0  0
   -3.5715    2.1968    1.3263 H   0  0  0  0  0  0  0  0  0  0  0  0
   -2.2424    3.2382    0.7198 H   0  0  0  0  0  0  0  0  0  0  0  0
   -1.8825    0.8391    2.6287 H   0  0  0  0  0  0  0  0  0  0  0  0
   -1.7801    2.5729    3.0481 H   0  0  0  0  0  0  0  0  0  0  0  0
    0.1175    2.8994    1.5019 H   0  0  0  0  0  0  0  0  0  0  0  0
    0.4802    0.6196    3.1969 H   0  0  0  0  0  0  0  0  0  0  0  0
   -0.0472   -0.1328    0.9490 H   0  0  0  0  0  0  0  0  0  0  0  0
    1.8426    2.0003   -0.1024 H   0  0  0  0  0  0  0  0  0  0  0  0
    3.9802    1.2542   -0.5098 H   0  0  0  0  0  0  0  0  0  0  0  0
    4.3957   -1.7217    0.0447 H   0  0  0  0  0  0  0  0  0  0  0  0
    5.3644    0.1432   -2.1882 H   0  0  0  0  0  0  0  0  0  0  0  0
    4.7197   -1.5269   -2.3643 H   0  0  0  0  0  0  0  0  0  0  0  0
    7.3926   -1.2414   -2.3727 H   0  0  0  0  0  0  0  0  0  0  0  0
    6.7786   -2.3305   -1.0567 H   0  0  0  0  0  0  0  0  0  0  0  0
    7.1820    0.7161   -0.8388 H   0  0  0  0  0  0  0  0  0  0  0  0
    8.1476   -0.4910    0.0891 H   0  0  0  0  0  0  0  0  0  0  0  0
    5.8886    0.5207    1.2375 H   0  0  0  0  0  0  0  0  0  0  0  0
    6.1707   -1.2567    1.2497 H   0  0  0  0  0  0  0  0  0  0  0  0
   -0.5972    0.5651   -1.4054 H   0  0  0  0  0  0  0  0  0  0  0  0
   -0.5142    2.2845   -0.8982 H   0  0  0  0  0  0  0  0  0  0  0  0
  1  2  1  0  0  0  0
  1 26  1  0  0  0  0
  1 27  1  0  0  0  0
  1 28  1  0  0  0  0
  2  3  2  0  0  0  0
  3  4  1  0  0  0  0
  4  5  1  0  0  0  0
  4  8  1  0  0  0  0
  5  6  1  0  0  0  0
  5  7  1  0  0  0  0
  5 29  1  0  0  0  0
  6 30  1  0  0  0  0
  6 31  1  0  0  0  0
  6 32  1  0  0  0  0
  7 33  1  0  0  0  0
  7 34  1  0  0  0  0
  7 35  1  0  0  0  0
  8 25  2  0  0  0  0
  9  8  1  0  0  0  0
  9 10  1  0  0  0  0
  9 36  1  6  0  0  0
 10 11  1  0  0  0  0
 10 37  1  0  0  0  0
 10 38  1  0  0  0  0
 11 12  1  0  0  0  0
 11 39  1  0  0  0  0
 11 40  1  0  0  0  0
 12 13  1  0  0  0  0
 12 14  1  0  0  0  0
 12 41  1  6  0  0  0
 13 42  1  0  0  0  0
 14 15  1  0  0  0  0
 14 24  1  0  0  0  0
 14 43  1  1  0  0  0
 15 16  1  0  0  0  0
 15 44  1  0  0  0  0
 16 17  2  0  0  0  0
 16 18  1  0  0  0  0
 18 19  1  0  0  0  0
 18 45  1  0  0  0  0
 19 20  1  0  0  0  0
 19 46  1  0  0  0  0
 20 21  1  0  0  0  0
 20 47  1  0  0  0  0
 20 48  1  0  0  0  0
 21 22  1  0  0  0  0
 21 49  1  0  0  0  0
 21 50  1  0  0  0  0
 22 23  1  0  0  0  0
 22 51  1  0  0  0  0
 22 52  1  0  0  0  0
 23 19  1  0  0  0  0
 23 53  1  0  0  0  0
 23 54  1  0  0  0  0
 24  9  1  0  0  0  0
 24 55  1  0  0  0  0
 24 56  1  0  0  0  0
 25  2  1  0  0  0  0
M  END
>  <IDENTIFIER>
CNP0588840.1

>  <Energy>
517.894

$$$$
