
 OpenBabel09072517443D

 45 47  0  0  0  0  0  0  0  0999 V2000
    5.4828    1.1881   -0.2941 C   0  0  0  0  0  0  0  0  0  0  0  0
    4.1577    0.5170   -0.0400 C   0  0  0  0  0  0  0  0  0  0  0  0
    3.9565   -0.1647    1.1691 C   0  0  0  0  0  0  0  0  0  0  0  0
    2.7439   -0.8011    1.4376 C   0  0  0  0  0  0  0  0  0  0  0  0
    1.6921   -0.7617    0.4934 C   0  0  0  0  0  0  0  0  0  0  0  0
    1.8929   -0.0782   -0.7213 C   0  0  0  0  0  0  0  0  0  0  0  0
    3.1168    0.5586   -0.9967 C   0  0  0  0  0  0  0  0  0  0  0  0
    3.2988    1.2729   -2.3111 C   0  0  0  0  0  0  0  0  0  0  0  0
    0.4815   -1.4231    0.8139 C   0  0  0  0  0  0  0  0  0  0  0  0
   -0.7219   -1.4393   -0.1088 C   0  0  0  0  0  0  0  0  0  0  0  0
   -1.2626   -0.0801   -0.3354 N   0  0  0  0  0  0  0  0  0  0  0  0
   -2.2836   -0.0773   -1.4061 C   0  0  0  0  0  0  0  0  0  0  0  0
   -3.2652    1.1080   -1.2522 C   0  0  1  0  0  0  0  0  0  0  0  0
   -4.2761    1.0949   -2.3985 C   0  0  0  0  0  0  0  0  0  0  0  0
   -3.9904    1.0621   -0.0273 O   0  0  0  0  0  0  0  0  0  0  0  0
   -3.2503    0.5739    1.0888 C   0  0  1  0  0  0  0  0  0  0  0  0
   -3.7677   -0.8141    1.4792 C   0  0  0  0  0  0  0  0  0  0  0  0
   -1.7153    0.6169    0.8911 C   0  0  0  0  0  0  0  0  0  0  0  0
    0.3892   -2.0914    2.0443 C   0  0  0  0  0  0  0  0  0  0  0  0
    1.4763   -2.0791    2.9182 C   0  0  0  0  0  0  0  0  0  0  0  0
    1.4007   -2.6516    3.9909 O   0  0  0  0  0  0  0  0  0  0  0  0
    2.5938   -1.4447    2.5914 O   0  0  0  0  0  0  0  0  0  0  0  0
    6.1810    1.0569    0.5598 H   0  0  0  0  0  0  0  0  0  0  0  0
    5.3307    2.2768   -0.4475 H   0  0  0  0  0  0  0  0  0  0  0  0
    5.9598    0.7522   -1.1965 H   0  0  0  0  0  0  0  0  0  0  0  0
    4.7462   -0.2075    1.9097 H   0  0  0  0  0  0  0  0  0  0  0  0
    1.1075   -0.0392   -1.4639 H   0  0  0  0  0  0  0  0  0  0  0  0
    2.3900    1.2075   -2.9461 H   0  0  0  0  0  0  0  0  0  0  0  0
    4.1413    0.8171   -2.8723 H   0  0  0  0  0  0  0  0  0  0  0  0
    3.5160    2.3464   -2.1310 H   0  0  0  0  0  0  0  0  0  0  0  0
   -1.5165   -2.0934    0.3047 H   0  0  0  0  0  0  0  0  0  0  0  0
   -0.4071   -1.8911   -1.0754 H   0  0  0  0  0  0  0  0  0  0  0  0
   -2.8763   -1.0190   -1.3958 H   0  0  0  0  0  0  0  0  0  0  0  0
   -1.7649   -0.0210   -2.3875 H   0  0  0  0  0  0  0  0  0  0  0  0
   -2.7002    2.0652   -1.3063 H   0  0  0  0  0  0  0  0  0  0  0  0
   -4.8763    0.1595   -2.3728 H   0  0  0  0  0  0  0  0  0  0  0  0
   -3.7569    1.1665   -3.3775 H   0  0  0  0  0  0  0  0  0  0  0  0
   -4.9665    1.9596   -2.3007 H   0  0  0  0  0  0  0  0  0  0  0  0
   -3.4614    1.2433    1.9509 H   0  0  0  0  0  0  0  0  0  0  0  0
   -3.6577   -1.5456    0.6581 H   0  0  0  0  0  0  0  0  0  0  0  0
   -4.8493   -0.7492    1.7220 H   0  0  0  0  0  0  0  0  0  0  0  0
   -3.2283   -1.1879    2.3754 H   0  0  0  0  0  0  0  0  0  0  0  0
   -1.1920    0.2659    1.8052 H   0  0  0  0  0  0  0  0  0  0  0  0
   -1.4346    1.6866    0.7777 H   0  0  0  0  0  0  0  0  0  0  0  0
   -0.5200   -2.6097    2.3267 H   0  0  0  0  0  0  0  0  0  0  0  0
  1  2  1  0  0  0  0
  1 23  1  0  0  0  0
  1 24  1  0  0  0  0
  1 25  1  0  0  0  0
  2  3  2  0  0  0  0
  3  4  1  0  0  0  0
  3 26  1  0  0  0  0
  4  5  2  0  0  0  0
  5  6  1  0  0  0  0
  5  9  1  0  0  0  0
  6  7  2  0  0  0  0
  6 27  1  0  0  0  0
  7  8  1  0  0  0  0
  7  2  1  0  0  0  0
  8 28  1  0  0  0  0
  8 29  1  0  0  0  0
  8 30  1  0  0  0  0
  9 10  1  0  0  0  0
  9 19  2  0  0  0  0
 10 11  1  0  0  0  0
 10 31  1  0  0  0  0
 10 32  1  0  0  0  0
 11 12  1  0  0  0  0
 12 13  1  0  0  0  0
 12 33  1  0  0  0  0
 12 34  1  0  0  0  0
 13 14  1  0  0  0  0
 13 15  1  0  0  0  0
 13 35  1  6  0  0  0
 14 36  1  0  0  0  0
 14 37  1  0  0  0  0
 14 38  1  0  0  0  0
 15 16  1  0  0  0  0
 16 17  1  0  0  0  0
 16 18  1  0  0  0  0
 16 39  1  1  0  0  0
 17 40  1  0  0  0  0
 17 41  1  0  0  0  0
 17 42  1  0  0  0  0
 18 11  1  0  0  0  0
 18 43  1  0  0  0  0
 18 44  1  0  0  0  0
 19 20  1  0  0  0  0
 19 45  1  0  0  0  0
 20 21  2  0  0  0  0
 20 22  1  0  0  0  0
 22  4  1  0  0  0  0
M  END
>  <IDENTIFIER>
CNP0064522.1

>  <Energy>
318.814

$$$$
