
 OpenBabel09072513423D

 53 55  0  0  0  0  0  0  0  0999 V2000
    4.4219    3.8149    0.0651 C   0  0  0  0  0  0  0  0  0  0  0  0
    3.6993    2.6271    0.6268 C   0  0  0  0  0  0  0  0  0  0  0  0
    2.4019    2.7542    1.1497 C   0  0  0  0  0  0  0  0  0  0  0  0
    1.7354    1.6352    1.6579 C   0  0  0  0  0  0  0  0  0  0  0  0
    2.3598    0.3830    1.6499 C   0  0  0  0  0  0  0  0  0  0  0  0
    1.4888   -1.0625    2.2478 S   0  0  0  0  0  0  0  0  0  0  0  0
    0.3974   -0.7807    3.2928 O   0  0  0  0  0  0  0  0  0  0  0  0
    2.4092   -2.0545    2.9754 O   0  0  0  0  0  0  0  0  0  0  0  0
    0.7209   -2.0095    0.9642 N   0  0  0  0  0  0  0  0  0  0  0  0
   -0.5173   -1.3909    0.4544 C   0  0  1  0  0  0  0  0  0  0  0  0
   -0.4991   -1.5485   -1.0771 C   0  0  0  0  0  0  0  0  0  0  0  0
    0.6914   -0.8174   -1.6569 C   0  0  0  0  0  0  0  0  0  0  0  0
    1.7423   -1.5206   -2.2686 C   0  0  0  0  0  0  0  0  0  0  0  0
    2.8486   -0.8304   -2.7775 C   0  0  0  0  0  0  0  0  0  0  0  0
    2.9097    0.5629   -2.6879 C   0  0  0  0  0  0  0  0  0  0  0  0
    1.8649    1.2706   -2.0904 C   0  0  0  0  0  0  0  0  0  0  0  0
    0.7617    0.5862   -1.5754 C   0  0  0  0  0  0  0  0  0  0  0  0
   -1.7596   -1.9829    1.1301 C   0  0  0  0  0  0  0  0  0  0  0  0
   -1.6106   -2.9332    1.8873 O   0  0  0  0  0  0  0  0  0  0  0  0
   -3.0185   -1.4498    0.9898 N   0  0  0  0  0  0  0  0  0  0  0  0
   -4.1326   -1.9001    1.8090 C   0  0  0  0  0  0  0  0  0  0  0  0
   -5.2865   -0.9779    1.4240 C   0  0  0  0  0  0  0  0  0  0  0  0
   -4.5434    0.3027    1.0732 C   0  0  0  0  0  0  0  0  0  0  0  0
   -3.3694   -0.2437    0.2537 C   0  0  2  0  0  0  0  0  0  0  0  0
   -3.8278   -0.5694   -1.1601 C   0  0  0  0  0  0  0  0  0  0  0  0
   -3.8376   -1.7237   -1.5611 O   0  0  0  0  0  0  0  0  0  0  0  0
   -4.2342    0.4161   -1.9873 O   0  0  0  0  0  0  0  0  0  0  0  0
    3.6532    0.2527    1.1311 C   0  0  0  0  0  0  0  0  0  0  0  0
    4.3213    1.3695    0.6230 C   0  0  0  0  0  0  0  0  0  0  0  0
    3.8043    4.7358    0.1307 H   0  0  0  0  0  0  0  0  0  0  0  0
    4.6641    3.6306   -1.0030 H   0  0  0  0  0  0  0  0  0  0  0  0
    5.3639    3.9804    0.6288 H   0  0  0  0  0  0  0  0  0  0  0  0
    1.9027    3.7149    1.1573 H   0  0  0  0  0  0  0  0  0  0  0  0
    0.7309    1.7417    2.0466 H   0  0  0  0  0  0  0  0  0  0  0  0
    0.6765   -3.0384    1.1467 H   0  0  0  0  0  0  0  0  0  0  0  0
   -0.5052   -0.3073    0.6961 H   0  0  0  0  0  0  0  0  0  0  0  0
   -1.3952   -1.1308   -1.5564 H   0  0  0  0  0  0  0  0  0  0  0  0
   -0.4575   -2.6344   -1.3165 H   0  0  0  0  0  0  0  0  0  0  0  0
    1.7135   -2.6004   -2.3401 H   0  0  0  0  0  0  0  0  0  0  0  0
    3.6606   -1.3765   -3.2397 H   0  0  0  0  0  0  0  0  0  0  0  0
    3.7663    1.0954   -3.0805 H   0  0  0  0  0  0  0  0  0  0  0  0
    1.9113    2.3499   -2.0217 H   0  0  0  0  0  0  0  0  0  0  0  0
   -0.0385    1.1508   -1.1128 H   0  0  0  0  0  0  0  0  0  0  0  0
   -3.8609   -1.7313    2.8751 H   0  0  0  0  0  0  0  0  0  0  0  0
   -4.3931   -2.9689    1.6506 H   0  0  0  0  0  0  0  0  0  0  0  0
   -6.0744   -0.8820    2.2006 H   0  0  0  0  0  0  0  0  0  0  0  0
   -5.7581   -1.3633    0.4927 H   0  0  0  0  0  0  0  0  0  0  0  0
   -4.1419    0.7308    2.0205 H   0  0  0  0  0  0  0  0  0  0  0  0
   -5.1553    1.0815    0.5697 H   0  0  0  0  0  0  0  0  0  0  0  0
   -2.5500    0.5037    0.2195 H   0  0  0  0  0  0  0  0  0  0  0  0
   -4.2304    1.3432   -1.7122 H   0  0  0  0  0  0  0  0  0  0  0  0
    4.1382   -0.7152    1.1111 H   0  0  0  0  0  0  0  0  0  0  0  0
    5.3197    1.2543    0.2193 H   0  0  0  0  0  0  0  0  0  0  0  0
  1  2  1  0  0  0  0
  1 30  1  0  0  0  0
  1 31  1  0  0  0  0
  1 32  1  0  0  0  0
  2  3  2  0  0  0  0
  3  4  1  0  0  0  0
  3 33  1  0  0  0  0
  4  5  2  0  0  0  0
  4 34  1  0  0  0  0
  5  6  1  0  0  0  0
  5 28  1  0  0  0  0
  6  7  2  0  0  0  0
  6  8  2  0  0  0  0
  6  9  1  0  0  0  0
  9 10  1  0  0  0  0
  9 35  1  0  0  0  0
 10 11  1  0  0  0  0
 10 18  1  0  0  0  0
 10 36  1  1  0  0  0
 11 12  1  0  0  0  0
 11 37  1  0  0  0  0
 11 38  1  0  0  0  0
 12 13  2  0  0  0  0
 13 14  1  0  0  0  0
 13 39  1  0  0  0  0
 14 15  2  0  0  0  0
 14 40  1  0  0  0  0
 15 16  1  0  0  0  0
 15 41  1  0  0  0  0
 16 17  2  0  0  0  0
 16 42  1  0  0  0  0
 17 12  1  0  0  0  0
 17 43  1  0  0  0  0
 18 19  2  0  0  0  0
 18 20  1  0  0  0  0
 20 21  1  0  0  0  0
 21 22  1  0  0  0  0
 21 44  1  0  0  0  0
 21 45  1  0  0  0  0
 22 23  1  0  0  0  0
 22 46  1  0  0  0  0
 22 47  1  0  0  0  0
 23 24  1  0  0  0  0
 23 48  1  0  0  0  0
 23 49  1  0  0  0  0
 24 25  1  0  0  0  0
 24 20  1  0  0  0  0
 24 50  1  6  0  0  0
 25 26  2  0  0  0  0
 25 27  1  0  0  0  0
 27 51  1  0  0  0  0
 28 29  2  0  0  0  0
 28 52  1  0  0  0  0
 29  2  1  0  0  0  0
 29 53  1  0  0  0  0
M  END
>  <IDENTIFIER>
CNP0365374.1

>  <Energy>
750.739

$$$$
