
 OpenBabel09062508203D

 45 48  0  0  0  0  0  0  0  0999 V2000
    8.1023    0.4333    0.9066 C   0  0  0  0  0  0  0  0  0  0  0  0
    6.6441    0.2268    0.6220 C   0  0  0  0  0  0  0  0  0  0  0  0
    6.0840   -1.0585    0.6384 C   0  0  0  0  0  0  0  0  0  0  0  0
    4.7215   -1.2370    0.3827 C   0  0  0  0  0  0  0  0  0  0  0  0
    3.8937   -0.1337    0.1083 C   0  0  0  0  0  0  0  0  0  0  0  0
    2.4445   -0.3409   -0.1279 C   0  0  0  0  0  0  0  0  0  0  0  0
    1.4798    0.6411   -0.3508 C   0  0  0  0  0  0  0  0  0  0  0  0
    0.3055    0.0060   -0.4596 N   0  0  0  0  0  0  0  0  0  0  0  0
   -1.0509    0.4447   -0.7091 C   0  0  0  0  0  0  0  0  0  0  0  0
   -1.6434   -0.4892   -1.8167 C   0  0  2  0  0  0  0  0  0  0  0  0
   -3.1678   -0.3332   -1.8698 C   0  0  0  0  0  0  0  0  0  0  0  0
   -3.5458    1.0661   -2.0750 N   0  0  0  0  0  0  0  0  0  0  0  0
   -5.2536    1.2826   -1.6560 S   0  0  0  0  0  0  0  0  0  0  0  0
   -6.0487    0.5418   -2.7428 O   0  0  0  0  0  0  0  0  0  0  0  0
   -5.5579    2.7565   -1.9619 O   0  0  0  0  0  0  0  0  0  0  0  0
   -5.7085    0.8206    0.0115 C   0  0  0  0  0  0  0  0  0  0  0  0
   -6.5870   -0.1909    0.3656 C   0  0  0  0  0  0  0  0  0  0  0  0
   -6.7157   -0.3376    1.7517 C   0  0  0  0  0  0  0  0  0  0  0  0
   -5.9372    0.5550    2.4790 C   0  0  0  0  0  0  0  0  0  0  0  0
   -5.0867    1.5284    1.4014 S   0  0  0  0  0  0  0  0  0  0  0  0
   -1.3298   -1.8961   -1.6685 O   0  0  0  0  0  0  0  0  0  0  0  0
   -0.5867   -2.2399   -0.4985 C   0  0  0  0  0  0  0  0  0  0  0  0
    0.5512   -1.2892   -0.3316 C   0  0  0  0  0  0  0  0  0  0  0  0
    1.8532   -1.5631   -0.1366 N   0  0  0  0  0  0  0  0  0  0  0  0
    4.4626    1.1533    0.0877 C   0  0  0  0  0  0  0  0  0  0  0  0
    5.8266    1.3293    0.3406 C   0  0  0  0  0  0  0  0  0  0  0  0
    8.6170   -0.5285    1.1174 H   0  0  0  0  0  0  0  0  0  0  0  0
    8.2181    1.0929    1.7926 H   0  0  0  0  0  0  0  0  0  0  0  0
    8.5908    0.9104    0.0315 H   0  0  0  0  0  0  0  0  0  0  0  0
    6.6981   -1.9240    0.8549 H   0  0  0  0  0  0  0  0  0  0  0  0
    4.3149   -2.2404    0.4100 H   0  0  0  0  0  0  0  0  0  0  0  0
    1.6097    1.7126   -0.4132 H   0  0  0  0  0  0  0  0  0  0  0  0
   -1.1056    1.5265   -0.9569 H   0  0  0  0  0  0  0  0  0  0  0  0
   -1.6271    0.2737    0.2271 H   0  0  0  0  0  0  0  0  0  0  0  0
   -1.1975   -0.1668   -2.7829 H   0  0  0  0  0  0  0  0  0  0  0  0
   -3.5690   -0.7002   -0.8992 H   0  0  0  0  0  0  0  0  0  0  0  0
   -3.5925   -0.9649   -2.6816 H   0  0  0  0  0  0  0  0  0  0  0  0
   -3.3932    1.3264   -3.0768 H   0  0  0  0  0  0  0  0  0  0  0  0
   -7.1135   -0.8069   -0.3511 H   0  0  0  0  0  0  0  0  0  0  0  0
   -7.3555   -1.0777    2.2136 H   0  0  0  0  0  0  0  0  0  0  0  0
   -5.8848    0.6100    3.5579 H   0  0  0  0  0  0  0  0  0  0  0  0
   -0.2101   -3.2815   -0.5642 H   0  0  0  0  0  0  0  0  0  0  0  0
   -1.2647   -2.1695    0.3797 H   0  0  0  0  0  0  0  0  0  0  0  0
    3.8607    2.0273   -0.1178 H   0  0  0  0  0  0  0  0  0  0  0  0
    6.2451    2.3285    0.3248 H   0  0  0  0  0  0  0  0  0  0  0  0
  1  2  1  0  0  0  0
  1 27  1  0  0  0  0
  1 28  1  0  0  0  0
  1 29  1  0  0  0  0
  2  3  2  0  0  0  0
  3  4  1  0  0  0  0
  3 30  1  0  0  0  0
  4  5  2  0  0  0  0
  4 31  1  0  0  0  0
  5  6  1  0  0  0  0
  5 25  1  0  0  0  0
  6  7  2  0  0  0  0
  7  8  1  0  0  0  0
  7 32  1  0  0  0  0
  8  9  1  0  0  0  0
  9 10  1  0  0  0  0
  9 33  1  0  0  0  0
  9 34  1  0  0  0  0
 10 11  1  0  0  0  0
 10 21  1  0  0  0  0
 10 35  1  6  0  0  0
 11 12  1  0  0  0  0
 11 36  1  0  0  0  0
 11 37  1  0  0  0  0
 12 13  1  0  0  0  0
 12 38  1  0  0  0  0
 13 14  2  0  0  0  0
 13 15  2  0  0  0  0
 13 16  1  0  0  0  0
 16 17  2  0  0  0  0
 17 18  1  0  0  0  0
 17 39  1  0  0  0  0
 18 19  2  0  0  0  0
 18 40  1  0  0  0  0
 19 20  1  0  0  0  0
 19 41  1  0  0  0  0
 20 16  1  0  0  0  0
 21 22  1  0  0  0  0
 22 23  1  0  0  0  0
 22 42  1  0  0  0  0
 22 43  1  0  0  0  0
 23 24  2  0  0  0  0
 23  8  1  0  0  0  0
 24  6  1  0  0  0  0
 25 26  2  0  0  0  0
 25 44  1  0  0  0  0
 26  2  1  0  0  0  0
 26 45  1  0  0  0  0
M  END
>  <IDENTIFIER>
CNP0536249.1

>  <Energy>
966.364

$$$$
