
 OpenBabel09112501273D

 15 16  0  0  0  0  0  0  0  0999 V2000
   -3.4862   -0.8280   -0.3378 N   0  0  0  0  0  0  0  0  0  0  0  0
   -2.8511    0.2068   -0.0628 N   0  0  0  0  0  0  0  0  0  0  0  0
   -1.4366    0.2112   -0.0422 C   0  0  0  0  0  0  0  0  0  0  0  0
   -0.6458    1.3229    0.2603 C   0  0  0  0  0  0  0  0  0  0  0  0
    0.6206    0.9023    0.1696 N   0  0  0  0  0  0  0  0  0  0  0  0
    1.8041    1.4040    0.3199 O   0  0  0  0  0  0  0  0  0  0  0  0
    2.6815    0.4348    0.0802 C   0  0  0  0  0  0  0  0  0  0  0  0
    1.9869   -0.7449   -0.2398 C   0  0  0  0  0  0  0  0  0  0  0  0
    0.6724   -0.3615   -0.1602 C   0  0  0  0  0  0  0  0  0  0  0  0
   -0.5919   -0.8807   -0.3154 C   0  0  0  0  0  0  0  0  0  0  0  0
   -4.5154   -0.8131   -0.3473 H   0  0  0  0  0  0  0  0  0  0  0  0
   -0.9642    2.3242    0.5180 H   0  0  0  0  0  0  0  0  0  0  0  0
    3.7556    0.5516    0.1282 H   0  0  0  0  0  0  0  0  0  0  0  0
    2.3906   -1.7173   -0.4877 H   0  0  0  0  0  0  0  0  0  0  0  0
   -0.8667   -1.8920   -0.5840 H   0  0  0  0  0  0  0  0  0  0  0  0
  1  2  2  0  0  0  0
  1 11  1  0  0  0  0
  2  3  1  0  0  0  0
  3  4  2  0  0  0  0
  4  5  1  0  0  0  0
  4 12  1  0  0  0  0
  5  6  1  0  0  0  0
  6  7  1  0  0  0  0
  7  8  2  0  0  0  0
  7 13  1  0  0  0  0
  8  9  1  0  0  0  0
  8 14  1  0  0  0  0
  9 10  2  0  0  0  0
  9  5  1  0  0  0  0
 10  3  1  0  0  0  0
 10 15  1  0  0  0  0
M  END
>  <IDENTIFIER>
CNP0130885.0

>  <Energy>
424.769

$$$$
