
 OpenBabel09072514153D

 79 84  0  0  0  0  0  0  0  0999 V2000
    0.6283   -4.2449   -1.5827 C   0  0  0  0  0  0  0  0  0  0  0  0
    0.3857   -2.9341   -1.2237 O   0  0  0  0  0  0  0  0  0  0  0  0
    1.2745   -2.0852   -0.6310 C   0  0  0  0  0  0  0  0  0  0  0  0
    2.5759   -2.4766   -0.3014 C   0  0  0  0  0  0  0  0  0  0  0  0
    3.4726   -1.5847    0.3185 C   0  0  0  0  0  0  0  0  0  0  0  0
    3.0687   -0.2636    0.6165 C   0  0  0  0  0  0  0  0  0  0  0  0
    4.0338    0.6373    1.3256 C   0  0  0  0  0  0  0  0  0  0  0  0
    3.6681    1.7387    1.6987 O   0  0  0  0  0  0  0  0  0  0  0  0
    5.3826    0.1454    1.8505 C   0  0  1  0  0  0  0  0  0  0  0  0
    5.2085   -0.1150    3.2240 O   0  0  0  0  0  0  0  0  0  0  0  0
    5.9271   -1.1341    1.1336 C   0  0  2  0  0  0  0  0  0  0  0  0
    6.8963   -0.7979   -0.0243 C   0  0  0  0  0  0  0  0  0  0  0  0
    6.5623    0.5758   -0.6228 C   0  0  2  0  0  0  0  0  0  0  0  0
    7.5025    0.8601   -1.7946 C   0  0  0  0  0  0  0  0  0  0  0  0
    6.7112    1.6367    0.3244 O   0  0  0  0  0  0  0  0  0  0  0  0
    6.4210    1.3089    1.6878 C   0  0  2  0  0  0  0  0  0  0  0  0
    7.7203    1.1155    2.4910 C   0  0  0  0  0  0  0  0  0  0  0  0
    4.8470   -2.0558    0.6227 C   0  0  0  0  0  0  0  0  0  0  0  0
    5.1691   -3.1991    0.3255 O   0  0  0  0  0  0  0  0  0  0  0  0
    1.7365    0.1349    0.2732 C   0  0  0  0  0  0  0  0  0  0  0  0
    1.2259    1.3704    0.5090 O   0  0  0  0  0  0  0  0  0  0  0  0
    0.8641   -0.7805   -0.3402 C   0  0  0  0  0  0  0  0  0  0  0  0
   -0.5176   -0.3523   -0.6489 C   0  0  0  0  0  0  0  0  0  0  0  0
   -0.8076    0.2223   -1.8936 C   0  0  0  0  0  0  0  0  0  0  0  0
    0.1987    0.3666   -2.7988 O   0  0  0  0  0  0  0  0  0  0  0  0
    0.0940    0.9698   -4.0349 C   0  0  0  0  0  0  0  0  0  0  0  0
   -2.1198    0.6313   -2.1657 C   0  0  0  0  0  0  0  0  0  0  0  0
   -3.1331    0.4828   -1.2129 C   0  0  0  0  0  0  0  0  0  0  0  0
   -2.8392   -0.0448    0.0734 C   0  0  0  0  0  0  0  0  0  0  0  0
   -1.5103   -0.4838    0.3411 C   0  0  0  0  0  0  0  0  0  0  0  0
   -1.1242   -1.0135    1.5280 O   0  0  0  0  0  0  0  0  0  0  0  0
   -3.9544   -0.1053    1.0767 C   0  0  0  0  0  0  0  0  0  0  0  0
   -3.8706   -0.8143    2.0658 O   0  0  0  0  0  0  0  0  0  0  0  0
   -5.2477    0.6507    0.7969 C   0  0  1  0  0  0  0  0  0  0  0  0
   -5.6188    0.3186   -0.6494 C   0  0  1  0  0  0  0  0  0  0  0  0
   -7.0275    0.8107   -0.9945 C   0  0  0  0  0  0  0  0  0  0  0  0
   -7.9882    0.2624    0.0680 C   0  0  2  0  0  0  0  0  0  0  0  0
   -9.4312    0.6277   -0.2644 C   0  0  0  0  0  0  0  0  0  0  0  0
   -7.6462    0.8142    1.3282 O   0  0  0  0  0  0  0  0  0  0  0  0
   -6.4062    0.2913    1.7819 C   0  0  2  0  0  0  0  0  0  0  0  0
   -6.1402    0.8990    3.1671 C   0  0  0  0  0  0  0  0  0  0  0  0
   -4.5459    0.8883   -1.6138 C   0  0  1  0  0  0  0  0  0  0  0  0
   -4.6343    2.2887   -1.7534 O   0  0  0  0  0  0  0  0  0  0  0  0
   -0.2879   -4.6692   -2.0419 H   0  0  0  0  0  0  0  0  0  0  0  0
    0.8860   -4.8484   -0.6866 H   0  0  0  0  0  0  0  0  0  0  0  0
    1.4513   -4.2935   -2.3272 H   0  0  0  0  0  0  0  0  0  0  0  0
    2.8991   -3.4834   -0.5274 H   0  0  0  0  0  0  0  0  0  0  0  0
    4.5582   -0.8615    3.3111 H   0  0  0  0  0  0  0  0  0  0  0  0
    6.5258   -1.7202    1.8668 H   0  0  0  0  0  0  0  0  0  0  0  0
    6.9198   -1.6114   -0.7839 H   0  0  0  0  0  0  0  0  0  0  0  0
    7.9354   -0.7345    0.3509 H   0  0  0  0  0  0  0  0  0  0  0  0
    5.5235    0.5687   -1.0197 H   0  0  0  0  0  0  0  0  0  0  0  0
    8.5570    0.8952   -1.4451 H   0  0  0  0  0  0  0  0  0  0  0  0
    7.2484    1.8394   -2.2526 H   0  0  0  0  0  0  0  0  0  0  0  0
    7.4052    0.0721   -2.5719 H   0  0  0  0  0  0  0  0  0  0  0  0
    5.9756    2.2206    2.1424 H   0  0  0  0  0  0  0  0  0  0  0  0
    8.3029    0.2283    2.1935 H   0  0  0  0  0  0  0  0  0  0  0  0
    7.4857    1.0135    3.5716 H   0  0  0  0  0  0  0  0  0  0  0  0
    8.3642    2.0117    2.3674 H   0  0  0  0  0  0  0  0  0  0  0  0
    1.6604    2.1376    0.8870 H   0  0  0  0  0  0  0  0  0  0  0  0
    1.0847    0.9501   -4.5328 H   0  0  0  0  0  0  0  0  0  0  0  0
   -0.2204    2.0294   -3.9167 H   0  0  0  0  0  0  0  0  0  0  0  0
   -0.6346    0.4235   -4.6703 H   0  0  0  0  0  0  0  0  0  0  0  0
   -2.3697    1.0583   -3.1287 H   0  0  0  0  0  0  0  0  0  0  0  0
   -1.6666   -1.1402    2.3113 H   0  0  0  0  0  0  0  0  0  0  0  0
   -5.0832    1.7482    0.8578 H   0  0  0  0  0  0  0  0  0  0  0  0
   -5.6313   -0.7942   -0.7440 H   0  0  0  0  0  0  0  0  0  0  0  0
   -7.3061    0.4464   -2.0076 H   0  0  0  0  0  0  0  0  0  0  0  0
   -7.0730    1.9223   -0.9846 H   0  0  0  0  0  0  0  0  0  0  0  0
   -7.9481   -0.8533    0.0930 H   0  0  0  0  0  0  0  0  0  0  0  0
   -9.5582    1.7297   -0.3053 H   0  0  0  0  0  0  0  0  0  0  0  0
  -10.1081    0.2137    0.5132 H   0  0  0  0  0  0  0  0  0  0  0  0
   -9.7170    0.1898   -1.2452 H   0  0  0  0  0  0  0  0  0  0  0  0
   -6.4951   -0.8143    1.8951 H   0  0  0  0  0  0  0  0  0  0  0  0
   -6.0795    2.0070    3.0894 H   0  0  0  0  0  0  0  0  0  0  0  0
   -5.1967    0.5305    3.6148 H   0  0  0  0  0  0  0  0  0  0  0  0
   -6.9718    0.6452    3.8572 H   0  0  0  0  0  0  0  0  0  0  0  0
   -4.7666    0.4393   -2.6065 H   0  0  0  0  0  0  0  0  0  0  0  0
   -4.2029    2.7116   -0.9661 H   0  0  0  0  0  0  0  0  0  0  0  0
  1  2  1  0  0  0  0
  1 44  1  0  0  0  0
  1 45  1  0  0  0  0
  1 46  1  0  0  0  0
  2  3  1  0  0  0  0
  3  4  2  0  0  0  0
  4  5  1  0  0  0  0
  4 47  1  0  0  0  0
  5  6  2  0  0  0  0
  6  7  1  0  0  0  0
  6 20  1  0  0  0  0
  7  8  2  0  0  0  0
  7  9  1  0  0  0  0
  9 10  1  1  0  0  0
  9 11  1  0  0  0  0
 10 48  1  0  0  0  0
 11 12  1  0  0  0  0
 11 18  1  0  0  0  0
 11 49  1  1  0  0  0
 12 13  1  0  0  0  0
 12 50  1  0  0  0  0
 12 51  1  0  0  0  0
 13 14  1  0  0  0  0
 13 15  1  0  0  0  0
 13 52  1  6  0  0  0
 14 53  1  0  0  0  0
 14 54  1  0  0  0  0
 14 55  1  0  0  0  0
 15 16  1  0  0  0  0
 16 17  1  0  0  0  0
 16  9  1  0  0  0  0
 16 56  1  1  0  0  0
 17 57  1  0  0  0  0
 17 58  1  0  0  0  0
 17 59  1  0  0  0  0
 18 19  2  0  0  0  0
 18  5  1  0  0  0  0
 20 21  1  0  0  0  0
 20 22  2  0  0  0  0
 21 60  1  0  0  0  0
 22 23  1  0  0  0  0
 22  3  1  0  0  0  0
 23 24  2  0  0  0  0
 24 25  1  0  0  0  0
 24 27  1  0  0  0  0
 25 26  1  0  0  0  0
 26 61  1  0  0  0  0
 26 62  1  0  0  0  0
 26 63  1  0  0  0  0
 27 28  2  0  0  0  0
 27 64  1  0  0  0  0
 28 29  1  0  0  0  0
 29 30  2  0  0  0  0
 29 32  1  0  0  0  0
 30 31  1  0  0  0  0
 30 23  1  0  0  0  0
 31 65  1  0  0  0  0
 32 33  2  0  0  0  0
 34 32  1  0  0  0  0
 34 35  1  0  0  0  0
 34 66  1  1  0  0  0
 35 36  1  0  0  0  0
 35 42  1  0  0  0  0
 35 67  1  6  0  0  0
 36 37  1  0  0  0  0
 36 68  1  0  0  0  0
 36 69  1  0  0  0  0
 37 38  1  0  0  0  0
 37 39  1  0  0  0  0
 37 70  1  1  0  0  0
 38 71  1  0  0  0  0
 38 72  1  0  0  0  0
 38 73  1  0  0  0  0
 39 40  1  0  0  0  0
 40 41  1  0  0  0  0
 40 34  1  0  0  0  0
 40 74  1  1  0  0  0
 41 75  1  0  0  0  0
 41 76  1  0  0  0  0
 41 77  1  0  0  0  0
 42 43  1  0  0  0  0
 42 28  1  0  0  0  0
 42 78  1  6  0  0  0
 43 79  1  0  0  0  0
M  END
>  <IDENTIFIER>
CNP0270473.1

>  <Energy>
928.294

$$$$
