
 OpenBabel09062519263D

139142  0  0  0  0  0  0  0  0999 V2000
   16.0475   -4.3990    1.3153 C   0  0  0  0  0  0  0  0  0  0  0  0
   15.1567   -4.0833    0.1172 C   0  0  0  0  0  0  0  0  0  0  0  0
   15.1167   -2.5760   -0.1528 C   0  0  0  0  0  0  0  0  0  0  0  0
   14.1946   -2.2529   -1.3377 C   0  0  0  0  0  0  0  0  0  0  0  0
   14.1454   -0.7485   -1.6696 C   0  0  0  0  0  0  0  0  0  0  0  0
   13.6824    0.1606   -0.5143 C   0  0  0  0  0  0  0  0  0  0  0  0
   12.2763   -0.1843   -0.0039 C   0  0  0  0  0  0  0  0  0  0  0  0
   11.8649    0.7577    1.1376 C   0  0  0  0  0  0  0  0  0  0  0  0
   10.4812    0.4304    1.7258 C   0  0  0  0  0  0  0  0  0  0  0  0
    9.3524    0.6201    0.7058 C   0  0  0  0  0  0  0  0  0  0  0  0
    7.9705    0.3993    1.3415 C   0  0  0  0  0  0  0  0  0  0  0  0
    6.8219    0.5360    0.3255 C   0  0  0  0  0  0  0  0  0  0  0  0
    6.7442    1.9389   -0.2950 C   0  0  0  0  0  0  0  0  0  0  0  0
    5.5880    2.0555   -1.2912 C   0  0  0  0  0  0  0  0  0  0  0  0
    5.6089    3.4471   -1.9474 C   0  0  0  0  0  0  0  0  0  0  0  0
    4.6074    3.6348   -3.0963 C   0  0  0  0  0  0  0  0  0  0  0  0
    3.1497    3.9611   -2.7286 C   0  0  0  0  0  0  0  0  0  0  0  0
    2.3708    2.8669   -1.9772 C   0  0  0  0  0  0  0  0  0  0  0  0
    0.8775    3.2091   -1.8175 C   0  0  0  0  0  0  0  0  0  0  0  0
    0.1206    3.1864   -3.1623 C   0  0  0  0  0  0  0  0  0  0  0  0
   -1.3331    3.6417   -3.0515 C   0  0  0  0  0  0  0  0  0  0  0  0
   -2.2524    2.7475   -2.2713 C   0  0  0  0  0  0  0  0  0  0  0  0
   -3.4209    3.1015   -2.1852 O   0  0  0  0  0  0  0  0  0  0  0  0
   -1.8234    1.5991   -1.6642 O   0  0  0  0  0  0  0  0  0  0  0  0
   -2.6671    0.7826   -0.9246 C   0  0  1  0  0  0  0  0  0  0  0  0
   -2.5777   -0.6969   -1.3432 C   0  0  0  0  0  0  0  0  0  0  0  0
   -3.7395   -1.4457   -0.6723 C   0  0  0  0  0  0  0  0  0  0  0  0
   -3.8817   -1.2521    0.8963 C   0  0  1  0  0  0  0  0  0  0  0  0
   -3.0243   -2.3143    1.6189 C   0  0  0  0  0  0  0  0  0  0  0  0
   -3.3553    0.1289    1.3462 C   0  0  0  0  0  0  0  0  0  0  0  0
   -3.8284    0.7122    2.4660 C   0  0  0  0  0  0  0  0  0  0  0  0
   -4.8766    0.0395    3.2917 C   0  0  0  0  0  0  0  0  0  0  0  0
   -5.9900   -0.4023    2.3444 C   0  0  2  0  0  0  0  0  0  0  0  0
   -7.2217   -0.9353    3.1458 C   0  0  1  0  0  0  0  0  0  0  0  0
   -8.0973    0.2625    3.6196 C   0  0  0  0  0  0  0  0  0  0  0  0
   -9.5368   -0.1210    3.3183 C   0  0  0  0  0  0  0  0  0  0  0  0
   -9.4010   -0.9614    2.0342 C   0  0  2  0  0  0  0  0  0  0  0  0
  -10.7929   -1.4379    1.4708 C   0  0  2  0  0  0  0  0  0  0  0  0
  -11.6540   -2.2500    2.4579 C   0  0  0  0  0  0  0  0  0  0  0  0
  -10.7189   -2.1915    0.1153 C   0  0  0  0  0  0  0  0  0  0  0  0
  -10.1559   -1.3966   -1.0863 C   0  0  0  0  0  0  0  0  0  0  0  0
  -11.0136   -0.1842   -1.4852 C   0  0  0  0  0  0  0  0  0  0  0  0
  -10.5297    0.4894   -2.7944 C   0  0  0  0  0  0  0  0  0  0  0  0
   -9.1090    1.0675   -2.6753 C   0  0  0  0  0  0  0  0  0  0  0  0
  -11.5022    1.6078   -3.1903 C   0  0  0  0  0  0  0  0  0  0  0  0
   -8.2088   -1.9192    2.4099 C   0  0  2  0  0  0  0  0  0  0  0  0
   -8.5973   -3.0323    3.4367 C   0  0  0  0  0  0  0  0  0  0  0  0
   -7.5612   -2.6608    1.2019 C   0  0  0  0  0  0  0  0  0  0  0  0
   -6.0319   -2.7887    1.3137 C   0  0  0  0  0  0  0  0  0  0  0  0
   -5.4394   -1.3665    1.2404 C   0  0  2  0  0  0  0  0  0  0  0  0
   -2.3058    0.8590    0.5468 C   0  0  0  0  0  0  0  0  0  0  0  0
   16.0579   -5.4946    1.4937 H   0  0  0  0  0  0  0  0  0  0  0  0
   15.6595   -3.8947    2.2265 H   0  0  0  0  0  0  0  0  0  0  0  0
   17.0869   -4.0571    1.1244 H   0  0  0  0  0  0  0  0  0  0  0  0
   14.1291   -4.4511    0.3311 H   0  0  0  0  0  0  0  0  0  0  0  0
   15.5479   -4.6146   -0.7774 H   0  0  0  0  0  0  0  0  0  0  0  0
   16.1435   -2.2099   -0.3731 H   0  0  0  0  0  0  0  0  0  0  0  0
   14.7408   -2.0718    0.7621 H   0  0  0  0  0  0  0  0  0  0  0  0
   13.1705   -2.6260   -1.1254 H   0  0  0  0  0  0  0  0  0  0  0  0
   14.5616   -2.7890   -2.2402 H   0  0  0  0  0  0  0  0  0  0  0  0
   13.4623   -0.6068   -2.5357 H   0  0  0  0  0  0  0  0  0  0  0  0
   15.1598   -0.4181   -1.9824 H   0  0  0  0  0  0  0  0  0  0  0  0
   13.6836    1.2095   -0.8844 H   0  0  0  0  0  0  0  0  0  0  0  0
   14.4094    0.1059    0.3225 H   0  0  0  0  0  0  0  0  0  0  0  0
   12.2564   -1.2233    0.3856 H   0  0  0  0  0  0  0  0  0  0  0  0
   11.5690   -0.0991   -0.8546 H   0  0  0  0  0  0  0  0  0  0  0  0
   11.8735    1.8104    0.7784 H   0  0  0  0  0  0  0  0  0  0  0  0
   12.6109    0.6660    1.9572 H   0  0  0  0  0  0  0  0  0  0  0  0
   10.3074    1.1244    2.5774 H   0  0  0  0  0  0  0  0  0  0  0  0
   10.4711   -0.6105    2.1169 H   0  0  0  0  0  0  0  0  0  0  0  0
    9.4702   -0.0974   -0.1325 H   0  0  0  0  0  0  0  0  0  0  0  0
    9.4289    1.6556    0.3175 H   0  0  0  0  0  0  0  0  0  0  0  0
    7.8187    1.1244    2.1708 H   0  0  0  0  0  0  0  0  0  0  0  0
    7.9314   -0.6281    1.7652 H   0  0  0  0  0  0  0  0  0  0  0  0
    5.8660    0.3218    0.8517 H   0  0  0  0  0  0  0  0  0  0  0  0
    6.9528   -0.2212   -0.4788 H   0  0  0  0  0  0  0  0  0  0  0  0
    7.6809    2.1517   -0.8484 H   0  0  0  0  0  0  0  0  0  0  0  0
    6.6172    2.6951    0.5106 H   0  0  0  0  0  0  0  0  0  0  0  0
    4.6464    1.8530   -0.7576 H   0  0  0  0  0  0  0  0  0  0  0  0
    5.7176    1.2853   -2.0835 H   0  0  0  0  0  0  0  0  0  0  0  0
    6.6161    3.5493   -2.4105 H   0  0  0  0  0  0  0  0  0  0  0  0
    5.4977    4.2612   -1.1985 H   0  0  0  0  0  0  0  0  0  0  0  0
    4.6570    2.7667   -3.7892 H   0  0  0  0  0  0  0  0  0  0  0  0
    4.9574    4.5253   -3.6652 H   0  0  0  0  0  0  0  0  0  0  0  0
    2.6680    4.1551   -3.7042 H   0  0  0  0  0  0  0  0  0  0  0  0
    3.1128    4.9031   -2.1384 H   0  0  0  0  0  0  0  0  0  0  0  0
    2.7809    2.7892   -0.9539 H   0  0  0  0  0  0  0  0  0  0  0  0
    2.4684    1.8879   -2.4946 H   0  0  0  0  0  0  0  0  0  0  0  0
    0.7833    4.2067   -1.3346 H   0  0  0  0  0  0  0  0  0  0  0  0
    0.4257    2.4577   -1.1379 H   0  0  0  0  0  0  0  0  0  0  0  0
    0.1741    2.1759   -3.6195 H   0  0  0  0  0  0  0  0  0  0  0  0
    0.5857    3.9080   -3.8601 H   0  0  0  0  0  0  0  0  0  0  0  0
   -1.7444    3.7101   -4.0834 H   0  0  0  0  0  0  0  0  0  0  0  0
   -1.3573    4.6592   -2.6053 H   0  0  0  0  0  0  0  0  0  0  0  0
   -3.7208    1.1295   -1.0440 H   0  0  0  0  0  0  0  0  0  0  0  0
   -1.5907   -1.1339   -1.0725 H   0  0  0  0  0  0  0  0  0  0  0  0
   -2.6997   -0.7866   -2.4459 H   0  0  0  0  0  0  0  0  0  0  0  0
   -3.7708   -2.5195   -0.9563 H   0  0  0  0  0  0  0  0  0  0  0  0
   -4.6097   -0.9882   -1.1889 H   0  0  0  0  0  0  0  0  0  0  0  0
   -1.9540   -2.1997    1.3424 H   0  0  0  0  0  0  0  0  0  0  0  0
   -3.3356   -3.3389    1.3251 H   0  0  0  0  0  0  0  0  0  0  0  0
   -3.1064   -2.2382    2.7199 H   0  0  0  0  0  0  0  0  0  0  0  0
   -3.4849    1.6976    2.7675 H   0  0  0  0  0  0  0  0  0  0  0  0
   -5.2414    0.7509    4.0631 H   0  0  0  0  0  0  0  0  0  0  0  0
   -4.4617   -0.8480    3.8121 H   0  0  0  0  0  0  0  0  0  0  0  0
   -6.2903    0.5181    1.7865 H   0  0  0  0  0  0  0  0  0  0  0  0
   -6.8018   -1.5013    4.0079 H   0  0  0  0  0  0  0  0  0  0  0  0
   -7.9373    1.1267    2.9377 H   0  0  0  0  0  0  0  0  0  0  0  0
   -7.8872    0.6423    4.6412 H   0  0  0  0  0  0  0  0  0  0  0  0
  -10.1941    0.7701    3.2104 H   0  0  0  0  0  0  0  0  0  0  0  0
   -9.9323   -0.7241    4.1547 H   0  0  0  0  0  0  0  0  0  0  0  0
   -9.0028   -0.2669    1.2576 H   0  0  0  0  0  0  0  0  0  0  0  0
  -11.3832   -0.5124    1.2983 H   0  0  0  0  0  0  0  0  0  0  0  0
  -11.2523   -3.2533    2.6600 H   0  0  0  0  0  0  0  0  0  0  0  0
  -12.6656   -2.4025    2.0240 H   0  0  0  0  0  0  0  0  0  0  0  0
  -11.8013   -1.7061    3.4116 H   0  0  0  0  0  0  0  0  0  0  0  0
  -11.7440   -2.5125   -0.1748 H   0  0  0  0  0  0  0  0  0  0  0  0
  -10.1254   -3.1166    0.2526 H   0  0  0  0  0  0  0  0  0  0  0  0
  -10.1257   -2.0956   -1.9514 H   0  0  0  0  0  0  0  0  0  0  0  0
   -9.1298   -1.0590   -0.8890 H   0  0  0  0  0  0  0  0  0  0  0  0
  -11.0211    0.5655   -0.6657 H   0  0  0  0  0  0  0  0  0  0  0  0
  -12.0544   -0.5423   -1.6465 H   0  0  0  0  0  0  0  0  0  0  0  0
  -10.5340   -0.2670   -3.6108 H   0  0  0  0  0  0  0  0  0  0  0  0
   -9.0597    1.8230   -1.8624 H   0  0  0  0  0  0  0  0  0  0  0  0
   -8.8149    1.5521   -3.6311 H   0  0  0  0  0  0  0  0  0  0  0  0
   -8.3627    0.2723   -2.4774 H   0  0  0  0  0  0  0  0  0  0  0  0
  -11.5332    2.3967   -2.4085 H   0  0  0  0  0  0  0  0  0  0  0  0
  -12.5252    1.1972   -3.3271 H   0  0  0  0  0  0  0  0  0  0  0  0
  -11.1871    2.0686   -4.1514 H   0  0  0  0  0  0  0  0  0  0  0  0
   -9.2620   -3.7889    2.9875 H   0  0  0  0  0  0  0  0  0  0  0  0
   -9.0597   -2.6481    4.3654 H   0  0  0  0  0  0  0  0  0  0  0  0
   -7.6911   -3.5946    3.7495 H   0  0  0  0  0  0  0  0  0  0  0  0
   -7.7379   -2.1015    0.2739 H   0  0  0  0  0  0  0  0  0  0  0  0
   -8.0336   -3.6524    1.0336 H   0  0  0  0  0  0  0  0  0  0  0  0
   -5.6802   -3.3702    0.4346 H   0  0  0  0  0  0  0  0  0  0  0  0
   -5.7232   -3.3202    2.2392 H   0  0  0  0  0  0  0  0  0  0  0  0
   -5.9495   -0.9285    0.3554 H   0  0  0  0  0  0  0  0  0  0  0  0
   -1.3128    0.3829    0.6997 H   0  0  0  0  0  0  0  0  0  0  0  0
   -2.2186    1.9192    0.8751 H   0  0  0  0  0  0  0  0  0  0  0  0
  1  2  1  0  0  0  0
  1 52  1  0  0  0  0
  1 53  1  0  0  0  0
  1 54  1  0  0  0  0
  2  3  1  0  0  0  0
  2 55  1  0  0  0  0
  2 56  1  0  0  0  0
  3  4  1  0  0  0  0
  3 57  1  0  0  0  0
  3 58  1  0  0  0  0
  4  5  1  0  0  0  0
  4 59  1  0  0  0  0
  4 60  1  0  0  0  0
  5  6  1  0  0  0  0
  5 61  1  0  0  0  0
  5 62  1  0  0  0  0
  6  7  1  0  0  0  0
  6 63  1  0  0  0  0
  6 64  1  0  0  0  0
  7  8  1  0  0  0  0
  7 65  1  0  0  0  0
  7 66  1  0  0  0  0
  8  9  1  0  0  0  0
  8 67  1  0  0  0  0
  8 68  1  0  0  0  0
  9 10  1  0  0  0  0
  9 69  1  0  0  0  0
  9 70  1  0  0  0  0
 10 11  1  0  0  0  0
 10 71  1  0  0  0  0
 10 72  1  0  0  0  0
 11 12  1  0  0  0  0
 11 73  1  0  0  0  0
 11 74  1  0  0  0  0
 12 13  1  0  0  0  0
 12 75  1  0  0  0  0
 12 76  1  0  0  0  0
 13 14  1  0  0  0  0
 13 77  1  0  0  0  0
 13 78  1  0  0  0  0
 14 15  1  0  0  0  0
 14 79  1  0  0  0  0
 14 80  1  0  0  0  0
 15 16  1  0  0  0  0
 15 81  1  0  0  0  0
 15 82  1  0  0  0  0
 16 17  1  0  0  0  0
 16 83  1  0  0  0  0
 16 84  1  0  0  0  0
 17 18  1  0  0  0  0
 17 85  1  0  0  0  0
 17 86  1  0  0  0  0
 18 19  1  0  0  0  0
 18 87  1  0  0  0  0
 18 88  1  0  0  0  0
 19 20  1  0  0  0  0
 19 89  1  0  0  0  0
 19 90  1  0  0  0  0
 20 21  1  0  0  0  0
 20 91  1  0  0  0  0
 20 92  1  0  0  0  0
 21 22  1  0  0  0  0
 21 93  1  0  0  0  0
 21 94  1  0  0  0  0
 22 23  2  0  0  0  0
 22 24  1  0  0  0  0
 25 24  1  0  0  0  0
 25 26  1  0  0  0  0
 25 95  1  6  0  0  0
 26 27  1  0  0  0  0
 26 96  1  0  0  0  0
 26 97  1  0  0  0  0
 27 28  1  0  0  0  0
 27 98  1  0  0  0  0
 27 99  1  0  0  0  0
 28 29  1  1  0  0  0
 28 30  1  0  0  0  0
 29100  1  0  0  0  0
 29101  1  0  0  0  0
 29102  1  0  0  0  0
 30 31  2  0  0  0  0
 30 51  1  0  0  0  0
 31 32  1  0  0  0  0
 31103  1  0  0  0  0
 32104  1  0  0  0  0
 32105  1  0  0  0  0
 33 32  1  0  0  0  0
 33 34  1  0  0  0  0
 33106  1  6  0  0  0
 34 35  1  0  0  0  0
 34107  1  1  0  0  0
 35 36  1  0  0  0  0
 35108  1  0  0  0  0
 35109  1  0  0  0  0
 36110  1  0  0  0  0
 36111  1  0  0  0  0
 37 36  1  0  0  0  0
 37 38  1  0  0  0  0
 37 46  1  0  0  0  0
 37112  1  6  0  0  0
 38 39  1  0  0  0  0
 38 40  1  0  0  0  0
 38113  1  6  0  0  0
 39114  1  0  0  0  0
 39115  1  0  0  0  0
 39116  1  0  0  0  0
 40 41  1  0  0  0  0
 40117  1  0  0  0  0
 40118  1  0  0  0  0
 41 42  1  0  0  0  0
 41119  1  0  0  0  0
 41120  1  0  0  0  0
 42 43  1  0  0  0  0
 42121  1  0  0  0  0
 42122  1  0  0  0  0
 43 44  1  0  0  0  0
 43 45  1  0  0  0  0
 43123  1  0  0  0  0
 44124  1  0  0  0  0
 44125  1  0  0  0  0
 44126  1  0  0  0  0
 45127  1  0  0  0  0
 45128  1  0  0  0  0
 45129  1  0  0  0  0
 46 47  1  1  0  0  0
 46 48  1  0  0  0  0
 46 34  1  0  0  0  0
 47130  1  0  0  0  0
 47131  1  0  0  0  0
 47132  1  0  0  0  0
 48 49  1  0  0  0  0
 48133  1  0  0  0  0
 48134  1  0  0  0  0
 49135  1  0  0  0  0
 49136  1  0  0  0  0
 50 49  1  0  0  0  0
 50 28  1  0  0  0  0
 50 33  1  0  0  0  0
 50137  1  6  0  0  0
 51 25  1  0  0  0  0
 51138  1  0  0  0  0
 51139  1  0  0  0  0
M  END
>  <IDENTIFIER>
CNP0082462.2

>  <Energy>
1047.77

$$$$
