
 OpenBabel09132509273D

 63 68  0  0  0  0  0  0  0  0999 V2000
    5.6253    1.0043   -1.5233 C   0  0  0  0  0  0  0  0  0  0  0  0
    5.9561    0.5512   -0.2615 O   0  0  0  0  0  0  0  0  0  0  0  0
    5.1619   -0.1999    0.5457 C   0  0  0  0  0  0  0  0  0  0  0  0
    5.6787   -0.6356    1.7694 C   0  0  0  0  0  0  0  0  0  0  0  0
    4.9162   -1.4498    2.6095 C   0  0  0  0  0  0  0  0  0  0  0  0
    3.6228   -1.8270    2.2381 C   0  0  0  0  0  0  0  0  0  0  0  0
    3.0644   -1.3682    1.0336 C   0  0  0  0  0  0  0  0  0  0  0  0
    1.6929   -1.8041    0.6406 C   0  0  0  0  0  0  0  0  0  0  0  0
    1.4412   -2.9896    0.8119 O   0  0  0  0  0  0  0  0  0  0  0  0
    0.7024   -0.9594    0.1615 N   0  0  0  0  0  0  0  0  0  0  0  0
   -0.5620   -1.4999   -0.2188 C   0  0  0  0  0  0  0  0  0  0  0  0
   -0.7793   -2.7771   -0.5888 N   0  0  0  0  0  0  0  0  0  0  0  0
   -2.1009   -2.7886   -0.8530 C   0  0  0  0  0  0  0  0  0  0  0  0
   -2.8440   -3.9778   -1.2776 C   0  0  0  0  0  0  0  0  0  0  0  0
   -2.3154   -5.2372   -1.4730 C   0  0  0  0  0  0  0  0  0  0  0  0
   -3.3751   -6.0313   -1.8481 C   0  0  0  0  0  0  0  0  0  0  0  0
   -4.4848   -5.2107   -1.8594 C   0  0  0  0  0  0  0  0  0  0  0  0
   -4.1364   -3.9911   -1.5142 O   0  0  0  0  0  0  0  0  0  0  0  0
   -2.6686   -1.5840   -0.6493 N   0  0  0  0  0  0  0  0  0  0  0  0
   -1.6982   -0.7818   -0.2331 N   0  0  0  0  0  0  0  0  0  0  0  0
   -1.8813    0.6292    0.1713 C   0  0  0  0  0  0  0  0  0  0  0  0
   -3.0869    0.6566    1.1791 C   0  0  0  0  0  0  0  0  0  0  0  0
   -3.6850    2.0474    1.4450 C   0  0  0  0  0  0  0  0  0  0  0  0
   -4.1239    2.6915    0.1212 C   0  0  0  0  0  0  0  0  0  0  0  0
   -2.9588    2.7848   -0.8719 C   0  0  0  0  0  0  0  0  0  0  0  0
   -2.3560    1.3890   -1.1167 C   0  0  0  0  0  0  0  0  0  0  0  0
   -0.5098    1.0833    0.9102 C   0  0  2  0  0  0  0  0  0  0  0  0
   -0.2395    2.5925    1.2514 C   0  0  0  0  0  0  0  0  0  0  0  0
    0.8730    3.2596    0.3937 C   0  0  0  0  0  0  0  0  0  0  0  0
    0.7971    2.7602   -1.0472 C   0  0  0  0  0  0  0  0  0  0  0  0
    1.0359    1.2222   -1.1161 C   0  0  0  0  0  0  0  0  0  0  0  0
    0.7748    0.5066    0.2462 C   0  0  2  0  0  0  0  0  0  0  0  0
    3.8503   -0.5705    0.1881 C   0  0  0  0  0  0  0  0  0  0  0  0
    6.4777    1.5807   -1.9379 H   0  0  0  0  0  0  0  0  0  0  0  0
    4.7370    1.6694   -1.4745 H   0  0  0  0  0  0  0  0  0  0  0  0
    5.4217    0.1450   -2.1980 H   0  0  0  0  0  0  0  0  0  0  0  0
    6.6846   -0.3594    2.0609 H   0  0  0  0  0  0  0  0  0  0  0  0
    5.3311   -1.7950    3.5471 H   0  0  0  0  0  0  0  0  0  0  0  0
    3.0489   -2.4642    2.9004 H   0  0  0  0  0  0  0  0  0  0  0  0
   -1.2842   -5.5429   -1.3532 H   0  0  0  0  0  0  0  0  0  0  0  0
   -3.3446   -7.0866   -2.0840 H   0  0  0  0  0  0  0  0  0  0  0  0
   -5.4937   -5.5108   -2.1091 H   0  0  0  0  0  0  0  0  0  0  0  0
   -2.8191    0.1559    2.1340 H   0  0  0  0  0  0  0  0  0  0  0  0
   -3.9258    0.0697    0.7433 H   0  0  0  0  0  0  0  0  0  0  0  0
   -2.9851    2.6921    1.9966 H   0  0  0  0  0  0  0  0  0  0  0  0
   -4.5768    1.9391    2.0996 H   0  0  0  0  0  0  0  0  0  0  0  0
   -4.5474    3.7016    0.3073 H   0  0  0  0  0  0  0  0  0  0  0  0
   -4.9244    2.0648   -0.3317 H   0  0  0  0  0  0  0  0  0  0  0  0
   -2.2117    3.5100   -0.5221 H   0  0  0  0  0  0  0  0  0  0  0  0
   -3.3405    3.1872   -1.8351 H   0  0  0  0  0  0  0  0  0  0  0  0
   -1.5854    1.4197   -1.9003 H   0  0  0  0  0  0  0  0  0  0  0  0
   -3.1843    0.7991   -1.5694 H   0  0  0  0  0  0  0  0  0  0  0  0
   -0.5617    0.5635    1.8941 H   0  0  0  0  0  0  0  0  0  0  0  0
    0.1037    2.6862    2.3056 H   0  0  0  0  0  0  0  0  0  0  0  0
   -1.1485    3.1857    1.2127 H   0  0  0  0  0  0  0  0  0  0  0  0
    1.8783    2.9876    0.7842 H   0  0  0  0  0  0  0  0  0  0  0  0
    0.7868    4.3648    0.4691 H   0  0  0  0  0  0  0  0  0  0  0  0
    1.5175    3.2824   -1.7126 H   0  0  0  0  0  0  0  0  0  0  0  0
   -0.2044    3.0269   -1.4162 H   0  0  0  0  0  0  0  0  0  0  0  0
    2.0893    1.0794   -1.3830 H   0  0  0  0  0  0  0  0  0  0  0  0
    0.4664    0.7923   -1.9616 H   0  0  0  0  0  0  0  0  0  0  0  0
    1.6150    0.7791    0.9210 H   0  0  0  0  0  0  0  0  0  0  0  0
    3.4647   -0.2853   -0.7648 H   0  0  0  0  0  0  0  0  0  0  0  0
  1  2  1  0  0  0  0
  1 34  1  0  0  0  0
  1 35  1  0  0  0  0
  1 36  1  0  0  0  0
  2  3  1  0  0  0  0
  3  4  2  0  0  0  0
  4  5  1  0  0  0  0
  4 37  1  0  0  0  0
  5  6  2  0  0  0  0
  5 38  1  0  0  0  0
  6  7  1  0  0  0  0
  6 39  1  0  0  0  0
  7  8  1  0  0  0  0
  7 33  2  0  0  0  0
  8  9  2  0  0  0  0
  8 10  1  0  0  0  0
 10 11  1  0  0  0  0
 11 12  2  0  0  0  0
 12 13  1  0  0  0  0
 13 14  1  0  0  0  0
 13 19  2  0  0  0  0
 14 15  2  0  0  0  0
 15 16  1  0  0  0  0
 15 40  1  0  0  0  0
 16 17  2  0  0  0  0
 16 41  1  0  0  0  0
 17 18  1  0  0  0  0
 17 42  1  0  0  0  0
 18 14  1  0  0  0  0
 19 20  1  0  0  0  0
 20 21  1  0  0  0  0
 20 11  1  0  0  0  0
 21 22  1  0  0  0  0
 21 27  1  0  0  0  0
 22 23  1  0  0  0  0
 22 43  1  0  0  0  0
 22 44  1  0  0  0  0
 23 24  1  0  0  0  0
 23 45  1  0  0  0  0
 23 46  1  0  0  0  0
 24 25  1  0  0  0  0
 24 47  1  0  0  0  0
 24 48  1  0  0  0  0
 25 26  1  0  0  0  0
 25 49  1  0  0  0  0
 25 50  1  0  0  0  0
 26 21  1  0  0  0  0
 26 51  1  0  0  0  0
 26 52  1  0  0  0  0
 27 28  1  0  0  0  0
 27 53  1  1  0  0  0
 28 29  1  0  0  0  0
 28 54  1  0  0  0  0
 28 55  1  0  0  0  0
 29 30  1  0  0  0  0
 29 56  1  0  0  0  0
 29 57  1  0  0  0  0
 30 31  1  0  0  0  0
 30 58  1  0  0  0  0
 30 59  1  0  0  0  0
 31 60  1  0  0  0  0
 31 61  1  0  0  0  0
 32 31  1  0  0  0  0
 32 10  1  0  0  0  0
 32 27  1  0  0  0  0
 32 62  1  1  0  0  0
 33  3  1  0  0  0  0
 33 63  1  0  0  0  0
M  END
>  <IDENTIFIER>
CNP0506655.1

>  <Energy>
999.945

$$$$
