
 OpenBabel09052502213D

 75 81  0  0  0  0  0  0  0  0999 V2000
   -5.8986   -1.9837    3.2230 C   0  0  0  0  0  0  0  0  0  0  0  0
   -5.2219   -2.8617    2.1692 C   0  0  0  0  0  0  0  0  0  0  0  0
   -4.7935   -2.1135    1.0873 O   0  0  0  0  0  0  0  0  0  0  0  0
   -5.5668   -1.4841    0.1602 C   0  0  0  0  0  0  0  0  0  0  0  0
   -6.9623   -1.6753    0.0783 C   0  0  0  0  0  0  0  0  0  0  0  0
   -7.7118   -0.9996   -0.8887 C   0  0  0  0  0  0  0  0  0  0  0  0
   -7.0853   -0.1271   -1.7801 C   0  0  0  0  0  0  0  0  0  0  0  0
   -5.7056    0.0691   -1.7109 C   0  0  0  0  0  0  0  0  0  0  0  0
   -4.9448   -0.6095   -0.7499 C   0  0  0  0  0  0  0  0  0  0  0  0
   -3.5397   -0.4198   -0.7113 N   0  0  0  0  0  0  0  0  0  0  0  0
   -2.8905    0.6072   -0.0922 C   0  0  0  0  0  0  0  0  0  0  0  0
   -3.4479    1.4944    0.5369 O   0  0  0  0  0  0  0  0  0  0  0  0
   -1.4463    0.2413   -0.0032 C   0  0  2  0  0  0  0  0  0  0  0  0
   -0.0803    0.9380    0.3268 C   0  0  2  0  0  0  0  0  0  0  0  0
    0.5766    1.4381   -0.9635 C   0  0  0  0  0  0  0  0  0  0  0  0
    0.9426    2.8561   -1.1910 C   0  0  0  0  0  0  0  0  0  0  0  0
    1.4024    3.1984   -2.2724 O   0  0  0  0  0  0  0  0  0  0  0  0
    0.7135    3.7818   -0.2236 O   0  0  0  0  0  0  0  0  0  0  0  0
    0.6340    5.1089   -0.4795 C   0  0  0  0  0  0  0  0  0  0  0  0
   -0.4746    5.6375   -1.1641 C   0  0  0  0  0  0  0  0  0  0  0  0
   -0.5521    7.0108   -1.4212 C   0  0  0  0  0  0  0  0  0  0  0  0
    0.4783    7.8589   -1.0049 C   0  0  0  0  0  0  0  0  0  0  0  0
    1.5832    7.3358   -0.3249 C   0  0  0  0  0  0  0  0  0  0  0  0
    1.6579    5.9643   -0.0573 C   0  0  0  0  0  0  0  0  0  0  0  0
    0.7707    0.4714   -1.9050 C   0  0  0  0  0  0  0  0  0  0  0  0
    0.1669   -0.9061   -1.5771 C   0  0  2  0  0  0  0  0  0  0  0  0
   -1.3247   -0.5328   -1.3229 C   0  0  1  0  0  0  0  0  0  0  0  0
   -2.6271   -1.2447   -1.2999 C   0  0  0  0  0  0  0  0  0  0  0  0
   -2.9162   -2.2375   -1.9495 O   0  0  0  0  0  0  0  0  0  0  0  0
    0.8297   -1.4102   -0.2653 C   0  0  1  0  0  0  0  0  0  0  0  0
    2.2921   -1.6728   -0.4221 C   0  0  0  0  0  0  0  0  0  0  0  0
    2.7102   -2.4675   -1.2466 O   0  0  0  0  0  0  0  0  0  0  0  0
    3.0831   -0.9135    0.3872 N   0  0  0  0  0  0  0  0  0  0  0  0
    4.5329   -1.0035    0.5315 C   0  0  0  0  0  0  0  0  0  0  0  0
    5.2728    0.1276    0.9615 C   0  0  0  0  0  0  0  0  0  0  0  0
    6.6548    0.0753    1.1417 C   0  0  0  0  0  0  0  0  0  0  0  0
    7.3487   -1.1007    0.9003 C   0  0  0  0  0  0  0  0  0  0  0  0
    6.6668   -2.2348    0.4790 C   0  0  0  0  0  0  0  0  0  0  0  0
    5.2664   -2.2178    0.2954 C   0  0  0  0  0  0  0  0  0  0  0  0
    4.6152   -3.3501   -0.0822 O   0  0  0  0  0  0  0  0  0  0  0  0
    5.1283   -4.6131   -0.3262 C   0  0  0  0  0  0  0  0  0  0  0  0
    5.4633   -5.3454    0.9694 C   0  0  0  0  0  0  0  0  0  0  0  0
    2.2716   -0.0618    1.0809 C   0  0  0  0  0  0  0  0  0  0  0  0
    2.6677    0.7237    1.9273 O   0  0  0  0  0  0  0  0  0  0  0  0
    0.8104   -0.2815    0.8204 C   0  0  1  0  0  0  0  0  0  0  0  0
   -6.1927   -2.6079    4.0927 H   0  0  0  0  0  0  0  0  0  0  0  0
   -6.8082   -1.4947    2.8215 H   0  0  0  0  0  0  0  0  0  0  0  0
   -5.1951   -1.1971    3.5681 H   0  0  0  0  0  0  0  0  0  0  0  0
   -5.8949   -3.6808    1.8356 H   0  0  0  0  0  0  0  0  0  0  0  0
   -4.3308   -3.3277    2.6417 H   0  0  0  0  0  0  0  0  0  0  0  0
   -7.4789   -2.3457    0.7501 H   0  0  0  0  0  0  0  0  0  0  0  0
   -8.7814   -1.1532   -0.9472 H   0  0  0  0  0  0  0  0  0  0  0  0
   -7.6683    0.3935   -2.5287 H   0  0  0  0  0  0  0  0  0  0  0  0
   -5.2231    0.7402   -2.4109 H   0  0  0  0  0  0  0  0  0  0  0  0
   -1.5576   -0.4805    0.8463 H   0  0  0  0  0  0  0  0  0  0  0  0
   -0.1731    1.7027    1.1278 H   0  0  0  0  0  0  0  0  0  0  0  0
   -1.2778    4.9873   -1.4884 H   0  0  0  0  0  0  0  0  0  0  0  0
   -1.4091    7.4189   -1.9429 H   0  0  0  0  0  0  0  0  0  0  0  0
    0.4211    8.9207   -1.2082 H   0  0  0  0  0  0  0  0  0  0  0  0
    2.3819    7.9924   -0.0066 H   0  0  0  0  0  0  0  0  0  0  0  0
    2.5154    5.5635    0.4674 H   0  0  0  0  0  0  0  0  0  0  0  0
    1.2282    0.6742   -2.8682 H   0  0  0  0  0  0  0  0  0  0  0  0
    0.2786   -1.6022   -2.4357 H   0  0  0  0  0  0  0  0  0  0  0  0
   -1.5483    0.1555   -2.1826 H   0  0  0  0  0  0  0  0  0  0  0  0
    0.3122   -2.3314    0.0820 H   0  0  0  0  0  0  0  0  0  0  0  0
    4.8036    1.0787    1.1505 H   0  0  0  0  0  0  0  0  0  0  0  0
    7.1921    0.9561    1.4697 H   0  0  0  0  0  0  0  0  0  0  0  0
    8.4217   -1.1364    1.0424 H   0  0  0  0  0  0  0  0  0  0  0  0
    7.2473   -3.1297    0.3067 H   0  0  0  0  0  0  0  0  0  0  0  0
    6.0039   -4.5568   -1.0082 H   0  0  0  0  0  0  0  0  0  0  0  0
    4.3446   -5.2041   -0.8462 H   0  0  0  0  0  0  0  0  0  0  0  0
    6.2481   -4.8167    1.5451 H   0  0  0  0  0  0  0  0  0  0  0  0
    5.8270   -6.3672    0.7291 H   0  0  0  0  0  0  0  0  0  0  0  0
    4.5513   -5.4314    1.5973 H   0  0  0  0  0  0  0  0  0  0  0  0
    0.4052   -0.6857    1.7758 H   0  0  0  0  0  0  0  0  0  0  0  0
  1  2  1  0  0  0  0
  1 46  1  0  0  0  0
  1 47  1  0  0  0  0
  1 48  1  0  0  0  0
  2  3  1  0  0  0  0
  2 49  1  0  0  0  0
  2 50  1  0  0  0  0
  3  4  1  0  0  0  0
  4  5  2  0  0  0  0
  5  6  1  0  0  0  0
  5 51  1  0  0  0  0
  6  7  2  0  0  0  0
  6 52  1  0  0  0  0
  7  8  1  0  0  0  0
  7 53  1  0  0  0  0
  8  9  2  0  0  0  0
  8 54  1  0  0  0  0
  9 10  1  0  0  0  0
  9  4  1  0  0  0  0
 10 11  1  0  0  0  0
 11 12  2  0  0  0  0
 13 11  1  0  0  0  0
 13 14  1  0  0  0  0
 13 55  1  1  0  0  0
 14 15  1  0  0  0  0
 14 56  1  1  0  0  0
 15 16  1  0  0  0  0
 15 25  2  0  0  0  0
 16 17  2  0  0  0  0
 16 18  1  0  0  0  0
 18 19  1  0  0  0  0
 19 20  2  0  0  0  0
 20 21  1  0  0  0  0
 20 57  1  0  0  0  0
 21 22  2  0  0  0  0
 21 58  1  0  0  0  0
 22 23  1  0  0  0  0
 22 59  1  0  0  0  0
 23 24  2  0  0  0  0
 23 60  1  0  0  0  0
 24 19  1  0  0  0  0
 24 61  1  0  0  0  0
 25 62  1  0  0  0  0
 26 25  1  0  0  0  0
 26 27  1  0  0  0  0
 26 30  1  0  0  0  0
 26 63  1  6  0  0  0
 27 28  1  0  0  0  0
 27 13  1  0  0  0  0
 27 64  1  6  0  0  0
 28 29  2  0  0  0  0
 28 10  1  0  0  0  0
 30 31  1  0  0  0  0
 30 65  1  1  0  0  0
 31 32  2  0  0  0  0
 31 33  1  0  0  0  0
 33 34  1  0  0  0  0
 33 43  1  0  0  0  0
 34 35  2  0  0  0  0
 35 36  1  0  0  0  0
 35 66  1  0  0  0  0
 36 37  2  0  0  0  0
 36 67  1  0  0  0  0
 37 38  1  0  0  0  0
 37 68  1  0  0  0  0
 38 39  2  0  0  0  0
 38 69  1  0  0  0  0
 39 40  1  0  0  0  0
 39 34  1  0  0  0  0
 40 41  1  0  0  0  0
 41 42  1  0  0  0  0
 41 70  1  0  0  0  0
 41 71  1  0  0  0  0
 42 72  1  0  0  0  0
 42 73  1  0  0  0  0
 42 74  1  0  0  0  0
 43 44  2  0  0  0  0
 45 43  1  0  0  0  0
 45 30  1  0  0  0  0
 45 14  1  0  0  0  0
 45 75  1  1  0  0  0
M  END
>  <IDENTIFIER>
CNP0456029.5

>  <Energy>
1393

$$$$
