
 OpenBabel09112519003D

 22 21  0  0  0  0  0  0  0  0999 V2000
   -1.5761   -1.4256    0.2584 C   0  0  0  0  0  0  0  0  0  0  0  0
   -1.3571    0.0760    0.4437 C   0  0  0  0  0  0  0  0  0  0  0  0
   -0.0199    0.6883   -0.0887 C   0  0  0  0  0  0  0  0  0  0  0  0
   -0.0915    2.2093    0.2152 C   0  0  0  0  0  0  0  0  0  0  0  0
    0.0929    0.5445   -1.6240 C   0  0  0  0  0  0  0  0  0  0  0  0
    1.2260    0.0880    0.6010 C   0  0  0  0  0  0  0  0  0  0  0  0
    1.8789    0.7953    1.3564 O   0  0  0  0  0  0  0  0  0  0  0  0
    1.7296   -1.3018    0.3743 C   0  0  0  0  0  0  0  0  0  0  0  0
    1.1982   -2.0404   -0.4368 O   0  0  0  0  0  0  0  0  0  0  0  0
    2.8164   -1.7555    1.0382 O   0  0  0  0  0  0  0  0  0  0  0  0
   -2.5873   -1.6903    0.6340 H   0  0  0  0  0  0  0  0  0  0  0  0
   -0.8519   -2.0097    0.8575 H   0  0  0  0  0  0  0  0  0  0  0  0
   -1.5244   -1.7112   -0.8119 H   0  0  0  0  0  0  0  0  0  0  0  0
   -1.4459    0.2883    1.5324 H   0  0  0  0  0  0  0  0  0  0  0  0
   -2.2030    0.5887   -0.0665 H   0  0  0  0  0  0  0  0  0  0  0  0
   -0.9686    2.6757   -0.2839 H   0  0  0  0  0  0  0  0  0  0  0  0
    0.8225    2.7281   -0.1478 H   0  0  0  0  0  0  0  0  0  0  0  0
   -0.1845    2.3927    1.3082 H   0  0  0  0  0  0  0  0  0  0  0  0
   -0.7749    1.0248   -2.1253 H   0  0  0  0  0  0  0  0  0  0  0  0
    0.1138   -0.5112   -1.9529 H   0  0  0  0  0  0  0  0  0  0  0  0
    1.0212    1.0338   -1.9912 H   0  0  0  0  0  0  0  0  0  0  0  0
    3.2962   -1.2179    1.6834 H   0  0  0  0  0  0  0  0  0  0  0  0
  1  2  1  0  0  0  0
  1 11  1  0  0  0  0
  1 12  1  0  0  0  0
  1 13  1  0  0  0  0
  2  3  1  0  0  0  0
  2 14  1  0  0  0  0
  2 15  1  0  0  0  0
  3  4  1  0  0  0  0
  3  5  1  0  0  0  0
  3  6  1  0  0  0  0
  4 16  1  0  0  0  0
  4 17  1  0  0  0  0
  4 18  1  0  0  0  0
  5 19  1  0  0  0  0
  5 20  1  0  0  0  0
  5 21  1  0  0  0  0
  6  7  2  0  0  0  0
  6  8  1  0  0  0  0
  8  9  2  0  0  0  0
  8 10  1  0  0  0  0
 10 22  1  0  0  0  0
M  END
>  <IDENTIFIER>
CNP0359042.0

>  <Energy>
88.7036

$$$$
