
 OpenBabel09082505403D

139141  0  0  0  0  0  0  0  0999 V2000
  -17.1168   -1.7641    0.1671 C   0  0  0  0  0  0  0  0  0  0  0  0
  -15.7780   -2.4182    0.5358 C   0  0  0  0  0  0  0  0  0  0  0  0
  -15.8119   -2.8545    2.0094 C   0  0  0  0  0  0  0  0  0  0  0  0
  -14.6289   -1.4293    0.2398 C   0  0  0  0  0  0  0  0  0  0  0  0
  -13.2287   -2.0348    0.4449 C   0  0  0  0  0  0  0  0  0  0  0  0
  -12.1018   -1.0211    0.1822 C   0  0  0  0  0  0  0  0  0  0  0  0
  -12.0330   -0.4404   -1.2543 C   0  0  2  0  0  0  0  0  0  0  0  0
  -11.8681   -1.5298   -2.3273 C   0  0  0  0  0  0  0  0  0  0  0  0
  -10.9878    0.7064   -1.3384 C   0  0  0  0  0  0  0  0  0  0  0  0
   -9.5516    0.4792   -0.8140 C   0  0  0  0  0  0  0  0  0  0  0  0
   -8.6533   -0.4188   -1.6828 C   0  0  0  0  0  0  0  0  0  0  0  0
   -7.2352   -0.7246   -1.1113 C   0  0  1  0  0  0  0  0  0  0  0  0
   -6.6313   -1.8789   -1.9339 C   0  0  0  0  0  0  0  0  0  0  0  0
   -6.1856    0.4354   -1.1044 C   0  0  0  0  0  0  0  0  0  0  0  0
   -6.4842    1.6896   -0.2641 C   0  0  0  0  0  0  0  0  0  0  0  0
   -6.7821    1.4327    1.2067 C   0  0  0  0  0  0  0  0  0  0  0  0
   -6.6447    0.3203    1.6947 O   0  0  0  0  0  0  0  0  0  0  0  0
   -7.3276    2.5679    2.0393 C   0  0  1  0  0  0  0  0  0  0  0  0
   -7.7974    2.1576    3.4439 C   0  0  0  0  0  0  0  0  0  0  0  0
   -6.3636    3.7354    2.0749 C   0  0  0  0  0  0  0  0  0  0  0  0
   -6.6328    4.7135    1.3949 O   0  0  0  0  0  0  0  0  0  0  0  0
   -4.9649    3.9045    3.2174 S   0  0  0  0  0  0  0  0  0  0  0  0
   -4.1601    2.2545    3.2185 C   0  0  0  0  0  0  0  0  0  0  0  0
   -3.4156    1.8762    1.9360 C   0  0  0  0  0  0  0  0  0  0  0  0
   -2.4769    2.8959    1.5115 N   0  0  0  0  0  0  0  0  0  0  0  0
   -1.6958    2.7220    0.4115 C   0  0  0  0  0  0  0  0  0  0  0  0
   -1.7389    1.6750   -0.2188 O   0  0  0  0  0  0  0  0  0  0  0  0
   -0.7916    3.8446   -0.0311 C   0  0  0  0  0  0  0  0  0  0  0  0
    0.0515    3.5154   -1.2764 C   0  0  0  0  0  0  0  0  0  0  0  0
    1.0095    2.4442   -1.0480 N   0  0  0  0  0  0  0  0  0  0  0  0
    2.0530    2.5490   -0.1763 C   0  0  0  0  0  0  0  0  0  0  0  0
    2.1868    3.5574    0.5045 O   0  0  0  0  0  0  0  0  0  0  0  0
    3.1002    1.4455   -0.0773 C   0  0  2  0  0  0  0  0  0  0  0  0
    3.6791    1.4285    1.2086 O   0  0  0  0  0  0  0  0  0  0  0  0
    4.1922    1.5154   -1.2121 C   0  0  0  0  0  0  0  0  0  0  0  0
    3.5356    1.3441   -2.6031 C   0  0  0  0  0  0  0  0  0  0  0  0
    4.9289    2.8798   -1.1835 C   0  0  0  0  0  0  0  0  0  0  0  0
    5.2324    0.3772   -1.0125 C   0  0  0  0  0  0  0  0  0  0  0  0
    6.2218    0.4650   -2.0135 O   0  0  0  0  0  0  0  0  0  0  0  0
    7.5238   -0.6533   -1.6669 P   0  0  1  0  0  0  0  0  0  0  0  0
    7.3226   -1.8739   -2.6036 O   0  0  0  0  0  0  0  0  0  0  0  0
    9.0561    0.0325   -2.1103 O   0  0  0  0  0  0  0  0  0  0  0  0
    7.5292   -1.2705   -0.0332 O   0  0  0  0  0  0  0  0  0  0  0  0
    8.4682   -0.1712    0.9498 P   0  0  1  0  0  0  0  0  0  0  0  0
    8.0798    1.2916    0.5898 O   0  0  0  0  0  0  0  0  0  0  0  0
    8.0619   -0.4001    2.6217 O   0  0  0  0  0  0  0  0  0  0  0  0
   10.1932   -0.3811    0.7152 O   0  0  0  0  0  0  0  0  0  0  0  0
   10.8466    0.7541    1.2369 C   0  0  0  0  0  0  0  0  0  0  0  0
   12.3438    0.4820    1.4282 C   0  0  1  0  0  0  0  0  0  0  0  0
   12.5746   -0.5759    2.3404 O   0  0  0  0  0  0  0  0  0  0  0  0
   13.7188   -1.2813    1.8726 C   0  0  1  0  0  0  0  0  0  0  0  0
   13.3385   -2.6449    1.4758 N   0  0  0  0  0  0  0  0  0  0  0  0
   12.1090   -3.2248    1.5106 C   0  0  0  0  0  0  0  0  0  0  0  0
   12.1362   -4.5313    1.1297 N   0  0  0  0  0  0  0  0  0  0  0  0
   13.4346   -4.7553    0.8566 C   0  0  0  0  0  0  0  0  0  0  0  0
   14.0729   -5.9217    0.4483 C   0  0  0  0  0  0  0  0  0  0  0  0
   13.3672   -7.1326    0.2565 N   0  0  0  0  0  0  0  0  0  0  0  0
   15.4248   -5.8676    0.2558 N   0  0  0  0  0  0  0  0  0  0  0  0
   16.1314   -4.7101    0.4598 C   0  0  0  0  0  0  0  0  0  0  0  0
   15.4944   -3.5713    0.8739 N   0  0  0  0  0  0  0  0  0  0  0  0
   14.1524   -3.6251    1.0564 C   0  0  0  0  0  0  0  0  0  0  0  0
   14.3198   -0.4715    0.7019 C   0  0  2  0  0  0  0  0  0  0  0  0
   15.1831    0.5583    1.1504 O   0  0  0  0  0  0  0  0  0  0  0  0
   13.0626    0.1276    0.1318 C   0  0  2  0  0  0  0  0  0  0  0  0
   13.3160    1.2908   -0.6296 O   0  0  0  0  0  0  0  0  0  0  0  0
   13.1106    0.9742   -2.3349 P   0  0  0  0  0  0  0  0  0  0  0  0
   11.6164    1.2056   -2.6830 O   0  0  0  0  0  0  0  0  0  0  0  0
   14.0155    2.1172   -3.2771 O   0  0  0  0  0  0  0  0  0  0  0  0
   13.5307   -0.6516   -2.7865 O   0  0  0  0  0  0  0  0  0  0  0  0
  -17.9530   -2.4743    0.3389 H   0  0  0  0  0  0  0  0  0  0  0  0
  -17.1226   -1.4808   -0.9074 H   0  0  0  0  0  0  0  0  0  0  0  0
  -17.2892   -0.8511    0.7772 H   0  0  0  0  0  0  0  0  0  0  0  0
  -15.6520   -3.3210   -0.1021 H   0  0  0  0  0  0  0  0  0  0  0  0
  -15.9257   -1.9722    2.6757 H   0  0  0  0  0  0  0  0  0  0  0  0
  -14.8915   -3.4036    2.2904 H   0  0  0  0  0  0  0  0  0  0  0  0
  -16.6655   -3.5437    2.1816 H   0  0  0  0  0  0  0  0  0  0  0  0
  -14.7409   -0.5256    0.8789 H   0  0  0  0  0  0  0  0  0  0  0  0
  -14.7228   -1.1238   -0.8223 H   0  0  0  0  0  0  0  0  0  0  0  0
  -13.1027   -2.9290   -0.2003 H   0  0  0  0  0  0  0  0  0  0  0  0
  -13.1143   -2.3598    1.4987 H   0  0  0  0  0  0  0  0  0  0  0  0
  -11.1409   -1.5298    0.4111 H   0  0  0  0  0  0  0  0  0  0  0  0
  -12.2254   -0.1816    0.9025 H   0  0  0  0  0  0  0  0  0  0  0  0
  -12.9938    0.0635   -1.4927 H   0  0  0  0  0  0  0  0  0  0  0  0
  -11.0086   -2.1934   -2.1480 H   0  0  0  0  0  0  0  0  0  0  0  0
  -11.7827   -1.0649   -3.3323 H   0  0  0  0  0  0  0  0  0  0  0  0
  -12.7660   -2.1812   -2.3450 H   0  0  0  0  0  0  0  0  0  0  0  0
  -11.3988    1.5172   -0.6939 H   0  0  0  0  0  0  0  0  0  0  0  0
  -10.9543    1.1154   -2.3720 H   0  0  0  0  0  0  0  0  0  0  0  0
   -9.5773    0.1104    0.2319 H   0  0  0  0  0  0  0  0  0  0  0  0
   -9.1369    1.4867   -0.7919 H   0  0  0  0  0  0  0  0  0  0  0  0
   -8.5811   -0.0170   -2.7165 H   0  0  0  0  0  0  0  0  0  0  0  0
   -9.1554   -1.3938   -1.7207 H   0  0  0  0  0  0  0  0  0  0  0  0
   -7.3652   -1.1179   -0.0831 H   0  0  0  0  0  0  0  0  0  0  0  0
   -6.4914   -1.5737   -2.9936 H   0  0  0  0  0  0  0  0  0  0  0  0
   -7.2945   -2.7703   -1.9064 H   0  0  0  0  0  0  0  0  0  0  0  0
   -5.6480   -2.1847   -1.5169 H   0  0  0  0  0  0  0  0  0  0  0  0
   -6.0044    0.7656   -2.1513 H   0  0  0  0  0  0  0  0  0  0  0  0
   -5.2288    0.0217   -0.7151 H   0  0  0  0  0  0  0  0  0  0  0  0
   -7.2988    2.2548   -0.7302 H   0  0  0  0  0  0  0  0  0  0  0  0
   -5.6292    2.3916   -0.3461 H   0  0  0  0  0  0  0  0  0  0  0  0
   -8.2438    2.8940    1.4964 H   0  0  0  0  0  0  0  0  0  0  0  0
   -6.9652    1.7955    4.0761 H   0  0  0  0  0  0  0  0  0  0  0  0
   -8.5505    1.3435    3.3668 H   0  0  0  0  0  0  0  0  0  0  0  0
   -8.2734    3.0217    3.9530 H   0  0  0  0  0  0  0  0  0  0  0  0
   -4.8695    1.4569    3.5033 H   0  0  0  0  0  0  0  0  0  0  0  0
   -3.4127    2.2980    4.0388 H   0  0  0  0  0  0  0  0  0  0  0  0
   -4.1349    1.6983    1.1250 H   0  0  0  0  0  0  0  0  0  0  0  0
   -2.8729    0.9245    2.1259 H   0  0  0  0  0  0  0  0  0  0  0  0
   -2.4067    3.7810    2.0359 H   0  0  0  0  0  0  0  0  0  0  0  0
   -0.1384    4.1393    0.8122 H   0  0  0  0  0  0  0  0  0  0  0  0
   -1.4384    4.7150   -0.2743 H   0  0  0  0  0  0  0  0  0  0  0  0
    0.6040    4.4243   -1.5985 H   0  0  0  0  0  0  0  0  0  0  0  0
   -0.6335    3.2290   -2.1047 H   0  0  0  0  0  0  0  0  0  0  0  0
    0.9136    1.5874   -1.6143 H   0  0  0  0  0  0  0  0  0  0  0  0
    2.5605    0.4747   -0.1627 H   0  0  0  0  0  0  0  0  0  0  0  0
    4.1090    2.3049    1.3786 H   0  0  0  0  0  0  0  0  0  0  0  0
    2.8349    2.1739   -2.8264 H   0  0  0  0  0  0  0  0  0  0  0  0
    2.9839    0.3809   -2.6580 H   0  0  0  0  0  0  0  0  0  0  0  0
    4.2984    1.3524   -3.4096 H   0  0  0  0  0  0  0  0  0  0  0  0
    4.2168    3.7199   -1.3269 H   0  0  0  0  0  0  0  0  0  0  0  0
    5.6786    2.9430   -2.0008 H   0  0  0  0  0  0  0  0  0  0  0  0
    5.4693    3.0332   -0.2274 H   0  0  0  0  0  0  0  0  0  0  0  0
    4.7218   -0.6104   -1.0672 H   0  0  0  0  0  0  0  0  0  0  0  0
    5.6853    0.5057   -0.0078 H   0  0  0  0  0  0  0  0  0  0  0  0
    8.8409    0.6852   -2.8241 H   0  0  0  0  0  0  0  0  0  0  0  0
    7.0740   -0.3357    2.6498 H   0  0  0  0  0  0  0  0  0  0  0  0
   10.4476    1.0265    2.2412 H   0  0  0  0  0  0  0  0  0  0  0  0
   10.7268    1.6107    0.5370 H   0  0  0  0  0  0  0  0  0  0  0  0
   12.7998    1.3997    1.8668 H   0  0  0  0  0  0  0  0  0  0  0  0
   14.4719   -1.3804    2.6850 H   0  0  0  0  0  0  0  0  0  0  0  0
   11.2058   -2.7193    1.8243 H   0  0  0  0  0  0  0  0  0  0  0  0
   12.3512   -7.1843    0.4200 H   0  0  0  0  0  0  0  0  0  0  0  0
   13.8707   -7.9845   -0.0299 H   0  0  0  0  0  0  0  0  0  0  0  0
   17.2006   -4.6973    0.3000 H   0  0  0  0  0  0  0  0  0  0  0  0
   14.9006   -1.0860   -0.0177 H   0  0  0  0  0  0  0  0  0  0  0  0
   15.0082    0.7714    2.1033 H   0  0  0  0  0  0  0  0  0  0  0  0
   12.4764   -0.6676   -0.3895 H   0  0  0  0  0  0  0  0  0  0  0  0
   13.9340    2.9719   -2.7811 H   0  0  0  0  0  0  0  0  0  0  0  0
   12.6688   -1.1372   -2.8342 H   0  0  0  0  0  0  0  0  0  0  0  0
  1  2  1  0  0  0  0
  1 70  1  0  0  0  0
  1 71  1  0  0  0  0
  1 72  1  0  0  0  0
  2  3  1  0  0  0  0
  2  4  1  0  0  0  0
  2 73  1  0  0  0  0
  3 74  1  0  0  0  0
  3 75  1  0  0  0  0
  3 76  1  0  0  0  0
  4  5  1  0  0  0  0
  4 77  1  0  0  0  0
  4 78  1  0  0  0  0
  5  6  1  0  0  0  0
  5 79  1  0  0  0  0
  5 80  1  0  0  0  0
  6  7  1  0  0  0  0
  6 81  1  0  0  0  0
  6 82  1  0  0  0  0
  7  8  1  0  0  0  0
  7  9  1  0  0  0  0
  7 83  1  6  0  0  0
  8 84  1  0  0  0  0
  8 85  1  0  0  0  0
  8 86  1  0  0  0  0
  9 10  1  0  0  0  0
  9 87  1  0  0  0  0
  9 88  1  0  0  0  0
 10 11  1  0  0  0  0
 10 89  1  0  0  0  0
 10 90  1  0  0  0  0
 11 12  1  0  0  0  0
 11 91  1  0  0  0  0
 11 92  1  0  0  0  0
 12 13  1  0  0  0  0
 12 14  1  0  0  0  0
 12 93  1  1  0  0  0
 13 94  1  0  0  0  0
 13 95  1  0  0  0  0
 13 96  1  0  0  0  0
 14 15  1  0  0  0  0
 14 97  1  0  0  0  0
 14 98  1  0  0  0  0
 15 16  1  0  0  0  0
 15 99  1  0  0  0  0
 15100  1  0  0  0  0
 16 17  2  0  0  0  0
 16 18  1  0  0  0  0
 18 19  1  0  0  0  0
 18 20  1  0  0  0  0
 18101  1  6  0  0  0
 19102  1  0  0  0  0
 19103  1  0  0  0  0
 19104  1  0  0  0  0
 20 21  2  0  0  0  0
 20 22  1  0  0  0  0
 22 23  1  0  0  0  0
 23 24  1  0  0  0  0
 23105  1  0  0  0  0
 23106  1  0  0  0  0
 24 25  1  0  0  0  0
 24107  1  0  0  0  0
 24108  1  0  0  0  0
 25 26  1  0  0  0  0
 25109  1  0  0  0  0
 26 27  2  0  0  0  0
 26 28  1  0  0  0  0
 28 29  1  0  0  0  0
 28110  1  0  0  0  0
 28111  1  0  0  0  0
 29 30  1  0  0  0  0
 29112  1  0  0  0  0
 29113  1  0  0  0  0
 30 31  1  0  0  0  0
 30114  1  0  0  0  0
 31 32  2  0  0  0  0
 31 33  1  0  0  0  0
 33 34  1  0  0  0  0
 33 35  1  0  0  0  0
 33115  1  6  0  0  0
 34116  1  0  0  0  0
 35 36  1  0  0  0  0
 35 37  1  0  0  0  0
 35 38  1  0  0  0  0
 36117  1  0  0  0  0
 36118  1  0  0  0  0
 36119  1  0  0  0  0
 37120  1  0  0  0  0
 37121  1  0  0  0  0
 37122  1  0  0  0  0
 38 39  1  0  0  0  0
 38123  1  0  0  0  0
 38124  1  0  0  0  0
 39 40  1  0  0  0  0
 40 41  2  6  0  0  0
 40 42  1  0  0  0  0
 40 43  1  0  0  0  0
 42125  1  0  0  0  0
 43 44  1  0  0  0  0
 44 45  2  6  0  0  0
 44 46  1  0  0  0  0
 44 47  1  0  0  0  0
 46126  1  0  0  0  0
 47 48  1  0  0  0  0
 48127  1  0  0  0  0
 48128  1  0  0  0  0
 49 48  1  0  0  0  0
 49 50  1  0  0  0  0
 49129  1  1  0  0  0
 50 51  1  0  0  0  0
 51 52  1  0  0  0  0
 51 62  1  0  0  0  0
 51130  1  1  0  0  0
 52 53  1  0  0  0  0
 53 54  2  0  0  0  0
 53131  1  0  0  0  0
 54 55  1  0  0  0  0
 55 56  2  0  0  0  0
 56 57  1  0  0  0  0
 56 58  1  0  0  0  0
 57132  1  0  0  0  0
 57133  1  0  0  0  0
 58 59  2  0  0  0  0
 59 60  1  0  0  0  0
 59134  1  0  0  0  0
 60 61  2  0  0  0  0
 61 52  1  0  0  0  0
 61 55  1  0  0  0  0
 62 63  1  0  0  0  0
 62 64  1  0  0  0  0
 62135  1  6  0  0  0
 63136  1  0  0  0  0
 64 65  1  0  0  0  0
 64 49  1  0  0  0  0
 64137  1  6  0  0  0
 65 66  1  0  0  0  0
 66 67  2  0  0  0  0
 66 68  1  0  0  0  0
 66 69  1  0  0  0  0
 68138  1  0  0  0  0
 69139  1  0  0  0  0
M  END
>  <IDENTIFIER>
CNP0290060.1

>  <Energy>
2001.55

$$$$
