
 OpenBabel09092500253D

 42 44  0  0  0  0  0  0  0  0999 V2000
    3.6364   -0.1008   -1.4161 C   0  0  0  0  0  0  0  0  0  0  0  0
    2.6133    0.1523   -0.2905 C   0  0  0  0  0  0  0  0  0  0  0  0
    3.3992    0.2804    1.0421 C   0  0  0  0  0  0  0  0  0  0  0  0
    1.7620    1.4097   -0.5345 C   0  0  0  0  0  0  0  0  0  0  0  0
    0.4048    1.1418    0.1837 C   0  0  1  0  0  0  0  0  0  0  0  0
   -0.7823    1.4162   -0.7754 C   0  0  0  0  0  0  0  0  0  0  0  0
   -2.0964    0.6952   -0.3523 C   0  0  2  0  0  0  0  0  0  0  0  0
   -3.2383    1.1504   -1.2767 C   0  0  0  0  0  0  0  0  0  0  0  0
   -2.4152    0.9517    1.1394 C   0  0  0  0  0  0  0  0  0  0  0  0
   -1.7525   -0.2274    1.8919 C   0  0  0  0  0  0  0  0  0  0  0  0
   -0.9426   -1.0097    0.8291 C   0  0  1  0  0  0  0  0  0  0  0  0
   -0.7577   -2.4852    1.2300 C   0  0  0  0  0  0  0  0  0  0  0  0
   -1.8685   -0.8328   -0.3856 C   0  0  2  0  0  0  0  0  0  0  0  0
   -1.3040   -1.3072   -1.5807 O   0  0  0  0  0  0  0  0  0  0  0  0
    0.4576   -0.3294    0.6395 C   0  0  1  0  0  0  0  0  0  0  0  0
    1.5248   -0.9490   -0.2663 C   0  0  0  0  0  0  0  0  0  0  0  0
    4.3624    0.7380   -1.4795 H   0  0  0  0  0  0  0  0  0  0  0  0
    3.1294   -0.1949   -2.4005 H   0  0  0  0  0  0  0  0  0  0  0  0
    4.1940   -1.0432   -1.2256 H   0  0  0  0  0  0  0  0  0  0  0  0
    4.1593    1.0866    0.9529 H   0  0  0  0  0  0  0  0  0  0  0  0
    3.9271   -0.6700    1.2699 H   0  0  0  0  0  0  0  0  0  0  0  0
    2.7768    0.5550    1.9144 H   0  0  0  0  0  0  0  0  0  0  0  0
    1.5691    1.4109   -1.6305 H   0  0  0  0  0  0  0  0  0  0  0  0
    2.2377    2.3900   -0.3208 H   0  0  0  0  0  0  0  0  0  0  0  0
    0.2800    1.7443    1.1105 H   0  0  0  0  0  0  0  0  0  0  0  0
   -0.5564    1.0543   -1.8023 H   0  0  0  0  0  0  0  0  0  0  0  0
   -0.9187    2.5182   -0.8417 H   0  0  0  0  0  0  0  0  0  0  0  0
   -3.4008    2.2450   -1.1764 H   0  0  0  0  0  0  0  0  0  0  0  0
   -4.1836    0.6301   -1.0130 H   0  0  0  0  0  0  0  0  0  0  0  0
   -3.0006    0.9253   -2.3382 H   0  0  0  0  0  0  0  0  0  0  0  0
   -3.5087    0.8812    1.3390 H   0  0  0  0  0  0  0  0  0  0  0  0
   -2.0827    1.9615    1.4637 H   0  0  0  0  0  0  0  0  0  0  0  0
   -2.5919   -0.8890    2.2108 H   0  0  0  0  0  0  0  0  0  0  0  0
   -1.2062    0.0480    2.8190 H   0  0  0  0  0  0  0  0  0  0  0  0
   -1.7406   -2.9723    1.4059 H   0  0  0  0  0  0  0  0  0  0  0  0
   -0.1580   -2.5614    2.1622 H   0  0  0  0  0  0  0  0  0  0  0  0
   -0.2419   -3.0472    0.4234 H   0  0  0  0  0  0  0  0  0  0  0  0
   -2.8285   -1.3717   -0.1859 H   0  0  0  0  0  0  0  0  0  0  0  0
   -2.0278   -1.2993   -2.2586 H   0  0  0  0  0  0  0  0  0  0  0  0
    0.9154   -0.3610    1.6488 H   0  0  0  0  0  0  0  0  0  0  0  0
    1.1110   -1.0681   -1.2900 H   0  0  0  0  0  0  0  0  0  0  0  0
    1.9007   -1.9348    0.0816 H   0  0  0  0  0  0  0  0  0  0  0  0
  1  2  1  0  0  0  0
  1 17  1  0  0  0  0
  1 18  1  0  0  0  0
  1 19  1  0  0  0  0
  2  3  1  0  0  0  0
  2  4  1  0  0  0  0
  3 20  1  0  0  0  0
  3 21  1  0  0  0  0
  3 22  1  0  0  0  0
  4 23  1  0  0  0  0
  4 24  1  0  0  0  0
  5  4  1  0  0  0  0
  5  6  1  0  0  0  0
  5 25  1  1  0  0  0
  6  7  1  0  0  0  0
  6 26  1  0  0  0  0
  6 27  1  0  0  0  0
  7  8  1  6  0  0  0
  7  9  1  0  0  0  0
  8 28  1  0  0  0  0
  8 29  1  0  0  0  0
  8 30  1  0  0  0  0
  9 10  1  0  0  0  0
  9 31  1  0  0  0  0
  9 32  1  0  0  0  0
 10 11  1  0  0  0  0
 10 33  1  0  0  0  0
 10 34  1  0  0  0  0
 11 12  1  1  0  0  0
 11 13  1  0  0  0  0
 11 15  1  0  0  0  0
 12 35  1  0  0  0  0
 12 36  1  0  0  0  0
 12 37  1  0  0  0  0
 13 14  1  0  0  0  0
 13  7  1  0  0  0  0
 13 38  1  1  0  0  0
 14 39  1  0  0  0  0
 15 16  1  0  0  0  0
 15  5  1  0  0  0  0
 15 40  1  1  0  0  0
 16  2  1  0  0  0  0
 16 41  1  0  0  0  0
 16 42  1  0  0  0  0
M  END
>  <IDENTIFIER>
CNP0300012.1

>  <Energy>
580.306

$$$$
