
 OpenBabel09052505042D

169168  0  0  0  0  0  0  0  0999 V2000
   -3.7500   -6.4952    0.0000 C   0  0  0  0  0  0  0  0  0  0  0  0
   -3.0000   -5.1962    0.0000 C   0  0  0  0  0  0  0  0  0  0  0  0
   -3.1167   -3.7701   -0.5739 C   0  0  0  0  0  0  0  0  0  0  0  0
   -1.7950   -3.0246   -0.1134 C   0  0  0  0  0  0  0  0  0  0  0  0
   -1.5855   -1.5885   -0.6086 C   0  0  0  0  0  0  0  0  0  0  0  0
   -0.4510   -0.8543    0.1216 C   0  0  0  0  0  0  0  0  0  0  0  0
    0.9047   -1.0192    0.0861 C   0  0  0  0  0  0  0  0  0  0  0  0
    1.7383   -1.9961   -0.7237 C   0  0  0  0  0  0  0  0  0  0  0  0
    2.6007   -2.8626    0.1871 C   0  0  0  0  0  0  0  0  0  0  0  0
    3.9584   -3.0361    0.1988 C   0  0  0  0  0  0  0  0  0  0  0  0
    5.0401   -2.4140   -0.6834 C   0  0  0  0  0  0  0  0  0  0  0  0
    6.1778   -1.8253    0.1591 C   0  0  0  0  0  0  0  0  0  0  0  0
    7.4828   -2.2436    0.1902 C   0  0  0  0  0  0  0  0  0  0  0  0
    8.0507   -3.3964   -0.6239 C   0  0  0  0  0  0  0  0  0  0  0  0
    9.4657   -3.8790   -0.2487 C   0  0  0  0  0  0  0  0  0  0  0  0
   10.6713   -3.2831   -0.4668 C   0  0  0  0  0  0  0  0  0  0  0  0
   10.8295   -1.9548   -1.1318 C   0  0  0  0  0  0  0  0  0  0  0  0
   12.2015   -1.3414   -1.4507 C   0  0  0  0  0  0  0  0  0  0  0  0
   13.5534   -1.5832   -1.3826 C   0  0  0  0  0  0  0  0  0  0  0  0
   14.6096   -2.6157   -0.9508 C   0  0  0  0  0  0  0  0  0  0  0  0
   14.3143   -3.9979   -0.3670 C   0  0  0  0  0  0  0  0  0  0  0  0
   15.6030   -4.6188    0.2079 C   0  0  0  0  0  0  0  0  0  0  0  0
   15.6527   -4.7076    1.4282 O   0  0  0  0  0  0  0  0  0  0  0  0
   16.6986   -5.0247   -0.5519 O   0  0  0  0  0  0  0  0  0  0  0  0
   18.0000   -5.1962    0.0000 C   0  0  0  0  0  0  0  0  0  0  0  0
   18.7500   -6.4952    0.0000 C   0  0  2  0  0  0  0  0  0  0  0  0
   17.4234   -7.4187    0.5476 C   0  0  0  0  0  0  0  0  0  0  0  0
   16.8465   -8.4994   -0.2502 O   0  0  0  0  0  0  0  0  0  0  0  0
   15.7210   -9.2877    0.1560 C   0  0  0  0  0  0  0  0  0  0  0  0
   15.2514   -9.0454    1.2587 O   0  0  0  0  0  0  0  0  0  0  0  0
   14.9411  -10.4476   -0.6941 C   0  0  0  0  0  0  0  0  0  0  0  0
   13.5538  -10.9952    0.0000 C   0  0  0  0  0  0  0  0  0  0  0  0
   12.2548  -11.7452    0.0000 C   0  0  0  0  0  0  0  0  0  0  0  0
   10.9558  -12.4952    0.0000 C   0  0  0  0  0  0  0  0  0  0  0  0
    9.6567  -13.2452    0.0000 C   0  0  0  0  0  0  0  0  0  0  0  0
    8.3577  -13.9952    0.0000 C   0  0  0  0  0  0  0  0  0  0  0  0
    7.0587  -14.7452    0.0000 C   0  0  0  0  0  0  0  0  0  0  0  0
    5.7602  -15.5385   -0.0884 C   0  0  0  0  0  0  0  0  0  0  0  0
    5.7666  -16.9191   -0.1167 C   0  0  0  0  0  0  0  0  0  0  0  0
    7.0587  -17.7452    0.0000 C   0  0  0  0  0  0  0  0  0  0  0  0
    8.3577  -18.4952    0.0000 C   0  0  0  0  0  0  0  0  0  0  0  0
    9.6567  -19.2452    0.0000 C   0  0  0  0  0  0  0  0  0  0  0  0
   10.9558  -19.9952    0.0000 C   0  0  0  0  0  0  0  0  0  0  0  0
   12.2548  -20.7452    0.0000 C   0  0  0  0  0  0  0  0  0  0  0  0
   13.5538  -21.4952    0.0000 C   0  0  0  0  0  0  0  0  0  0  0  0
   14.8529  -22.2452    0.0000 C   0  0  0  0  0  0  0  0  0  0  0  0
   16.1519  -22.9952    0.0000 C   0  0  0  0  0  0  0  0  0  0  0  0
   19.5000   -7.7942    0.0000 O   0  0  0  0  0  0  0  0  0  0  0  0
   20.5191   -8.4161   -0.7433 C   0  0  0  0  0  0  0  0  0  0  0  0
   20.5641   -8.2633   -1.9533 O   0  0  0  0  0  0  0  0  0  0  0  0
   21.7500   -9.0933    0.0000 C   0  0  0  0  0  0  0  0  0  0  0  0
   22.5000  -10.3923    0.0000 C   0  0  0  0  0  0  0  0  0  0  0  0
   23.2500  -11.6913    0.0000 C   0  0  0  0  0  0  0  0  0  0  0  0
   23.8411  -13.1822    0.4999 C   0  0  0  0  0  0  0  0  0  0  0  0
   24.9487  -14.0638   -0.4435 C   0  0  0  0  0  0  0  0  0  0  0  0
   25.5000  -15.5885    0.0000 C   0  0  0  0  0  0  0  0  0  0  0  0
   26.2500  -16.8875    0.0000 C   0  0  0  0  0  2  0  0  0  0  0  0
   27.0000  -18.1865    0.0000 C   0  0  0  0  0  0  0  0  0  0  0  0
   27.7500  -19.4856    0.0000 C   0  0  0  0  0  0  0  0  0  0  0  0
   28.5000  -20.7846    0.0000 C   0  0  0  0  0  2  0  0  0  0  0  0
   29.2500  -22.0836    0.0000 C   0  0  0  0  0  0  0  0  0  0  0  0
   29.8237  -23.6017    0.4398 C   0  0  0  0  0  0  0  0  0  0  0  0
   30.9735  -24.4590   -0.4793 C   0  0  0  0  0  0  0  0  0  0  0  0
   31.5000  -25.9808    0.0000 C   0  0  0  0  0  0  0  0  0  0  0  0
   32.2500  -27.2798    0.0000 C   0  0  0  0  0  0  0  0  0  0  0  0
   33.0000  -28.5788    0.0000 C   0  0  0  0  0  0  0  0  0  0  0  0
   33.7500  -29.8779    0.0000 C   0  0  0  0  0  0  0  0  0  0  0  0
   -4.6252   -6.1146    0.5713 H   0  0  0  0  0  0  0  0  0  0  0  0
   -3.0527   -7.0802    0.6479 H   0  0  0  0  0  0  0  0  0  0  0  0
   -4.2850   -7.4218    0.0000 H   0  0  0  0  0  0  0  0  0  0  0  0
   -2.0468   -5.5366   -0.4701 H   0  0  0  0  0  0  0  0  0  0  0  0
   -2.7805   -5.0258    1.0850 H   0  0  0  0  0  0  0  0  0  0  0  0
   -4.0128   -3.2540   -0.1671 H   0  0  0  0  0  0  0  0  0  0  0  0
   -3.1795   -3.8102   -1.6817 H   0  0  0  0  0  0  0  0  0  0  0  0
   -0.8993   -3.6039   -0.4230 H   0  0  0  0  0  0  0  0  0  0  0  0
   -1.8084   -2.9873    0.9997 H   0  0  0  0  0  0  0  0  0  0  0  0
   -1.4440   -1.5522   -1.7084 H   0  0  0  0  0  0  0  0  0  0  0  0
   -2.5213   -1.0390   -0.3644 H   0  0  0  0  0  0  0  0  0  0  0  0
   -0.7947   -0.0484    0.7666 H   0  0  0  0  0  0  0  0  0  0  0  0
    1.4828   -0.3380    0.7064 H   0  0  0  0  0  0  0  0  0  0  0  0
    1.0723   -2.6490   -1.3228 H   0  0  0  0  0  0  0  0  0  0  0  0
    2.3738   -1.4191   -1.4237 H   0  0  0  0  0  0  0  0  0  0  0  0
    2.0411   -3.4491    0.9112 H   0  0  0  0  0  0  0  0  0  0  0  0
    4.3328   -3.7546    0.9232 H   0  0  0  0  0  0  0  0  0  0  0  0
    4.6229   -1.6318   -1.3485 H   0  0  0  0  0  0  0  0  0  0  0  0
    5.4443   -3.2217   -1.3249 H   0  0  0  0  0  0  0  0  0  0  0  0
    5.9077   -1.0017    0.8149 H   0  0  0  0  0  0  0  0  0  0  0  0
    8.1547   -1.7353    0.8765 H   0  0  0  0  0  0  0  0  0  0  0  0
    7.9925   -3.1722   -1.7097 H   0  0  0  0  0  0  0  0  0  0  0  0
    7.3845   -4.2605   -0.4162 H   0  0  0  0  0  0  0  0  0  0  0  0
    9.5069   -4.8618    0.2126 H   0  0  0  0  0  0  0  0  0  0  0  0
   11.5542   -3.8163   -0.1600 H   0  0  0  0  0  0  0  0  0  0  0  0
   10.2924   -2.0089   -2.1024 H   0  0  0  0  0  0  0  0  0  0  0  0
   10.2968   -1.2202   -0.4894 H   0  0  0  0  0  0  0  0  0  0  0  0
   12.0087   -0.3612   -1.8872 H   0  0  0  0  0  0  0  0  0  0  0  0
   14.1077   -0.7273   -1.7687 H   0  0  0  0  0  0  0  0  0  0  0  0
   15.2121   -2.0764   -0.1849 H   0  0  0  0  0  0  0  0  0  0  0  0
   15.2709   -2.7853   -1.8280 H   0  0  0  0  0  0  0  0  0  0  0  0
   13.6244   -3.8387    0.4874 H   0  0  0  0  0  0  0  0  0  0  0  0
   13.8283   -4.6662   -1.1083 H   0  0  0  0  0  0  0  0  0  0  0  0
   17.9817   -4.8959    1.0717 H   0  0  0  0  0  0  0  0  0  0  0  0
   18.6614   -4.4180   -0.4484 H   0  0  0  0  0  0  0  0  0  0  0  0
   18.6724   -6.4495   -1.1102 H   0  0  0  0  0  0  0  0  0  0  0  0
   16.5599   -6.8478    0.9182 H   0  0  0  0  0  0  0  0  0  0  0  0
   17.7395   -7.8611    1.5218 H   0  0  0  0  0  0  0  0  0  0  0  0
   14.6577   -9.9944   -1.6681 H   0  0  0  0  0  0  0  0  0  0  0  0
   15.6288  -11.2949   -0.8968 H   0  0  0  0  0  0  0  0  0  0  0  0
   13.9789  -11.3480    0.9689 H   0  0  0  0  0  0  0  0  0  0  0  0
   13.1964   -9.9330    0.1406 H   0  0  0  0  0  0  0  0  0  0  0  0
   11.8498  -11.1408    0.8698 H   0  0  0  0  0  0  0  0  0  0  0  0
   11.9670  -11.2477   -0.9637 H   0  0  0  0  0  0  0  0  0  0  0  0
   11.4895  -13.2523   -0.6508 H   0  0  0  0  0  0  0  0  0  0  0  0
   11.1464  -12.9653    1.0116 H   0  0  0  0  0  0  0  0  0  0  0  0
    9.6158  -13.2251   -1.1320 H   0  0  0  0  0  0  0  0  0  0  0  0
    9.2605  -12.2357    0.3553 H   0  0  0  0  0  0  0  0  0  0  0  0
    8.2831  -13.7419    1.1068 H   0  0  0  0  0  0  0  0  0  0  0  0
    7.7468  -13.1883   -0.5298 H   0  0  0  0  0  0  0  0  0  0  0  0
    7.3360  -15.1186   -1.0157 H   0  0  0  0  0  0  0  0  0  0  0  0
    7.3578  -15.3688    0.8643 H   0  0  0  0  0  0  0  0  0  0  0  0
    4.8153  -15.0061   -0.1253 H   0  0  0  0  0  0  0  0  0  0  0  0
    4.8235  -17.4498   -0.1985 H   0  0  0  0  0  0  0  0  0  0  0  0
    7.4746  -17.1409   -0.8400 H   0  0  0  0  0  0  0  0  0  0  0  0
    7.2346  -17.3431    1.0250 H   0  0  0  0  0  0  0  0  0  0  0  0
    7.9446  -19.0156   -0.9368 H   0  0  0  0  0  0  0  0  0  0  0  0
    8.0318  -19.1256    0.8797 H   0  0  0  0  0  0  0  0  0  0  0  0
    9.9585  -18.7176   -0.9494 H   0  0  0  0  0  0  0  0  0  0  0  0
    9.2286  -20.2726   -0.2680 H   0  0  0  0  0  0  0  0  0  0  0  0
   10.7330  -20.3739    1.0489 H   0  0  0  0  0  0  0  0  0  0  0  0
   11.5015  -19.0576    0.3143 H   0  0  0  0  0  0  0  0  0  0  0  0
   11.5848  -21.6414   -0.2363 H   0  0  0  0  0  0  0  0  0  0  0  0
   12.5468  -20.2410   -0.9643 H   0  0  0  0  0  0  0  0  0  0  0  0
   13.3092  -22.1357   -0.9153 H   0  0  0  0  0  0  0  0  0  0  0  0
   13.2066  -22.0618    0.9140 H   0  0  0  0  0  0  0  0  0  0  0  0
   15.2171  -21.6710   -0.9038 H   0  0  0  0  0  0  0  0  0  0  0  0
   15.1482  -21.6498    0.9185 H   0  0  0  0  0  0  0  0  0  0  0  0
   15.9676  -23.5774    0.9339 H   0  0  0  0  0  0  0  0  0  0  0  0
   16.9119  -22.1711    0.1313 H   0  0  0  0  0  0  0  0  0  0  0  0
   17.0785  -23.5302    0.0000 H   0  0  0  0  0  0  0  0  0  0  0  0
   21.4704   -8.8831    1.0674 H   0  0  0  0  0  0  0  0  0  0  0  0
   22.5574   -8.3618   -0.2365 H   0  0  0  0  0  0  0  0  0  0  0  0
   23.0775  -10.1105    0.9224 H   0  0  0  0  0  0  0  0  0  0  0  0
   21.5606  -10.9287    0.2792 H   0  0  0  0  0  0  0  0  0  0  0  0
   24.2514  -11.2863   -0.2916 H   0  0  0  0  0  0  0  0  0  0  0  0
   22.8524  -12.0670   -0.9728 H   0  0  0  0  0  0  0  0  0  0  0  0
   22.9559  -13.8350    0.6559 H   0  0  0  0  0  0  0  0  0  0  0  0
   24.3166  -13.0316    1.4912 H   0  0  0  0  0  0  0  0  0  0  0  0
   24.5030  -14.1701   -1.4544 H   0  0  0  0  0  0  0  0  0  0  0  0
   25.8467  -13.4187   -0.5480 H   0  0  0  0  0  0  0  0  0  0  0  0
   25.7982  -15.3057    1.0311 H   0  0  0  0  0  0  0  0  0  0  0  0
   24.4955  -16.0516    0.0932 H   0  0  0  0  0  0  0  0  0  0  0  0
   27.5561  -17.8172   -0.8956 H   0  0  0  0  0  0  0  0  0  0  0  0
   27.5553  -17.8176    0.8963 H   0  0  0  0  0  0  0  0  0  0  0  0
   27.1939  -19.8549    0.8956 H   0  0  0  0  0  0  0  0  0  0  0  0
   27.1947  -19.8545   -0.8963 H   0  0  0  0  0  0  0  0  0  0  0  0
   28.9436  -22.3724   -1.0271 H   0  0  0  0  0  0  0  0  0  0  0  0
   30.2506  -21.6143   -0.1031 H   0  0  0  0  0  0  0  0  0  0  0  0
   30.2506  -23.4957    1.4592 H   0  0  0  0  0  0  0  0  0  0  0  0
   28.9336  -24.2599    0.5257 H   0  0  0  0  0  0  0  0  0  0  0  0
   31.8718  -23.8120   -0.5667 H   0  0  0  0  0  0  0  0  0  0  0  0
   30.5485  -24.5695   -1.4995 H   0  0  0  0  0  0  0  0  0  0  0  0
   30.4298  -26.3267    0.0978 H   0  0  0  0  0  0  0  0  0  0  0  0
   31.8401  -25.6251    1.0028 H   0  0  0  0  0  0  0  0  0  0  0  0
   31.6504  -27.6904    0.8710 H   0  0  0  0  0  0  0  0  0  0  0  0
   31.7154  -27.5612   -0.9518 H   0  0  0  0  0  0  0  0  0  0  0  0
   33.5421  -28.2903    0.9463 H   0  0  0  0  0  0  0  0  0  0  0  0
   33.6087  -28.1747   -0.8660 H   0  0  0  0  0  0  0  0  0  0  0  0
   33.3490  -30.2586   -0.9690 H   0  0  0  0  0  0  0  0  0  0  0  0
   34.8249  -29.5405   -0.0628 H   0  0  0  0  0  0  0  0  0  0  0  0
   34.2850  -30.8046    0.0000 H   0  0  0  0  0  0  0  0  0  0  0  0
  1  2  1  0  0  0  0
  1 68  1  0  0  0  0
  1 69  1  0  0  0  0
  1 70  1  0  0  0  0
  2  3  1  0  0  0  0
  2 71  1  0  0  0  0
  2 72  1  0  0  0  0
  3  4  1  0  0  0  0
  3 73  1  0  0  0  0
  3 74  1  0  0  0  0
  4  5  1  0  0  0  0
  4 75  1  0  0  0  0
  4 76  1  0  0  0  0
  5  6  1  0  0  0  0
  5 77  1  0  0  0  0
  5 78  1  0  0  0  0
  6  7  2  0  0  0  0
  6 79  1  0  0  0  0
  7  8  1  0  0  0  0
  7 80  1  0  0  0  0
  8  9  1  0  0  0  0
  8 81  1  0  0  0  0
  8 82  1  0  0  0  0
  9 10  2  0  0  0  0
  9 83  1  0  0  0  0
 10 11  1  0  0  0  0
 10 84  1  0  0  0  0
 11 12  1  0  0  0  0
 11 85  1  0  0  0  0
 11 86  1  0  0  0  0
 12 13  2  0  0  0  0
 12 87  1  0  0  0  0
 13 14  1  0  0  0  0
 13 88  1  0  0  0  0
 14 15  1  0  0  0  0
 14 89  1  0  0  0  0
 14 90  1  0  0  0  0
 15 16  2  0  0  0  0
 15 91  1  0  0  0  0
 16 17  1  0  0  0  0
 16 92  1  0  0  0  0
 17 18  1  0  0  0  0
 17 93  1  0  0  0  0
 17 94  1  0  0  0  0
 18 19  2  0  0  0  0
 18 95  1  0  0  0  0
 19 20  1  0  0  0  0
 19 96  1  0  0  0  0
 20 21  1  0  0  0  0
 20 97  1  0  0  0  0
 20 98  1  0  0  0  0
 21 22  1  0  0  0  0
 21 99  1  0  0  0  0
 21100  1  0  0  0  0
 22 23  2  0  0  0  0
 22 24  1  0  0  0  0
 24 25  1  0  0  0  0
 25101  1  0  0  0  0
 25102  1  0  0  0  0
 26 25  1  0  0  0  0
 26 27  1  0  0  0  0
 26 48  1  0  0  0  0
 26103  1  6  0  0  0
 27 28  1  0  0  0  0
 27104  1  0  0  0  0
 27105  1  0  0  0  0
 28 29  1  0  0  0  0
 29 30  2  0  0  0  0
 29 31  1  0  0  0  0
 31 32  1  0  0  0  0
 31106  1  0  0  0  0
 31107  1  0  0  0  0
 32 33  1  0  0  0  0
 32108  1  0  0  0  0
 32109  1  0  0  0  0
 33 34  1  0  0  0  0
 33110  1  0  0  0  0
 33111  1  0  0  0  0
 34 35  1  0  0  0  0
 34112  1  0  0  0  0
 34113  1  0  0  0  0
 35 36  1  0  0  0  0
 35114  1  0  0  0  0
 35115  1  0  0  0  0
 36 37  1  0  0  0  0
 36116  1  0  0  0  0
 36117  1  0  0  0  0
 37 38  1  0  0  0  0
 37118  1  0  0  0  0
 37119  1  0  0  0  0
 38 39  2  0  0  0  0
 38120  1  0  0  0  0
 39 40  1  0  0  0  0
 39121  1  0  0  0  0
 40 41  1  0  0  0  0
 40122  1  0  0  0  0
 40123  1  0  0  0  0
 41 42  1  0  0  0  0
 41124  1  0  0  0  0
 41125  1  0  0  0  0
 42 43  1  0  0  0  0
 42126  1  0  0  0  0
 42127  1  0  0  0  0
 43 44  1  0  0  0  0
 43128  1  0  0  0  0
 43129  1  0  0  0  0
 44 45  1  0  0  0  0
 44130  1  0  0  0  0
 44131  1  0  0  0  0
 45 46  1  0  0  0  0
 45132  1  0  0  0  0
 45133  1  0  0  0  0
 46 47  1  0  0  0  0
 46134  1  0  0  0  0
 46135  1  0  0  0  0
 47136  1  0  0  0  0
 47137  1  0  0  0  0
 47138  1  0  0  0  0
 48 49  1  0  0  0  0
 49 50  2  0  0  0  0
 49 51  1  0  0  0  0
 51 52  1  0  0  0  0
 51139  1  0  0  0  0
 51140  1  0  0  0  0
 52 53  1  0  0  0  0
 52141  1  0  0  0  0
 52142  1  0  0  0  0
 53 54  1  0  0  0  0
 53143  1  0  0  0  0
 53144  1  0  0  0  0
 54 55  1  0  0  0  0
 54145  1  0  0  0  0
 54146  1  0  0  0  0
 55 56  1  0  0  0  0
 55147  1  0  0  0  0
 55148  1  0  0  0  0
 56 57  1  0  0  0  0
 56149  1  0  0  0  0
 56150  1  0  0  0  0
 57 58  1  0  0  0  0
 58 59  1  0  0  0  0
 58151  1  0  0  0  0
 58152  1  0  0  0  0
 59 60  1  0  0  0  0
 59153  1  0  0  0  0
 59154  1  0  0  0  0
 60 61  1  0  0  0  0
 61 62  1  0  0  0  0
 61155  1  0  0  0  0
 61156  1  0  0  0  0
 62 63  1  0  0  0  0
 62157  1  0  0  0  0
 62158  1  0  0  0  0
 63 64  1  0  0  0  0
 63159  1  0  0  0  0
 63160  1  0  0  0  0
 64 65  1  0  0  0  0
 64161  1  0  0  0  0
 64162  1  0  0  0  0
 65 66  1  0  0  0  0
 65163  1  0  0  0  0
 65164  1  0  0  0  0
 66 67  1  0  0  0  0
 66165  1  0  0  0  0
 66166  1  0  0  0  0
 67167  1  0  0  0  0
 67168  1  0  0  0  0
 67169  1  0  0  0  0
M  END
>  <IDENTIFIER>
CNP0554572.1

>  <Energy>
11818.5

$$$$
