
 OpenBabel09092514383D

 41 43  0  0  0  0  0  0  0  0999 V2000
    4.5749    0.5025   -0.4067 C   0  0  0  0  0  0  0  0  0  0  0  0
    3.6843    1.5485   -1.0593 C   0  0  0  0  0  0  0  0  0  0  0  0
    2.3209    0.8726   -0.9911 C   0  0  0  0  0  0  0  0  0  0  0  0
    2.3025    0.4447    0.4790 C   0  0  0  0  0  0  0  0  0  0  0  0
    1.1579   -0.4849    0.9391 C   0  0  2  0  0  0  0  0  0  0  0  0
    1.0355   -1.8409    0.1992 C   0  0  0  0  0  0  0  0  0  0  0  0
   -0.3651   -1.8382   -0.4061 C   0  0  0  0  0  0  0  0  0  0  0  0
   -1.1599   -1.0317    0.6207 C   0  0  2  0  0  0  0  0  0  0  0  0
   -2.6028   -0.6895    0.1778 C   0  0  0  0  0  0  0  0  0  0  0  0
   -3.4026    0.1262    1.1982 C   0  0  0  0  0  0  0  0  0  0  0  0
   -4.5436    0.6622    0.3453 C   0  0  0  0  0  0  0  0  0  0  0  0
   -3.7700    1.1923   -0.8503 C   0  0  0  0  0  0  0  0  0  0  0  0
   -2.7790    0.0700   -1.1640 C   0  0  0  0  0  0  0  0  0  0  0  0
   -0.2302    0.1646    0.8168 C   0  0  0  0  0  0  0  0  0  0  0  0
    3.7202   -0.1097    0.7179 C   0  0  0  0  0  0  0  0  0  0  0  0
    5.5826    0.8507   -0.0980 H   0  0  0  0  0  0  0  0  0  0  0  0
    4.7132   -0.2902   -1.1777 H   0  0  0  0  0  0  0  0  0  0  0  0
    4.0060    1.8277   -2.0848 H   0  0  0  0  0  0  0  0  0  0  0  0
    3.6664    2.4678   -0.4292 H   0  0  0  0  0  0  0  0  0  0  0  0
    2.3122   -0.0185   -1.6589 H   0  0  0  0  0  0  0  0  0  0  0  0
    1.4926    1.5519   -1.2791 H   0  0  0  0  0  0  0  0  0  0  0  0
    2.2296    1.3904    1.0686 H   0  0  0  0  0  0  0  0  0  0  0  0
    1.3160   -0.7257    2.0166 H   0  0  0  0  0  0  0  0  0  0  0  0
    1.0392   -2.6343    0.9802 H   0  0  0  0  0  0  0  0  0  0  0  0
    1.8370   -2.0885   -0.5286 H   0  0  0  0  0  0  0  0  0  0  0  0
   -0.7587   -2.8567   -0.6097 H   0  0  0  0  0  0  0  0  0  0  0  0
   -0.3263   -1.2761   -1.3656 H   0  0  0  0  0  0  0  0  0  0  0  0
   -1.2105   -1.6091    1.5736 H   0  0  0  0  0  0  0  0  0  0  0  0
   -3.1631   -1.6477    0.0640 H   0  0  0  0  0  0  0  0  0  0  0  0
   -2.8056    0.9970    1.5504 H   0  0  0  0  0  0  0  0  0  0  0  0
   -3.7229   -0.4601    2.0859 H   0  0  0  0  0  0  0  0  0  0  0  0
   -5.1502    1.4403    0.8559 H   0  0  0  0  0  0  0  0  0  0  0  0
   -5.2074   -0.1729    0.0265 H   0  0  0  0  0  0  0  0  0  0  0  0
   -3.1885    2.0744   -0.4941 H   0  0  0  0  0  0  0  0  0  0  0  0
   -4.3799    1.5167   -1.7196 H   0  0  0  0  0  0  0  0  0  0  0  0
   -1.8678    0.4948   -1.6314 H   0  0  0  0  0  0  0  0  0  0  0  0
   -3.2359   -0.6424   -1.8867 H   0  0  0  0  0  0  0  0  0  0  0  0
   -0.4737    0.8414    1.6625 H   0  0  0  0  0  0  0  0  0  0  0  0
   -0.2686    0.7658   -0.1132 H   0  0  0  0  0  0  0  0  0  0  0  0
    3.7832   -1.2157    0.6190 H   0  0  0  0  0  0  0  0  0  0  0  0
    4.0517    0.1791    1.7390 H   0  0  0  0  0  0  0  0  0  0  0  0
  1  2  1  0  0  0  0
  1 16  1  0  0  0  0
  1 17  1  0  0  0  0
  2  3  1  0  0  0  0
  2 18  1  0  0  0  0
  2 19  1  0  0  0  0
  3  4  1  0  0  0  0
  3 20  1  0  0  0  0
  3 21  1  0  0  0  0
  4 15  1  0  0  0  0
  4 22  1  0  0  0  0
  5  4  1  0  0  0  0
  5  6  1  0  0  0  0
  5 23  1  1  0  0  0
  6  7  1  0  0  0  0
  6 24  1  0  0  0  0
  6 25  1  0  0  0  0
  7  8  1  0  0  0  0
  7 26  1  0  0  0  0
  7 27  1  0  0  0  0
  8  9  1  0  0  0  0
  8 14  1  0  0  0  0
  8 28  1  1  0  0  0
  9 10  1  0  0  0  0
  9 29  1  0  0  0  0
 10 11  1  0  0  0  0
 10 30  1  0  0  0  0
 10 31  1  0  0  0  0
 11 12  1  0  0  0  0
 11 32  1  0  0  0  0
 11 33  1  0  0  0  0
 12 13  1  0  0  0  0
 12 34  1  0  0  0  0
 12 35  1  0  0  0  0
 13  9  1  0  0  0  0
 13 36  1  0  0  0  0
 13 37  1  0  0  0  0
 14  5  1  0  0  0  0
 14 38  1  0  0  0  0
 14 39  1  0  0  0  0
 15  1  1  0  0  0  0
 15 40  1  0  0  0  0
 15 41  1  0  0  0  0
M  END
>  <IDENTIFIER>
CNP0079590.0

>  <Energy>
635.61

$$$$
