
 OpenBabel09122519143D

 60 62  0  0  0  0  0  0  0  0999 V2000
   -2.2181   -0.7264    2.4108 O   0  0  0  0  0  0  0  0  0  0  0  0
   -2.2391   -0.8249    1.1912 C   0  0  0  0  0  0  0  0  0  0  0  0
   -1.1710   -0.4374    0.4478 N   0  0  0  0  0  0  0  0  0  0  0  0
    0.0454    0.1415    1.0221 C   0  0  2  0  0  0  0  0  0  0  0  0
    0.1708    1.5994    0.5355 C   0  0  0  0  0  0  0  0  0  0  0  0
   -0.9588    2.4344    1.0947 C   0  0  0  0  0  0  0  0  0  0  0  0
   -0.9908    2.7432    2.4669 C   0  0  0  0  0  0  0  0  0  0  0  0
   -2.0374    3.5035    2.9967 C   0  0  0  0  0  0  0  0  0  0  0  0
   -3.0661    3.9521    2.1654 C   0  0  0  0  0  0  0  0  0  0  0  0
   -3.0447    3.6489    0.8011 C   0  0  0  0  0  0  0  0  0  0  0  0
   -1.9920    2.8994    0.2635 C   0  0  0  0  0  0  0  0  0  0  0  0
    1.2573   -0.6675    0.6396 C   0  0  0  0  0  0  0  0  0  0  0  0
    1.1453   -1.6638   -0.0631 O   0  0  0  0  0  0  0  0  0  0  0  0
    2.4652   -0.3093    1.1519 O   0  0  0  0  0  0  0  0  0  0  0  0
    3.6528   -0.9984    0.9774 C   0  0  0  0  0  0  0  0  0  0  0  0
    4.1570   -0.9499   -0.4751 C   0  0  2  0  0  0  0  0  0  0  0  0
    5.3262   -1.7754   -0.6060 O   0  0  0  0  0  0  0  0  0  0  0  0
    6.5065   -1.0365   -0.8665 C   0  0  1  0  0  0  0  0  0  0  0  0
    7.6351   -1.8708   -0.8509 O   0  0  0  0  0  0  0  0  0  0  0  0
    6.4141   -0.2495   -2.2049 C   0  0  1  0  0  0  0  0  0  0  0  0
    6.7074   -1.0514   -3.3224 O   0  0  0  0  0  0  0  0  0  0  0  0
    5.0099    0.3939   -2.3756 C   0  0  2  0  0  0  0  0  0  0  0  0
    5.0441    1.5902   -3.1150 O   0  0  0  0  0  0  0  0  0  0  0  0
    4.2942    0.5219   -1.0118 C   0  0  2  0  0  0  0  0  0  0  0  0
    4.9889    1.3241   -0.0788 O   0  0  0  0  0  0  0  0  0  0  0  0
   -3.3580   -1.2759    0.5606 O   0  0  0  0  0  0  0  0  0  0  0  0
   -4.5719   -1.4168    1.2056 C   0  0  0  0  0  0  0  0  0  0  0  0
   -5.6386   -1.8556    0.2390 C   0  0  0  0  0  0  0  0  0  0  0  0
   -5.6117   -3.1428   -0.3241 C   0  0  0  0  0  0  0  0  0  0  0  0
   -6.6259   -3.5477   -1.2017 C   0  0  0  0  0  0  0  0  0  0  0  0
   -7.6621   -2.6685   -1.5319 C   0  0  0  0  0  0  0  0  0  0  0  0
   -7.6888   -1.3847   -0.9832 C   0  0  0  0  0  0  0  0  0  0  0  0
   -6.6863   -0.9801   -0.0976 C   0  0  0  0  0  0  0  0  0  0  0  0
   -1.2388   -0.5090   -0.5804 H   0  0  0  0  0  0  0  0  0  0  0  0
    0.0053    0.1369    2.1317 H   0  0  0  0  0  0  0  0  0  0  0  0
    0.1524    1.5981   -0.5769 H   0  0  0  0  0  0  0  0  0  0  0  0
    1.1340    2.0562    0.8537 H   0  0  0  0  0  0  0  0  0  0  0  0
   -0.2011    2.4011    3.1244 H   0  0  0  0  0  0  0  0  0  0  0  0
   -2.0521    3.7419    4.0526 H   0  0  0  0  0  0  0  0  0  0  0  0
   -3.8799    4.5341    2.5791 H   0  0  0  0  0  0  0  0  0  0  0  0
   -3.8461    3.9931    0.1605 H   0  0  0  0  0  0  0  0  0  0  0  0
   -1.9936    2.6671   -0.7937 H   0  0  0  0  0  0  0  0  0  0  0  0
    3.5205   -2.0536    1.3026 H   0  0  0  0  0  0  0  0  0  0  0  0
    4.4221   -0.5415    1.6348 H   0  0  0  0  0  0  0  0  0  0  0  0
    3.3988   -1.4360   -1.1249 H   0  0  0  0  0  0  0  0  0  0  0  0
    6.6506   -0.3347   -0.0183 H   0  0  0  0  0  0  0  0  0  0  0  0
    7.4018   -2.6936   -1.3532 H   0  0  0  0  0  0  0  0  0  0  0  0
    7.2047    0.5279   -2.1274 H   0  0  0  0  0  0  0  0  0  0  0  0
    6.1065   -1.8415   -3.2890 H   0  0  0  0  0  0  0  0  0  0  0  0
    4.3741   -0.3126   -2.9561 H   0  0  0  0  0  0  0  0  0  0  0  0
    5.7211    2.1907   -2.7112 H   0  0  0  0  0  0  0  0  0  0  0  0
    3.2788    0.9559   -1.1450 H   0  0  0  0  0  0  0  0  0  0  0  0
    5.5414    1.9932   -0.5525 H   0  0  0  0  0  0  0  0  0  0  0  0
   -4.8449   -0.4288    1.6387 H   0  0  0  0  0  0  0  0  0  0  0  0
   -4.4960   -2.1502    2.0373 H   0  0  0  0  0  0  0  0  0  0  0  0
   -4.8191   -3.8358   -0.0724 H   0  0  0  0  0  0  0  0  0  0  0  0
   -6.6117   -4.5442   -1.6248 H   0  0  0  0  0  0  0  0  0  0  0  0
   -8.4442   -2.9813   -2.2117 H   0  0  0  0  0  0  0  0  0  0  0  0
   -8.4883   -0.7018   -1.2410 H   0  0  0  0  0  0  0  0  0  0  0  0
   -6.7255    0.0181    0.3203 H   0  0  0  0  0  0  0  0  0  0  0  0
  1  2  2  0  0  0  0
  2  3  1  0  0  0  0
  2 26  1  0  0  0  0
  3  4  1  0  0  0  0
  3 34  1  0  0  0  0
  4  5  1  0  0  0  0
  4 12  1  0  0  0  0
  4 35  1  1  0  0  0
  5  6  1  0  0  0  0
  5 36  1  0  0  0  0
  5 37  1  0  0  0  0
  6  7  2  0  0  0  0
  7  8  1  0  0  0  0
  7 38  1  0  0  0  0
  8  9  2  0  0  0  0
  8 39  1  0  0  0  0
  9 10  1  0  0  0  0
  9 40  1  0  0  0  0
 10 11  2  0  0  0  0
 10 41  1  0  0  0  0
 11  6  1  0  0  0  0
 11 42  1  0  0  0  0
 12 13  2  0  0  0  0
 12 14  1  0  0  0  0
 14 15  1  0  0  0  0
 15 43  1  0  0  0  0
 15 44  1  0  0  0  0
 16 15  1  0  0  0  0
 16 17  1  0  0  0  0
 16 45  1  6  0  0  0
 17 18  1  0  0  0  0
 18 19  1  0  0  0  0
 18 20  1  0  0  0  0
 18 46  1  1  0  0  0
 19 47  1  0  0  0  0
 20 21  1  0  0  0  0
 20 22  1  0  0  0  0
 20 48  1  1  0  0  0
 21 49  1  0  0  0  0
 22 23  1  0  0  0  0
 22 24  1  0  0  0  0
 22 50  1  6  0  0  0
 23 51  1  0  0  0  0
 24 25  1  0  0  0  0
 24 16  1  0  0  0  0
 24 52  1  6  0  0  0
 25 53  1  0  0  0  0
 26 27  1  0  0  0  0
 27 28  1  0  0  0  0
 27 54  1  0  0  0  0
 27 55  1  0  0  0  0
 28 29  2  0  0  0  0
 29 30  1  0  0  0  0
 29 56  1  0  0  0  0
 30 31  2  0  0  0  0
 30 57  1  0  0  0  0
 31 32  1  0  0  0  0
 31 58  1  0  0  0  0
 32 33  2  0  0  0  0
 32 59  1  0  0  0  0
 33 28  1  0  0  0  0
 33 60  1  0  0  0  0
M  END
>  <IDENTIFIER>
CNP0060924.2

>  <Energy>
473.924

$$$$
