
 OpenBabel09072517082D

120119  0  0  0  0  0  0  0  0999 V2000
   -0.8976    0.1437   -0.3450 C   0  0  0  0  0  0  0  0  0  0  0  0
    0.5582    0.5616   -0.5357 C   0  0  0  0  0  0  0  0  0  0  0  0
    1.5043   -0.4290    0.0930 C   0  0  0  0  0  0  0  0  0  0  0  0
    2.8313   -0.2251    0.0708 C   0  0  0  0  0  0  0  0  0  0  0  0
    3.7966   -1.1848    0.7259 C   0  0  0  0  0  0  0  0  0  0  0  0
    4.8405   -1.6947   -0.2379 C   0  0  0  0  0  0  0  0  0  0  0  0
    5.8032   -2.5327    0.1891 C   0  0  0  0  0  0  0  0  0  0  0  0
    6.8991   -3.0349   -0.7278 C   0  0  0  0  0  0  0  0  0  0  0  0
    7.8671   -3.9410    0.0052 C   0  0  0  0  0  0  0  0  0  0  0  0
    8.9915   -4.4151   -0.5731 C   0  0  0  0  0  0  0  0  0  0  0  0
    9.9805   -5.2573    0.2100 C   0  0  0  0  0  0  0  0  0  0  0  0
   10.3920   -6.5528   -0.4673 C   0  0  0  0  0  0  0  0  0  0  0  0
   11.2438   -7.3814    0.1731 C   0  0  0  0  0  0  0  0  0  0  0  0
   11.8093   -8.6903   -0.3816 C   0  0  0  0  0  0  0  0  0  0  0  0
   13.3490   -8.7729   -0.3859 C   0  0  0  0  0  0  0  0  0  0  0  0
   14.1006   -7.7013   -0.1013 C   0  0  0  0  0  0  0  0  0  0  0  0
   15.5885   -7.5000    0.0000 C   0  0  0  0  0  0  0  0  0  0  0  0
   16.8875   -8.2500    0.0000 C   0  0  0  0  0  2  0  0  0  0  0  0
   18.1865   -9.0000    0.0000 C   0  0  0  0  0  0  0  0  0  0  0  0
   19.4856   -9.7500    0.0000 C   0  0  0  0  0  0  0  0  0  0  0  0
   20.7846  -10.5000    0.0000 C   0  0  0  0  0  2  0  0  0  0  0  0
   22.0836  -11.2500    0.0000 C   0  0  0  0  0  0  0  0  0  0  0  0
   21.8887  -12.4547    0.1285 O   0  0  0  0  0  0  0  0  0  0  0  0
   23.4060  -10.7381    0.0072 O   0  0  0  0  0  0  0  0  0  0  0  0
   24.3962  -11.7002    0.2892 C   0  0  0  0  0  0  0  0  0  0  0  0
   25.9808  -12.0000    0.0000 C   0  0  2  0  0  0  0  0  0  0  0  0
   27.2798  -12.7500    0.0000 C   0  0  0  0  0  0  0  0  0  0  0  0
   28.5788  -13.5000    0.0000 O   0  0  0  0  0  0  0  0  0  0  0  0
   25.5925  -13.4069    0.3055 O   0  0  0  0  0  0  0  0  0  0  0  0
   25.1109  -14.4774   -0.4909 C   0  0  0  0  0  0  0  0  0  0  0  0
   25.2313  -14.4058   -1.7043 O   0  0  0  0  0  0  0  0  0  0  0  0
   24.2293  -15.6523    0.0884 C   0  0  0  0  0  0  0  0  0  0  0  0
   24.5931  -17.1354   -0.3520 C   0  0  0  0  0  0  0  0  0  0  0  0
   23.6255  -18.3357    0.0207 C   0  0  0  0  0  0  0  0  0  0  0  0
   23.9590  -19.6151   -0.3781 C   0  0  0  0  0  0  0  0  0  0  0  0
   23.3801  -21.0835   -0.2610 C   0  0  0  0  0  0  0  0  0  0  0  0
   22.0904  -21.7271    0.3618 C   0  0  0  0  0  0  0  0  0  0  0  0
   21.4165  -22.7616   -0.2839 C   0  0  0  0  0  0  0  0  0  0  0  0
   20.2041  -23.6275    0.2187 C   0  0  0  0  0  0  0  0  0  0  0  0
   20.3919  -25.1801    0.0999 C   0  0  0  0  0  0  0  0  0  0  0  0
   19.4258  -26.1774    0.2637 C   0  0  0  0  0  0  0  0  0  0  0  0
   19.8185  -27.6750    0.0491 C   0  0  0  0  0  0  0  0  0  0  0  0
   18.9725  -29.0106   -0.0277 C   0  0  0  0  0  0  0  0  0  0  0  0
   17.6482  -29.3855    0.1000 C   0  0  0  0  0  0  0  0  0  0  0  0
   17.1947  -30.8632   -0.2654 C   0  0  0  0  0  0  0  0  0  0  0  0
   16.2860  -31.7727    0.6334 C   0  0  0  0  0  0  0  0  0  0  0  0
   15.9301  -33.0605    0.2345 C   0  0  0  0  0  0  0  0  0  0  0  0
   14.9995  -34.0811    0.9914 C   0  0  0  0  0  0  0  0  0  0  0  0
   14.8585  -35.5059    0.2804 C   0  0  0  0  0  0  0  0  0  0  0  0
   13.8781  -36.6479    0.8666 C   0  0  0  0  0  0  0  0  0  0  0  0
   13.9808  -37.9808    0.0000 C   0  0  0  0  0  0  0  0  0  0  0  0
   13.2308  -39.2798    0.0000 C   0  0  0  0  0  0  0  0  0  0  0  0
   -1.1422    0.0820    0.7374 H   0  0  0  0  0  0  0  0  0  0  0  0
   -1.0833   -0.8440   -0.8183 H   0  0  0  0  0  0  0  0  0  0  0  0
   -1.5671    0.8950   -0.8151 H   0  0  0  0  0  0  0  0  0  0  0  0
    0.7043    1.5584   -0.0649 H   0  0  0  0  0  0  0  0  0  0  0  0
    0.7756    0.6427   -1.6227 H   0  0  0  0  0  0  0  0  0  0  0  0
    1.1016   -1.3111    0.5851 H   0  0  0  0  0  0  0  0  0  0  0  0
    3.2306    0.6652   -0.4066 H   0  0  0  0  0  0  0  0  0  0  0  0
    3.2533   -2.0486    1.1685 H   0  0  0  0  0  0  0  0  0  0  0  0
    4.3111   -0.6387    1.5455 H   0  0  0  0  0  0  0  0  0  0  0  0
    4.8282   -1.3688   -1.2755 H   0  0  0  0  0  0  0  0  0  0  0  0
    5.7965   -2.8389    1.2326 H   0  0  0  0  0  0  0  0  0  0  0  0
    7.4547   -2.1512   -1.1104 H   0  0  0  0  0  0  0  0  0  0  0  0
    6.4556   -3.5833   -1.5862 H   0  0  0  0  0  0  0  0  0  0  0  0
    7.6692   -4.1884    1.0445 H   0  0  0  0  0  0  0  0  0  0  0  0
    9.2264   -4.1410   -1.5980 H   0  0  0  0  0  0  0  0  0  0  0  0
    9.5697   -5.4841    1.2184 H   0  0  0  0  0  0  0  0  0  0  0  0
   10.9017   -4.6505    0.3462 H   0  0  0  0  0  0  0  0  0  0  0  0
   10.0222   -6.7984   -1.4584 H   0  0  0  0  0  0  0  0  0  0  0  0
   11.5706   -7.1026    1.1737 H   0  0  0  0  0  0  0  0  0  0  0  0
   11.4431   -9.4942    0.2898 H   0  0  0  0  0  0  0  0  0  0  0  0
   11.4255   -8.8886   -1.4047 H   0  0  0  0  0  0  0  0  0  0  0  0
   13.8287   -9.7158   -0.6249 H   0  0  0  0  0  0  0  0  0  0  0  0
   13.5946   -6.7630    0.0945 H   0  0  0  0  0  0  0  0  0  0  0  0
   15.7856   -6.7020   -0.7467 H   0  0  0  0  0  0  0  0  0  0  0  0
   15.6751   -6.9989    0.9878 H   0  0  0  0  0  0  0  0  0  0  0  0
   17.8173   -9.5556    0.8959 H   0  0  0  0  0  0  0  0  0  0  0  0
   17.8172   -9.5557   -0.8959 H   0  0  0  0  0  0  0  0  0  0  0  0
   19.8546   -9.1943    0.8959 H   0  0  0  0  0  0  0  0  0  0  0  0
   19.8546   -9.1943   -0.8960 H   0  0  0  0  0  0  0  0  0  0  0  0
   24.1918  -12.0044    1.3494 H   0  0  0  0  0  0  0  0  0  0  0  0
   23.9936  -12.3982   -0.4941 H   0  0  0  0  0  0  0  0  0  0  0  0
   25.9016  -11.7924   -1.1035 H   0  0  0  0  0  0  0  0  0  0  0  0
   27.3941  -12.5394    1.1056 H   0  0  0  0  0  0  0  0  0  0  0  0
   27.7885  -11.8573   -0.4441 H   0  0  0  0  0  0  0  0  0  0  0  0
   28.5591  -14.0419   -0.8300 H   0  0  0  0  0  0  0  0  0  0  0  0
   24.1961  -15.5828    1.1958 H   0  0  0  0  0  0  0  0  0  0  0  0
   23.2002  -15.4718   -0.2893 H   0  0  0  0  0  0  0  0  0  0  0  0
   24.6666  -17.1307   -1.4606 H   0  0  0  0  0  0  0  0  0  0  0  0
   25.6023  -17.3604    0.0541 H   0  0  0  0  0  0  0  0  0  0  0  0
   22.7152  -18.1575    0.5826 H   0  0  0  0  0  0  0  0  0  0  0  0
   24.9025  -19.6488   -0.9186 H   0  0  0  0  0  0  0  0  0  0  0  0
   24.1933  -21.6082    0.2840 H   0  0  0  0  0  0  0  0  0  0  0  0
   23.4310  -21.4708   -1.3012 H   0  0  0  0  0  0  0  0  0  0  0  0
   21.8012  -21.4569    1.3719 H   0  0  0  0  0  0  0  0  0  0  0  0
   21.7598  -23.0269   -1.2792 H   0  0  0  0  0  0  0  0  0  0  0  0
   19.9263  -23.3526    1.2581 H   0  0  0  0  0  0  0  0  0  0  0  0
   19.3539  -23.3691   -0.4462 H   0  0  0  0  0  0  0  0  0  0  0  0
   21.3895  -25.5063   -0.1813 H   0  0  0  0  0  0  0  0  0  0  0  0
   18.4021  -25.9133    0.5056 H   0  0  0  0  0  0  0  0  0  0  0  0
   20.6099  -27.8778    0.8018 H   0  0  0  0  0  0  0  0  0  0  0  0
   20.3138  -27.6613   -0.9462 H   0  0  0  0  0  0  0  0  0  0  0  0
   19.6317  -29.8313   -0.2966 H   0  0  0  0  0  0  0  0  0  0  0  0
   16.8994  -28.6349    0.3292 H   0  0  0  0  0  0  0  0  0  0  0  0
   16.6362  -30.7618   -1.2202 H   0  0  0  0  0  0  0  0  0  0  0  0
   18.1046  -31.4590   -0.4910 H   0  0  0  0  0  0  0  0  0  0  0  0
   15.9180  -31.3841    1.5768 H   0  0  0  0  0  0  0  0  0  0  0  0
   16.3330  -33.4054   -0.7135 H   0  0  0  0  0  0  0  0  0  0  0  0
   13.9913  -33.6244    1.0795 H   0  0  0  0  0  0  0  0  0  0  0  0
   15.4026  -34.2454    2.0124 H   0  0  0  0  0  0  0  0  0  0  0  0
   15.8824  -35.9352    0.2360 H   0  0  0  0  0  0  0  0  0  0  0  0
   14.5324  -35.3107   -0.7642 H   0  0  0  0  0  0  0  0  0  0  0  0
   14.1422  -36.8755    1.9204 H   0  0  0  0  0  0  0  0  0  0  0  0
   12.8357  -36.2660    0.8326 H   0  0  0  0  0  0  0  0  0  0  0  0
   13.8488  -37.5888   -1.0393 H   0  0  0  0  0  0  0  0  0  0  0  0
   15.0524  -38.2728    0.0837 H   0  0  0  0  0  0  0  0  0  0  0  0
   12.2378  -38.8355   -0.2329 H   0  0  0  0  0  0  0  0  0  0  0  0
   13.7141  -39.7233   -0.9021 H   0  0  0  0  0  0  0  0  0  0  0  0
   12.6958  -40.2064    0.0000 H   0  0  0  0  0  0  0  0  0  0  0  0
  1  2  1  0  0  0  0
  1 53  1  0  0  0  0
  1 54  1  0  0  0  0
  1 55  1  0  0  0  0
  2  3  1  0  0  0  0
  2 56  1  0  0  0  0
  2 57  1  0  0  0  0
  3  4  2  3  0  0  0
  3 58  1  0  0  0  0
  4  5  1  0  0  0  0
  4 59  1  0  0  0  0
  5  6  1  0  0  0  0
  5 60  1  0  0  0  0
  5 61  1  0  0  0  0
  6  7  2  3  0  0  0
  6 62  1  0  0  0  0
  7  8  1  0  0  0  0
  7 63  1  0  0  0  0
  8  9  1  0  0  0  0
  8 64  1  0  0  0  0
  8 65  1  0  0  0  0
  9 10  2  3  0  0  0
  9 66  1  0  0  0  0
 10 11  1  0  0  0  0
 10 67  1  0  0  0  0
 11 12  1  0  0  0  0
 11 68  1  0  0  0  0
 11 69  1  0  0  0  0
 12 13  2  3  0  0  0
 12 70  1  0  0  0  0
 13 14  1  0  0  0  0
 13 71  1  0  0  0  0
 14 15  1  0  0  0  0
 14 72  1  0  0  0  0
 14 73  1  0  0  0  0
 15 16  2  3  0  0  0
 15 74  1  0  0  0  0
 16 17  1  0  0  0  0
 16 75  1  0  0  0  0
 17 18  1  0  0  0  0
 17 76  1  0  0  0  0
 17 77  1  0  0  0  0
 18 19  1  0  0  0  0
 19 20  1  0  0  0  0
 19 78  1  0  0  0  0
 19 79  1  0  0  0  0
 20 21  1  0  0  0  0
 20 80  1  0  0  0  0
 20 81  1  0  0  0  0
 21 22  1  0  0  0  0
 22 23  2  0  0  0  0
 22 24  1  0  0  0  0
 24 25  1  0  0  0  0
 25 82  1  0  0  0  0
 25 83  1  0  0  0  0
 26 25  1  0  0  0  0
 26 27  1  0  0  0  0
 26 29  1  0  0  0  0
 26 84  1  1  0  0  0
 27 28  1  0  0  0  0
 27 85  1  0  0  0  0
 27 86  1  0  0  0  0
 28 87  1  0  0  0  0
 29 30  1  0  0  0  0
 30 31  2  0  0  0  0
 30 32  1  0  0  0  0
 32 33  1  0  0  0  0
 32 88  1  0  0  0  0
 32 89  1  0  0  0  0
 33 34  1  0  0  0  0
 33 90  1  0  0  0  0
 33 91  1  0  0  0  0
 34 35  2  3  0  0  0
 34 92  1  0  0  0  0
 35 36  1  0  0  0  0
 35 93  1  0  0  0  0
 36 37  1  0  0  0  0
 36 94  1  0  0  0  0
 36 95  1  0  0  0  0
 37 38  2  3  0  0  0
 37 96  1  0  0  0  0
 38 39  1  0  0  0  0
 38 97  1  0  0  0  0
 39 40  1  0  0  0  0
 39 98  1  0  0  0  0
 39 99  1  0  0  0  0
 40 41  2  3  0  0  0
 40100  1  0  0  0  0
 41 42  1  0  0  0  0
 41101  1  0  0  0  0
 42 43  1  0  0  0  0
 42102  1  0  0  0  0
 42103  1  0  0  0  0
 43 44  2  3  0  0  0
 43104  1  0  0  0  0
 44 45  1  0  0  0  0
 44105  1  0  0  0  0
 45 46  1  0  0  0  0
 45106  1  0  0  0  0
 45107  1  0  0  0  0
 46 47  2  3  0  0  0
 46108  1  0  0  0  0
 47 48  1  0  0  0  0
 47109  1  0  0  0  0
 48 49  1  0  0  0  0
 48110  1  0  0  0  0
 48111  1  0  0  0  0
 49 50  1  0  0  0  0
 49112  1  0  0  0  0
 49113  1  0  0  0  0
 50 51  1  0  0  0  0
 50114  1  0  0  0  0
 50115  1  0  0  0  0
 51 52  1  0  0  0  0
 51116  1  0  0  0  0
 51117  1  0  0  0  0
 52118  1  0  0  0  0
 52119  1  0  0  0  0
 52120  1  0  0  0  0
M  END
>  <IDENTIFIER>
CNP0260759.1

>  <Energy>
4154.25

$$$$
