
 OpenBabel09072506413D

 82 88  0  0  0  0  0  0  0  0999 V2000
    7.7794    0.0845    0.6428 C   0  0  0  0  0  0  0  0  0  0  0  0
    6.3572   -0.3950    0.9515 C   0  0  2  0  0  0  0  0  0  0  0  0
    5.3161    0.2093    0.0057 C   0  0  0  0  0  0  0  0  0  0  0  0
    4.0507    0.3142    0.8799 C   0  0  1  0  0  0  0  0  0  0  0  0
    3.1498    1.5014    0.4060 C   0  0  0  0  0  0  0  0  0  0  0  0
    1.9016    1.6798    1.3178 C   0  0  2  0  0  0  0  0  0  0  0  0
    2.1824    2.6814    2.4536 C   0  0  0  0  0  0  0  0  0  0  0  0
    1.5138    0.2947    1.8849 C   0  0  2  0  0  0  0  0  0  0  0  0
    1.9305   -0.8348    0.9539 C   0  0  2  0  0  0  0  0  0  0  0  0
    1.2189   -2.0433    1.5792 C   0  0  0  0  0  0  0  0  0  0  0  0
   -0.2107   -1.5178    1.9341 C   0  0  2  0  0  0  0  0  0  0  0  0
   -0.8165   -2.4682    3.0162 C   0  0  0  0  0  0  0  0  0  0  0  0
   -1.2509   -1.5627    0.6847 C   0  0  2  0  0  0  0  0  0  0  0  0
   -0.7253   -1.4654   -0.7815 C   0  0  0  0  0  0  0  0  0  0  0  0
   -1.7543   -1.5825   -1.9527 C   0  0  0  0  0  0  0  0  0  0  0  0
   -2.5364   -0.2465   -2.2382 C   0  0  1  0  0  0  0  0  0  0  0  0
   -2.8349    0.0277   -3.7934 C   0  0  0  0  0  0  0  0  0  0  0  0
   -3.7496   -1.0283   -4.4861 C   0  0  0  0  0  0  0  0  0  0  0  0
   -1.5116   -0.0122   -4.6071 C   0  0  0  0  0  0  0  0  0  0  0  0
   -3.2748    1.3676   -4.0104 O   0  0  0  0  0  0  0  0  0  0  0  0
   -4.5650    1.7026   -3.5552 C   0  0  0  0  0  0  0  0  0  0  0  0
   -4.4900    2.2744   -2.1725 C   0  0  0  0  0  0  0  0  0  0  0  0
   -4.7950    3.4466   -2.0081 O   0  0  0  0  0  0  0  0  0  0  0  0
   -4.0612    1.4697   -0.9705 C   0  0  2  0  0  0  0  0  0  0  0  0
   -2.9458    2.1289   -0.3970 O   0  0  0  0  0  0  0  0  0  0  0  0
   -2.8671    1.7905    0.8876 O   0  0  0  0  0  0  0  0  0  0  0  0
   -1.8110    0.8595    0.9724 C   0  0  1  0  0  0  0  0  0  0  0  0
   -1.0483    1.0103    2.2812 C   0  0  0  0  0  0  0  0  0  0  0  0
    0.1049   -0.0386    2.5055 C   0  0  2  0  0  0  0  0  0  0  0  0
    0.3188   -0.0307    4.0609 C   0  0  0  0  0  0  0  0  0  0  0  0
   -2.3847   -0.5635    0.9604 C   0  0  1  0  0  0  0  0  0  0  0  0
   -3.6350   -0.7712    0.1071 C   0  0  0  0  0  0  0  0  0  0  0  0
   -3.7735   -0.0552   -1.2616 C   0  0  2  0  0  0  0  0  0  0  0  0
   -4.9435   -0.6028   -1.8206 O   0  0  0  0  0  0  0  0  0  0  0  0
    3.3583   -0.9591    0.8818 O   0  0  0  0  0  0  0  0  0  0  0  0
    4.5620    0.5487    2.1423 O   0  0  0  0  0  0  0  0  0  0  0  0
    5.8299    0.1156    2.2440 C   0  0  0  0  0  0  0  0  0  0  0  0
    6.3938   -0.0080    3.3168 O   0  0  0  0  0  0  0  0  0  0  0  0
    8.0944   -0.2722   -0.3597 H   0  0  0  0  0  0  0  0  0  0  0  0
    8.4864   -0.3156    1.4018 H   0  0  0  0  0  0  0  0  0  0  0  0
    7.8392    1.1952    0.6668 H   0  0  0  0  0  0  0  0  0  0  0  0
    6.3085   -1.5053    0.9767 H   0  0  0  0  0  0  0  0  0  0  0  0
    5.2049   -0.2793   -0.9852 H   0  0  0  0  0  0  0  0  0  0  0  0
    5.6428    1.2598   -0.1803 H   0  0  0  0  0  0  0  0  0  0  0  0
    2.8057    1.2211   -0.6145 H   0  0  0  0  0  0  0  0  0  0  0  0
    3.6951    2.4647    0.2968 H   0  0  0  0  0  0  0  0  0  0  0  0
    1.0972    2.0996    0.6761 H   0  0  0  0  0  0  0  0  0  0  0  0
    3.0087    2.3318    3.1063 H   0  0  0  0  0  0  0  0  0  0  0  0
    1.2883    2.8393    3.0855 H   0  0  0  0  0  0  0  0  0  0  0  0
    2.4686    3.6656    2.0261 H   0  0  0  0  0  0  0  0  0  0  0  0
    2.2442    0.1076    2.7050 H   0  0  0  0  0  0  0  0  0  0  0  0
    1.5679   -0.6651   -0.0542 H   0  0  0  0  0  0  0  0  0  0  0  0
    1.7625   -2.2658    2.5258 H   0  0  0  0  0  0  0  0  0  0  0  0
    1.2381   -2.9694    0.9666 H   0  0  0  0  0  0  0  0  0  0  0  0
   -0.9576   -3.4896    2.6026 H   0  0  0  0  0  0  0  0  0  0  0  0
   -1.7928   -2.1081    3.3948 H   0  0  0  0  0  0  0  0  0  0  0  0
   -0.1457   -2.5949    3.8898 H   0  0  0  0  0  0  0  0  0  0  0  0
   -1.6886   -2.5865    0.6794 H   0  0  0  0  0  0  0  0  0  0  0  0
   -0.0100   -2.3079   -0.9036 H   0  0  0  0  0  0  0  0  0  0  0  0
   -0.1875   -0.5286   -0.9819 H   0  0  0  0  0  0  0  0  0  0  0  0
   -2.4114   -2.4757   -1.8953 H   0  0  0  0  0  0  0  0  0  0  0  0
   -1.0793   -1.7799   -2.7957 H   0  0  0  0  0  0  0  0  0  0  0  0
   -1.8037    0.5480   -1.9919 H   0  0  0  0  0  0  0  0  0  0  0  0
   -3.3053   -2.0415   -4.3880 H   0  0  0  0  0  0  0  0  0  0  0  0
   -3.8484   -0.7968   -5.5684 H   0  0  0  0  0  0  0  0  0  0  0  0
   -4.7797   -1.0989   -4.1079 H   0  0  0  0  0  0  0  0  0  0  0  0
   -1.0638   -1.0193   -4.7045 H   0  0  0  0  0  0  0  0  0  0  0  0
   -0.7628    0.6849   -4.1751 H   0  0  0  0  0  0  0  0  0  0  0  0
   -1.7043    0.3144   -5.6532 H   0  0  0  0  0  0  0  0  0  0  0  0
   -5.3128    0.8976   -3.6300 H   0  0  0  0  0  0  0  0  0  0  0  0
   -4.9508    2.4842   -4.2448 H   0  0  0  0  0  0  0  0  0  0  0  0
   -4.9335    1.5437   -0.2788 H   0  0  0  0  0  0  0  0  0  0  0  0
   -1.0814    1.0428    0.1549 H   0  0  0  0  0  0  0  0  0  0  0  0
   -1.8225    0.8735    3.0708 H   0  0  0  0  0  0  0  0  0  0  0  0
   -0.6818    2.0461    2.4110 H   0  0  0  0  0  0  0  0  0  0  0  0
    0.6188    0.9794    4.4122 H   0  0  0  0  0  0  0  0  0  0  0  0
    1.1075   -0.7442    4.3821 H   0  0  0  0  0  0  0  0  0  0  0  0
   -0.6104   -0.3030    4.6046 H   0  0  0  0  0  0  0  0  0  0  0  0
   -2.7890   -0.8091    1.9662 H   0  0  0  0  0  0  0  0  0  0  0  0
   -4.5168   -0.4430    0.7065 H   0  0  0  0  0  0  0  0  0  0  0  0
   -3.7798   -1.8698    0.0099 H   0  0  0  0  0  0  0  0  0  0  0  0
   -4.8144   -1.5815   -1.9305 H   0  0  0  0  0  0  0  0  0  0  0  0
  1 39  1  0  0  0  0
  1 40  1  0  0  0  0
  1 41  1  0  0  0  0
  2  1  1  0  0  0  0
  2  3  1  0  0  0  0
  2 42  1  6  0  0  0
  3 43  1  0  0  0  0
  3 44  1  0  0  0  0
  4  3  1  0  0  0  0
  4  5  1  0  0  0  0
  4 36  1  1  0  0  0
  5  6  1  0  0  0  0
  5 45  1  0  0  0  0
  5 46  1  0  0  0  0
  6  7  1  0  0  0  0
  6 47  1  6  0  0  0
  7 48  1  0  0  0  0
  7 49  1  0  0  0  0
  7 50  1  0  0  0  0
  8  6  1  0  0  0  0
  8  9  1  0  0  0  0
  8 51  1  1  0  0  0
  9 10  1  0  0  0  0
  9 35  1  0  0  0  0
  9 52  1  6  0  0  0
 10 11  1  0  0  0  0
 10 53  1  0  0  0  0
 10 54  1  0  0  0  0
 11 12  1  1  0  0  0
 11 13  1  0  0  0  0
 12 55  1  0  0  0  0
 12 56  1  0  0  0  0
 12 57  1  0  0  0  0
 13 14  1  0  0  0  0
 13 58  1  1  0  0  0
 14 15  1  0  0  0  0
 14 59  1  0  0  0  0
 14 60  1  0  0  0  0
 15 61  1  0  0  0  0
 15 62  1  0  0  0  0
 16 15  1  0  0  0  0
 16 17  1  0  0  0  0
 16 63  1  1  0  0  0
 17 18  1  0  0  0  0
 17 19  1  0  0  0  0
 17 20  1  0  0  0  0
 18 64  1  0  0  0  0
 18 65  1  0  0  0  0
 18 66  1  0  0  0  0
 19 67  1  0  0  0  0
 19 68  1  0  0  0  0
 19 69  1  0  0  0  0
 20 21  1  0  0  0  0
 21 22  1  0  0  0  0
 21 70  1  0  0  0  0
 21 71  1  0  0  0  0
 22 23  2  0  0  0  0
 22 24  1  0  0  0  0
 24 25  1  0  0  0  0
 24 72  1  1  0  0  0
 25 26  1  0  0  0  0
 26 27  1  0  0  0  0
 27 28  1  0  0  0  0
 27 31  1  0  0  0  0
 27 73  1  6  0  0  0
 28 29  1  0  0  0  0
 28 74  1  0  0  0  0
 28 75  1  0  0  0  0
 29 30  1  1  0  0  0
 29  8  1  0  0  0  0
 29 11  1  0  0  0  0
 30 76  1  0  0  0  0
 30 77  1  0  0  0  0
 30 78  1  0  0  0  0
 31 32  1  0  0  0  0
 31 13  1  0  0  0  0
 31 79  1  1  0  0  0
 32 33  1  0  0  0  0
 32 80  1  0  0  0  0
 32 81  1  0  0  0  0
 33 34  1  6  0  0  0
 33 16  1  0  0  0  0
 33 24  1  0  0  0  0
 34 82  1  0  0  0  0
 35  4  1  0  0  0  0
 36 37  1  0  0  0  0
 37 38  2  0  0  0  0
 37  2  1  0  0  0  0
M  END
>  <IDENTIFIER>
CNP0531900.0

>  <Energy>
1402.77

$$$$
