
 OpenBabel09122507263D

 50 56  0  0  0  0  0  0  0  0999 V2000
    5.0491   -1.3505    0.6941 C   0  0  0  0  0  0  0  0  0  0  0  0
    4.3782   -0.9277   -0.6178 C   0  0  0  0  0  0  0  0  0  0  0  0
    5.1234    0.2543   -1.2482 C   0  0  0  0  0  0  0  0  0  0  0  0
    2.8746   -0.6098   -0.4084 C   0  0  2  0  0  0  0  0  0  0  0  0
    2.0651   -1.7409   -0.5495 O   0  0  0  0  0  0  0  0  0  0  0  0
    2.0064   -0.7784   -1.6047 C   0  0  1  0  0  0  0  0  0  0  0  0
    0.5720   -0.2270   -1.6608 C   0  0  2  0  0  0  0  0  0  0  0  0
    0.6124    1.1977   -1.5962 O   0  0  0  0  0  0  0  0  0  0  0  0
    0.0108    0.5495   -0.5127 C   0  0  2  0  0  0  0  0  0  0  0  0
    0.8667    0.4496    0.7666 C   0  0  1  0  0  0  0  0  0  0  0  0
    0.4533    1.2477    1.8183 O   0  0  0  0  0  0  0  0  0  0  0  0
    0.1917   -0.1465    1.9723 C   0  0  1  0  0  0  0  0  0  0  0  0
   -1.3486   -0.2835    2.0068 C   0  0  0  0  0  0  0  0  0  0  0  0
   -1.9756   -0.4434    0.6020 C   0  0  1  0  0  0  0  0  0  0  0  0
   -3.4840   -0.5999    0.6468 C   0  0  0  0  0  0  0  0  0  0  0  0
   -4.2917   -0.1443   -0.3042 C   0  0  0  0  0  0  0  0  0  0  0  0
   -3.8490    0.5772   -1.5506 C   0  0  0  0  0  0  0  0  0  0  0  0
   -2.3163    0.4663   -1.7234 C   0  0  0  0  0  0  0  0  0  0  0  0
   -1.5428    0.6936   -0.3846 C   0  0  2  0  0  0  0  0  0  0  0  0
   -1.8885    2.1233    0.1311 C   0  0  0  0  0  0  0  0  0  0  0  0
   -5.6338   -0.4692    0.1156 C   0  0  0  0  0  0  0  0  0  0  0  0
   -6.6548   -0.1992   -0.4944 O   0  0  0  0  0  0  0  0  0  0  0  0
   -5.6122   -1.1489    1.2763 O   0  0  0  0  0  0  0  0  0  0  0  0
   -4.3029   -1.2992    1.7042 C   0  0  0  0  0  0  0  0  0  0  0  0
    2.3998    0.3893    0.6741 C   0  0  2  0  0  0  0  0  0  0  0  0
    2.9185    1.6745    0.4412 O   0  0  0  0  0  0  0  0  0  0  0  0
    6.1061   -1.6365    0.5069 H   0  0  0  0  0  0  0  0  0  0  0  0
    4.5218   -2.2263    1.1282 H   0  0  0  0  0  0  0  0  0  0  0  0
    5.0419   -0.5203    1.4316 H   0  0  0  0  0  0  0  0  0  0  0  0
    4.4667   -1.7829   -1.3261 H   0  0  0  0  0  0  0  0  0  0  0  0
    5.1280    1.1369   -0.5777 H   0  0  0  0  0  0  0  0  0  0  0  0
    4.6478    0.5325   -2.2129 H   0  0  0  0  0  0  0  0  0  0  0  0
    6.1784   -0.0282   -1.4519 H   0  0  0  0  0  0  0  0  0  0  0  0
    2.4116   -1.2581   -2.5204 H   0  0  0  0  0  0  0  0  0  0  0  0
    0.0029   -0.4733   -2.5770 H   0  0  0  0  0  0  0  0  0  0  0  0
    0.7367   -0.3923    2.9078 H   0  0  0  0  0  0  0  0  0  0  0  0
   -1.7945    0.5787    2.5493 H   0  0  0  0  0  0  0  0  0  0  0  0
   -1.5910   -1.1950    2.5945 H   0  0  0  0  0  0  0  0  0  0  0  0
   -1.5932   -1.4125    0.2058 H   0  0  0  0  0  0  0  0  0  0  0  0
   -4.1832    1.6328   -1.4762 H   0  0  0  0  0  0  0  0  0  0  0  0
   -4.3262    0.1352   -2.4514 H   0  0  0  0  0  0  0  0  0  0  0  0
   -1.9861    1.1622   -2.5248 H   0  0  0  0  0  0  0  0  0  0  0  0
   -2.1182   -0.5740   -2.0614 H   0  0  0  0  0  0  0  0  0  0  0  0
   -2.9724    2.2499    0.3191 H   0  0  0  0  0  0  0  0  0  0  0  0
   -1.5726    2.8803   -0.6182 H   0  0  0  0  0  0  0  0  0  0  0  0
   -1.4051    2.3891    1.0839 H   0  0  0  0  0  0  0  0  0  0  0  0
   -4.0327   -2.3748    1.7635 H   0  0  0  0  0  0  0  0  0  0  0  0
   -4.1687   -0.8117    2.6929 H   0  0  0  0  0  0  0  0  0  0  0  0
    2.7971    0.0530    1.6547 H   0  0  0  0  0  0  0  0  0  0  0  0
    2.6917    1.9363   -0.4878 H   0  0  0  0  0  0  0  0  0  0  0  0
  1  2  1  0  0  0  0
  1 27  1  0  0  0  0
  1 28  1  0  0  0  0
  1 29  1  0  0  0  0
  2  3  1  0  0  0  0
  2 30  1  0  0  0  0
  3 31  1  0  0  0  0
  3 32  1  0  0  0  0
  3 33  1  0  0  0  0
  4  2  1  6  0  0  0
  4  5  1  0  0  0  0
  6  5  1  0  0  0  0
  6  7  1  0  0  0  0
  6  4  1  0  0  0  0
  6 34  1  6  0  0  0
  7  8  1  0  0  0  0
  7 35  1  6  0  0  0
  9  8  1  6  0  0  0
  9 10  1  0  0  0  0
  9  7  1  0  0  0  0
 10 11  1  1  0  0  0
 10 25  1  0  0  0  0
 11 12  1  0  0  0  0
 12 13  1  0  0  0  0
 12 10  1  0  0  0  0
 12 36  1  1  0  0  0
 13 37  1  0  0  0  0
 13 38  1  0  0  0  0
 14 13  1  0  0  0  0
 14 15  1  0  0  0  0
 14 39  1  6  0  0  0
 15 16  2  0  0  0  0
 16 17  1  0  0  0  0
 16 21  1  0  0  0  0
 17 18  1  0  0  0  0
 17 40  1  0  0  0  0
 17 41  1  0  0  0  0
 18 19  1  0  0  0  0
 18 42  1  0  0  0  0
 18 43  1  0  0  0  0
 19 20  1  1  0  0  0
 19 14  1  0  0  0  0
 19  9  1  0  0  0  0
 20 44  1  0  0  0  0
 20 45  1  0  0  0  0
 20 46  1  0  0  0  0
 21 22  2  0  0  0  0
 21 23  1  0  0  0  0
 23 24  1  0  0  0  0
 24 15  1  0  0  0  0
 24 47  1  0  0  0  0
 24 48  1  0  0  0  0
 25 26  1  0  0  0  0
 25  4  1  0  0  0  0
 25 49  1  1  0  0  0
 26 50  1  0  0  0  0
M  END
>  <IDENTIFIER>
CNP0125964.1

>  <Energy>
4942.03

$$$$
