
 OpenBabel09102506403D

 23 23  0  0  0  0  0  0  0  0999 V2000
   -1.5641    2.3223    0.4237 N   0  0  0  0  0  0  0  0  0  0  0  0
   -0.9485    1.1379   -0.1765 C   0  0  1  0  0  0  0  0  0  0  0  0
    0.5545    1.1113    0.0758 C   0  0  0  0  0  0  0  0  0  0  0  0
    1.2555   -0.0008   -0.2564 C   0  0  0  0  0  0  0  0  0  0  0  0
    2.7144   -0.1645    0.0250 C   0  0  0  0  0  0  0  0  0  0  0  0
    3.2636   -1.2132   -0.2715 O   0  0  0  0  0  0  0  0  0  0  0  0
    3.4631    0.8100    0.5914 O   0  0  0  0  0  0  0  0  0  0  0  0
    0.4717   -1.1082   -0.9346 C   0  0  0  0  0  0  0  0  0  0  0  0
   -0.8412   -1.4344   -0.1684 C   0  0  1  0  0  0  0  0  0  0  0  0
   -0.6431   -2.4081    0.8250 O   0  0  0  0  0  0  0  0  0  0  0  0
   -1.5110   -0.1615    0.4497 C   0  0  2  0  0  0  0  0  0  0  0  0
   -2.9117   -0.2383    0.3838 O   0  0  0  0  0  0  0  0  0  0  0  0
   -1.1660    3.1810   -0.0219 H   0  0  0  0  0  0  0  0  0  0  0  0
   -1.3587    2.3547    1.4495 H   0  0  0  0  0  0  0  0  0  0  0  0
   -1.1579    1.1395   -1.2694 H   0  0  0  0  0  0  0  0  0  0  0  0
    1.0143    1.9496    0.5837 H   0  0  0  0  0  0  0  0  0  0  0  0
    3.1263    1.6791    0.8398 H   0  0  0  0  0  0  0  0  0  0  0  0
    1.0554   -2.0268   -1.1568 H   0  0  0  0  0  0  0  0  0  0  0  0
    0.1764   -0.6847   -1.9204 H   0  0  0  0  0  0  0  0  0  0  0  0
   -1.5049   -1.8826   -0.9406 H   0  0  0  0  0  0  0  0  0  0  0  0
    0.0847   -2.0832    1.4174 H   0  0  0  0  0  0  0  0  0  0  0  0
   -1.2273   -0.1055    1.5258 H   0  0  0  0  0  0  0  0  0  0  0  0
   -3.1618   -0.1669   -0.5743 H   0  0  0  0  0  0  0  0  0  0  0  0
  1 13  1  0  0  0  0
  1 14  1  0  0  0  0
  2  1  1  0  0  0  0
  2  3  1  0  0  0  0
  2 15  1  6  0  0  0
  3  4  2  0  0  0  0
  3 16  1  0  0  0  0
  4  5  1  0  0  0  0
  4  8  1  0  0  0  0
  5  6  2  0  0  0  0
  5  7  1  0  0  0  0
  7 17  1  0  0  0  0
  8  9  1  0  0  0  0
  8 18  1  0  0  0  0
  8 19  1  0  0  0  0
  9 10  1  0  0  0  0
  9 11  1  0  0  0  0
  9 20  1  6  0  0  0
 10 21  1  0  0  0  0
 11 12  1  0  0  0  0
 11  2  1  0  0  0  0
 11 22  1  1  0  0  0
 12 23  1  0  0  0  0
M  END
>  <IDENTIFIER>
CNP0524277.1

>  <Energy>
233.7

$$$$
