
 OpenBabel09102500303D

 15 16  0  0  0  0  0  0  0  0999 V2000
   -3.0553    1.0581   -0.3827 N   0  0  0  0  0  0  0  0  0  0  0  0
   -1.8467    1.3148   -0.2349 N   0  0  0  0  0  0  0  0  0  0  0  0
   -0.8987    0.2800   -0.0621 C   0  0  0  0  0  0  0  0  0  0  0  0
    0.4506    0.4466    0.1002 C   0  0  0  0  0  0  0  0  0  0  0  0
    1.4606    1.3637    0.1824 C   0  0  0  0  0  0  0  0  0  0  0  0
    2.6052    0.5728    0.3638 C   0  0  0  0  0  0  0  0  0  0  0  0
    2.2822   -0.7191    0.3862 O   0  0  0  0  0  0  0  0  0  0  0  0
    0.9852   -0.7562    0.2257 C   0  0  0  0  0  0  0  0  0  0  0  0
   -0.0007   -1.7112    0.1479 C   0  0  0  0  0  0  0  0  0  0  0  0
   -1.1798   -1.0531   -0.0325 N   0  0  0  0  0  0  0  0  0  0  0  0
   -3.7319    1.8237   -0.5086 H   0  0  0  0  0  0  0  0  0  0  0  0
    1.3923    2.4414    0.1216 H   0  0  0  0  0  0  0  0  0  0  0  0
    3.6145    0.9470    0.4712 H   0  0  0  0  0  0  0  0  0  0  0  0
    0.1145   -2.7848    0.2140 H   0  0  0  0  0  0  0  0  0  0  0  0
   -2.1202   -1.4960   -0.1301 H   0  0  0  0  0  0  0  0  0  0  0  0
  1  2  2  0  0  0  0
  1 11  1  0  0  0  0
  2  3  1  0  0  0  0
  3  4  2  0  0  0  0
  4  5  1  0  0  0  0
  5  6  2  0  0  0  0
  5 12  1  0  0  0  0
  6  7  1  0  0  0  0
  6 13  1  0  0  0  0
  7  8  1  0  0  0  0
  8  9  2  0  0  0  0
  8  4  1  0  0  0  0
  9 10  1  0  0  0  0
  9 14  1  0  0  0  0
 10  3  1  0  0  0  0
 10 15  1  0  0  0  0
M  END
>  <IDENTIFIER>
CNP0000588.0

>  <Energy>
423.069

$$$$
