
 OpenBabel09042517423D

101102  0  0  0  0  0  0  0  0999 V2000
   -3.9475    3.0631   -2.4914 C   0  0  0  0  0  0  0  0  0  0  0  0
   -3.3427    3.2197   -1.2280 O   0  0  0  0  0  0  0  0  0  0  0  0
   -2.3026    2.2670   -1.0321 C   0  0  1  0  0  0  0  0  0  0  0  0
   -1.1557    3.1228   -0.4196 C   0  0  0  0  0  0  0  0  0  0  0  0
    0.2991    2.6531   -0.5313 C   0  0  2  0  0  0  0  0  0  0  0  0
    0.6240    2.5829   -1.9000 O   0  0  0  0  0  0  0  0  0  0  0  0
    0.6918    1.3590    0.2267 C   0  0  2  0  0  0  0  0  0  0  0  0
    0.2394    1.4578    1.7194 C   0  0  0  0  0  0  0  0  0  0  0  0
    2.2335    1.0863    0.1513 C   0  0  2  0  0  0  0  0  0  0  0  0
    2.8058    1.6501   -1.0094 O   0  0  0  0  0  0  0  0  0  0  0  0
    2.6469   -0.4244    0.2192 C   0  0  2  0  0  0  0  0  0  0  0  0
    1.8878   -1.1921    1.3348 C   0  0  0  0  0  0  0  0  0  0  0  0
    4.1930   -0.4538    0.2127 C   0  0  0  0  0  0  0  0  0  0  0  0
    5.0043   -1.5359    0.1985 C   0  0  0  0  0  0  0  0  0  0  0  0
    4.4929   -2.9441    0.3890 C   0  0  0  0  0  0  0  0  0  0  0  0
    6.5025   -1.4382    0.0567 C   0  0  0  0  0  0  0  0  0  0  0  0
    7.1996   -2.6631   -0.5478 C   0  0  0  0  0  0  0  0  0  0  0  0
    7.2698   -0.3703    0.4637 C   0  0  0  0  0  0  0  0  0  0  0  0
    8.7542   -0.5465    0.4439 C   0  0  0  0  0  0  0  0  0  0  0  0
    9.7433    0.2162    0.9041 C   0  0  0  0  0  0  0  0  0  0  0  0
   11.1579   -0.3497    0.9168 C   0  0  0  0  0  0  0  0  0  0  0  0
   11.4941   -1.8284    0.6415 C   0  0  0  0  0  0  0  0  0  0  0  0
   12.2110    0.4234    1.2324 C   0  0  0  0  0  0  0  0  0  0  0  0
   12.0917    1.8236    1.5403 C   0  0  0  0  0  0  0  0  0  0  0  0
   11.9932    2.9490    1.7875 N   0  0  0  0  0  0  0  0  0  0  0  0
   -2.8769    1.1783   -0.0774 C   0  0  1  0  0  0  0  0  0  0  0  0
   -4.2569    1.1250   -0.2711 O   0  0  0  0  0  0  0  0  0  0  0  0
   -4.7618    0.0193    0.4426 C   0  0  2  0  0  0  0  0  0  0  0  0
   -5.7564   -0.6702   -0.5768 C   0  0  0  0  0  0  0  0  0  0  0  0
   -7.1398   -1.0926   -0.0421 C   0  0  2  0  0  0  0  0  0  0  0  0
   -8.1874   -0.5071   -0.7882 O   0  0  0  0  0  0  0  0  0  0  0  0
   -7.2664   -0.8228    1.4588 C   0  0  2  0  0  0  0  0  0  0  0  0
   -8.7014   -0.9921    1.9652 C   0  0  0  0  0  0  0  0  0  0  0  0
   -6.6863    0.5424    1.8361 C   0  0  2  0  0  0  0  0  0  0  0  0
   -7.4529    1.7743    1.3768 C   0  0  0  0  0  0  0  0  0  0  0  0
   -7.2075    2.5013    0.2744 C   0  0  0  0  0  0  0  0  0  0  0  0
   -8.0701    3.6160   -0.0429 C   0  0  0  0  0  0  0  0  0  0  0  0
   -8.7705    4.5044   -0.2810 N   0  0  0  0  0  0  0  0  0  0  0  0
   -5.3002    0.6132    1.6251 O   0  0  0  0  0  0  0  0  0  0  0  0
   -3.5004   -0.8812    0.8019 C   0  0  0  0  0  0  0  0  0  0  0  0
   -3.0327   -0.6552    2.2839 C   0  0  0  0  0  0  0  0  0  0  0  0
   -3.6509   -2.4234    0.6852 C   0  0  0  0  0  0  0  0  0  0  0  0
   -2.4902   -0.3066   -0.2140 C   0  0  1  0  0  0  0  0  0  0  0  0
   -2.8922   -0.6800   -1.5267 O   0  0  0  0  0  0  0  0  0  0  0  0
   -1.7564   -1.6956   -2.3809 P   0  0  0  0  0  0  0  0  0  0  0  0
   -1.5213   -3.0174   -1.6012 O   0  0  0  0  0  0  0  0  0  0  0  0
   -0.2347   -0.9235   -2.6855 O   0  0  0  0  0  0  0  0  0  0  0  0
   -2.4767   -2.1515   -3.8948 O   0  0  0  0  0  0  0  0  0  0  0  0
   -4.7988    3.7693   -2.5537 H   0  0  0  0  0  0  0  0  0  0  0  0
   -4.3601    2.0381   -2.6220 H   0  0  0  0  0  0  0  0  0  0  0  0
   -3.2302    3.3150   -3.3015 H   0  0  0  0  0  0  0  0  0  0  0  0
   -1.9861    1.8156   -2.0011 H   0  0  0  0  0  0  0  0  0  0  0  0
   -1.4098    3.4152    0.6225 H   0  0  0  0  0  0  0  0  0  0  0  0
   -1.1433    4.0791   -0.9891 H   0  0  0  0  0  0  0  0  0  0  0  0
    0.9126    3.4667   -0.0847 H   0  0  0  0  0  0  0  0  0  0  0  0
    0.2369    1.7462   -2.2667 H   0  0  0  0  0  0  0  0  0  0  0  0
    0.1888    0.5479   -0.3070 H   0  0  0  0  0  0  0  0  0  0  0  0
    0.7012    2.3399    2.2044 H   0  0  0  0  0  0  0  0  0  0  0  0
    0.4879    0.6043    2.3653 H   0  0  0  0  0  0  0  0  0  0  0  0
   -0.8476    1.5481    1.8155 H   0  0  0  0  0  0  0  0  0  0  0  0
    2.6939    1.6326    1.0046 H   0  0  0  0  0  0  0  0  0  0  0  0
    2.5509    1.0881   -1.7873 H   0  0  0  0  0  0  0  0  0  0  0  0
    2.3084   -0.9041   -0.7246 H   0  0  0  0  0  0  0  0  0  0  0  0
    2.2076   -0.8880    2.3482 H   0  0  0  0  0  0  0  0  0  0  0  0
    1.8620   -2.2823    1.2813 H   0  0  0  0  0  0  0  0  0  0  0  0
    0.7996   -1.0755    1.1801 H   0  0  0  0  0  0  0  0  0  0  0  0
    4.6875    0.5114    0.1194 H   0  0  0  0  0  0  0  0  0  0  0  0
    3.4509   -3.0655    0.5401 H   0  0  0  0  0  0  0  0  0  0  0  0
    4.9977   -3.3403    1.3011 H   0  0  0  0  0  0  0  0  0  0  0  0
    4.6506   -3.6044   -0.4695 H   0  0  0  0  0  0  0  0  0  0  0  0
    6.5690   -3.4286   -1.0036 H   0  0  0  0  0  0  0  0  0  0  0  0
    7.8156   -3.1661    0.2263 H   0  0  0  0  0  0  0  0  0  0  0  0
    7.8118   -2.3345   -1.4163 H   0  0  0  0  0  0  0  0  0  0  0  0
    6.8361    0.5271    0.9025 H   0  0  0  0  0  0  0  0  0  0  0  0
    9.0891   -1.4478    0.0478 H   0  0  0  0  0  0  0  0  0  0  0  0
    9.5250    1.2006    1.3096 H   0  0  0  0  0  0  0  0  0  0  0  0
   10.6713   -2.5418    0.4527 H   0  0  0  0  0  0  0  0  0  0  0  0
   11.9952   -2.2623    1.5313 H   0  0  0  0  0  0  0  0  0  0  0  0
   12.1709   -1.9106   -0.2330 H   0  0  0  0  0  0  0  0  0  0  0  0
   13.2057   -0.0169    1.2593 H   0  0  0  0  0  0  0  0  0  0  0  0
   -2.7576    1.6081    0.9281 H   0  0  0  0  0  0  0  0  0  0  0  0
   -5.3066   -1.4733   -1.1901 H   0  0  0  0  0  0  0  0  0  0  0  0
   -5.9388    0.0490   -1.4039 H   0  0  0  0  0  0  0  0  0  0  0  0
   -7.2542   -2.1883   -0.1861 H   0  0  0  0  0  0  0  0  0  0  0  0
   -7.9926    0.4485   -0.9484 H   0  0  0  0  0  0  0  0  0  0  0  0
   -6.6269   -1.5730    1.9778 H   0  0  0  0  0  0  0  0  0  0  0  0
   -9.3719   -0.2372    1.5011 H   0  0  0  0  0  0  0  0  0  0  0  0
   -8.7263   -0.8534    3.0669 H   0  0  0  0  0  0  0  0  0  0  0  0
   -9.0730   -2.0074    1.7221 H   0  0  0  0  0  0  0  0  0  0  0  0
   -6.7753    0.5810    2.9435 H   0  0  0  0  0  0  0  0  0  0  0  0
   -8.2824    2.0782    2.0089 H   0  0  0  0  0  0  0  0  0  0  0  0
   -6.4046    2.2652   -0.4091 H   0  0  0  0  0  0  0  0  0  0  0  0
   -3.7902   -1.0740    2.9831 H   0  0  0  0  0  0  0  0  0  0  0  0
   -2.8999    0.3962    2.5932 H   0  0  0  0  0  0  0  0  0  0  0  0
   -2.0695   -1.1745    2.4810 H   0  0  0  0  0  0  0  0  0  0  0  0
   -4.4473   -2.7920    1.3655 H   0  0  0  0  0  0  0  0  0  0  0  0
   -2.6969   -2.9201    0.9761 H   0  0  0  0  0  0  0  0  0  0  0  0
   -3.8697   -2.7797   -0.3366 H   0  0  0  0  0  0  0  0  0  0  0  0
   -1.4622   -0.6175    0.0376 H   0  0  0  0  0  0  0  0  0  0  0  0
    0.3032   -1.1127   -1.8801 H   0  0  0  0  0  0  0  0  0  0  0  0
   -3.4411   -2.2614   -3.6912 H   0  0  0  0  0  0  0  0  0  0  0  0
  1  2  1  0  0  0  0
  1 49  1  0  0  0  0
  1 50  1  0  0  0  0
  1 51  1  0  0  0  0
  2  3  1  0  0  0  0
  3  4  1  0  0  0  0
  3 26  1  0  0  0  0
  3 52  1  6  0  0  0
  4  5  1  0  0  0  0
  4 53  1  0  0  0  0
  4 54  1  0  0  0  0
  5  6  1  0  0  0  0
  5  7  1  0  0  0  0
  5 55  1  1  0  0  0
  6 56  1  0  0  0  0
  7  8  1  0  0  0  0
  7  9  1  0  0  0  0
  7 57  1  6  0  0  0
  8 58  1  0  0  0  0
  8 59  1  0  0  0  0
  8 60  1  0  0  0  0
  9 10  1  0  0  0  0
  9 11  1  0  0  0  0
  9 61  1  1  0  0  0
 10 62  1  0  0  0  0
 11 12  1  0  0  0  0
 11 13  1  0  0  0  0
 11 63  1  6  0  0  0
 12 64  1  0  0  0  0
 12 65  1  0  0  0  0
 12 66  1  0  0  0  0
 13 14  2  3  0  0  0
 13 67  1  0  0  0  0
 14 15  1  0  0  0  0
 14 16  1  0  0  0  0
 15 68  1  0  0  0  0
 15 69  1  0  0  0  0
 15 70  1  0  0  0  0
 16 17  1  0  0  0  0
 16 18  2  0  0  0  0
 17 71  1  0  0  0  0
 17 72  1  0  0  0  0
 17 73  1  0  0  0  0
 18 19  1  0  0  0  0
 18 74  1  0  0  0  0
 19 20  2  0  0  0  0
 19 75  1  0  0  0  0
 20 21  1  0  0  0  0
 20 76  1  0  0  0  0
 21 22  1  0  0  0  0
 21 23  2  0  0  0  0
 22 77  1  0  0  0  0
 22 78  1  0  0  0  0
 22 79  1  0  0  0  0
 23 24  1  0  0  0  0
 23 80  1  0  0  0  0
 24 25  3  0  0  0  0
 26 27  1  0  0  0  0
 26 81  1  1  0  0  0
 28 27  1  6  0  0  0
 28 29  1  0  0  0  0
 28 40  1  0  0  0  0
 29 30  1  0  0  0  0
 29 82  1  0  0  0  0
 29 83  1  0  0  0  0
 30 31  1  0  0  0  0
 30 32  1  0  0  0  0
 30 84  1  6  0  0  0
 31 85  1  0  0  0  0
 32 33  1  0  0  0  0
 32 34  1  0  0  0  0
 32 86  1  1  0  0  0
 33 87  1  0  0  0  0
 33 88  1  0  0  0  0
 33 89  1  0  0  0  0
 34 35  1  0  0  0  0
 34 39  1  0  0  0  0
 34 90  1  1  0  0  0
 35 36  2  0  0  0  0
 35 91  1  0  0  0  0
 36 37  1  0  0  0  0
 36 92  1  0  0  0  0
 37 38  3  0  0  0  0
 39 28  1  0  0  0  0
 40 41  1  0  0  0  0
 40 42  1  0  0  0  0
 40 43  1  0  0  0  0
 41 93  1  0  0  0  0
 41 94  1  0  0  0  0
 41 95  1  0  0  0  0
 42 96  1  0  0  0  0
 42 97  1  0  0  0  0
 42 98  1  0  0  0  0
 43 44  1  0  0  0  0
 43 26  1  0  0  0  0
 43 99  1  1  0  0  0
 44 45  1  0  0  0  0
 45 46  2  0  0  0  0
 45 47  1  0  0  0  0
 45 48  1  0  0  0  0
 47100  1  0  0  0  0
 48101  1  0  0  0  0
M  END
>  <IDENTIFIER>
CNP0432131.1

>  <Energy>
1817.99

$$$$
