
 OpenBabel09102519323D

 87 92  0  0  0  0  0  0  0  0999 V2000
    8.9654    0.2252   -0.9020 C   0  0  0  0  0  0  0  0  0  0  0  0
    7.7423   -0.5114   -0.4527 C   0  0  0  0  0  0  0  0  0  0  0  0
    7.8424   -1.5906    0.1122 O   0  0  0  0  0  0  0  0  0  0  0  0
    6.5391    0.0532   -0.6864 O   0  0  0  0  0  0  0  0  0  0  0  0
    5.2854   -0.4373   -0.3587 C   0  0  2  0  0  0  0  0  0  0  0  0
    4.5145   -0.6921   -1.6757 C   0  0  0  0  0  0  0  0  0  0  0  0
    3.0059   -1.0019   -1.4598 C   0  0  0  0  0  0  0  0  0  0  0  0
    2.3218    0.1514   -0.6718 C   0  0  2  0  0  0  0  0  0  0  0  0
    2.4427    1.4694   -1.5376 C   0  0  0  0  0  0  0  0  0  0  0  0
    3.0652    0.1966    0.7260 C   0  0  2  0  0  0  0  0  0  0  0  0
    2.2069    0.9363    1.7719 C   0  0  0  0  0  0  0  0  0  0  0  0
    1.0252    0.0109    2.1506 C   0  0  0  0  0  0  0  0  0  0  0  0
    0.1848   -0.5572    0.9329 C   0  0  2  0  0  0  0  0  0  0  0  0
    0.3411   -2.1121    0.9528 C   0  0  0  0  0  0  0  0  0  0  0  0
    0.7487    0.0129   -0.4321 C   0  0  2  0  0  0  0  0  0  0  0  0
   -0.0460   -0.5161   -1.6501 C   0  0  0  0  0  0  0  0  0  0  0  0
   -1.5126   -0.0972   -1.5402 C   0  0  0  0  0  0  0  0  0  0  0  0
   -2.1781   -0.5704   -0.2264 C   0  0  2  0  0  0  0  0  0  0  0  0
   -3.6552   -0.0468   -0.1478 C   0  0  1  0  0  0  0  0  0  0  0  0
   -4.6186   -0.6515   -1.1851 C   0  0  1  0  0  0  0  0  0  0  0  0
   -4.9445   -1.9534   -0.7029 O   0  0  0  0  0  0  0  0  0  0  0  0
   -4.6847   -1.9512    0.7005 C   0  0  0  0  0  0  0  0  0  0  0  0
   -4.3873   -0.4965    1.1055 C   0  0  2  0  0  0  0  0  0  0  0  0
   -5.7073    0.3477    1.2389 C   0  0  0  0  0  0  0  0  0  0  0  0
   -6.6714    0.1402    0.0551 C   0  0  0  0  0  0  0  0  0  0  0  0
   -5.9349    0.2010   -1.3053 C   0  0  0  0  0  0  0  0  0  0  0  0
   -5.6484    1.6712   -1.7198 C   0  0  0  0  0  0  0  0  0  0  0  0
   -6.8406   -0.4033   -2.3986 C   0  0  0  0  0  0  0  0  0  0  0  0
   -3.5650   -0.3410    2.4166 C   0  0  0  0  0  0  0  0  0  0  0  0
   -2.0880   -0.7790    2.2757 C   0  0  0  0  0  0  0  0  0  0  0  0
   -1.3705   -0.1005    1.0536 C   0  0  1  0  0  0  0  0  0  0  0  0
   -1.4655    1.4786    1.2347 C   0  0  0  0  0  0  0  0  0  0  0  0
    4.6004    0.5435    0.6738 C   0  0  0  0  0  0  0  0  0  0  0  0
    5.2544    0.2442    2.0577 C   0  0  0  0  0  0  0  0  0  0  0  0
    4.8971    2.0509    0.4205 C   0  0  0  0  0  0  0  0  0  0  0  0
    9.8881   -0.3345   -0.6509 H   0  0  0  0  0  0  0  0  0  0  0  0
    8.9950    1.2198   -0.4077 H   0  0  0  0  0  0  0  0  0  0  0  0
    8.9175    0.3769   -2.0022 H   0  0  0  0  0  0  0  0  0  0  0  0
    5.3364   -1.4426    0.1216 H   0  0  0  0  0  0  0  0  0  0  0  0
    4.9909   -1.5413   -2.2125 H   0  0  0  0  0  0  0  0  0  0  0  0
    4.6501    0.1648   -2.3556 H   0  0  0  0  0  0  0  0  0  0  0  0
    2.9048   -1.9599   -0.9074 H   0  0  0  0  0  0  0  0  0  0  0  0
    2.5311   -1.1411   -2.4535 H   0  0  0  0  0  0  0  0  0  0  0  0
    3.4173    1.7205   -1.9487 H   0  0  0  0  0  0  0  0  0  0  0  0
    2.0981    2.3616   -0.9723 H   0  0  0  0  0  0  0  0  0  0  0  0
    1.8328    1.4034   -2.4573 H   0  0  0  0  0  0  0  0  0  0  0  0
    3.0876   -0.8542    1.0981 H   0  0  0  0  0  0  0  0  0  0  0  0
    1.8768    1.9255    1.3925 H   0  0  0  0  0  0  0  0  0  0  0  0
    2.7498    1.1120    2.7195 H   0  0  0  0  0  0  0  0  0  0  0  0
    0.4173    0.4761    2.9449 H   0  0  0  0  0  0  0  0  0  0  0  0
    1.4785   -0.8414    2.7078 H   0  0  0  0  0  0  0  0  0  0  0  0
    1.4007   -2.4062    0.8223 H   0  0  0  0  0  0  0  0  0  0  0  0
   -0.2392   -2.6314    0.1699 H   0  0  0  0  0  0  0  0  0  0  0  0
    0.0217   -2.5356    1.9272 H   0  0  0  0  0  0  0  0  0  0  0  0
    0.4755    1.0632   -0.3404 H   0  0  0  0  0  0  0  0  0  0  0  0
    0.0594   -1.6146   -1.7436 H   0  0  0  0  0  0  0  0  0  0  0  0
    0.3227   -0.0930   -2.6034 H   0  0  0  0  0  0  0  0  0  0  0  0
   -2.0355   -0.5117   -2.4257 H   0  0  0  0  0  0  0  0  0  0  0  0
   -1.5694    1.0087   -1.6090 H   0  0  0  0  0  0  0  0  0  0  0  0
   -2.1740   -1.6774   -0.2608 H   0  0  0  0  0  0  0  0  0  0  0  0
   -3.5712    1.0431   -0.2411 H   0  0  0  0  0  0  0  0  0  0  0  0
   -4.1535   -0.6986   -2.1872 H   0  0  0  0  0  0  0  0  0  0  0  0
   -3.8132   -2.6135    0.8709 H   0  0  0  0  0  0  0  0  0  0  0  0
   -5.5322   -2.3661    1.2873 H   0  0  0  0  0  0  0  0  0  0  0  0
   -5.4293    1.4229    1.3065 H   0  0  0  0  0  0  0  0  0  0  0  0
   -6.2517    0.0863    2.1726 H   0  0  0  0  0  0  0  0  0  0  0  0
   -7.5344    0.8399    0.0989 H   0  0  0  0  0  0  0  0  0  0  0  0
   -7.0915   -0.8817    0.1757 H   0  0  0  0  0  0  0  0  0  0  0  0
   -6.6005    2.2215   -1.8748 H   0  0  0  0  0  0  0  0  0  0  0  0
   -5.0734    1.6994   -2.6713 H   0  0  0  0  0  0  0  0  0  0  0  0
   -5.0961    2.2556   -0.9609 H   0  0  0  0  0  0  0  0  0  0  0  0
   -7.7869    0.1743   -2.4854 H   0  0  0  0  0  0  0  0  0  0  0  0
   -7.0996   -1.4580   -2.1663 H   0  0  0  0  0  0  0  0  0  0  0  0
   -6.3277   -0.3824   -3.3847 H   0  0  0  0  0  0  0  0  0  0  0  0
   -4.0583   -0.8957    3.2439 H   0  0  0  0  0  0  0  0  0  0  0  0
   -3.5754    0.7183    2.7367 H   0  0  0  0  0  0  0  0  0  0  0  0
   -2.0784   -1.8804    2.1540 H   0  0  0  0  0  0  0  0  0  0  0  0
   -1.5691   -0.5526    3.2294 H   0  0  0  0  0  0  0  0  0  0  0  0
   -2.4867    1.8635    1.3688 H   0  0  0  0  0  0  0  0  0  0  0  0
   -1.1125    2.0727    0.3770 H   0  0  0  0  0  0  0  0  0  0  0  0
   -0.9353    1.8453    2.1297 H   0  0  0  0  0  0  0  0  0  0  0  0
    4.8766    0.9043    2.8625 H   0  0  0  0  0  0  0  0  0  0  0  0
    6.3534    0.3997    2.0161 H   0  0  0  0  0  0  0  0  0  0  0  0
    5.0766   -0.8089    2.3676 H   0  0  0  0  0  0  0  0  0  0  0  0
    4.3851    2.6728    1.1867 H   0  0  0  0  0  0  0  0  0  0  0  0
    4.6362    2.4572   -0.5537 H   0  0  0  0  0  0  0  0  0  0  0  0
    5.9855    2.2488    0.5143 H   0  0  0  0  0  0  0  0  0  0  0  0
  1  2  1  0  0  0  0
  1 36  1  0  0  0  0
  1 37  1  0  0  0  0
  1 38  1  0  0  0  0
  2  3  2  0  0  0  0
  2  4  1  0  0  0  0
  5  4  1  0  0  0  0
  5  6  1  0  0  0  0
  5 39  1  1  0  0  0
  6  7  1  0  0  0  0
  6 40  1  0  0  0  0
  6 41  1  0  0  0  0
  7  8  1  0  0  0  0
  7 42  1  0  0  0  0
  7 43  1  0  0  0  0
  8  9  1  6  0  0  0
  8 10  1  0  0  0  0
  9 44  1  0  0  0  0
  9 45  1  0  0  0  0
  9 46  1  0  0  0  0
 10 11  1  0  0  0  0
 10 33  1  0  0  0  0
 10 47  1  1  0  0  0
 11 12  1  0  0  0  0
 11 48  1  0  0  0  0
 11 49  1  0  0  0  0
 12 13  1  0  0  0  0
 12 50  1  0  0  0  0
 12 51  1  0  0  0  0
 13 14  1  6  0  0  0
 13 15  1  0  0  0  0
 14 52  1  0  0  0  0
 14 53  1  0  0  0  0
 14 54  1  0  0  0  0
 15 16  1  0  0  0  0
 15  8  1  0  0  0  0
 15 55  1  1  0  0  0
 16 17  1  0  0  0  0
 16 56  1  0  0  0  0
 16 57  1  0  0  0  0
 17 58  1  0  0  0  0
 17 59  1  0  0  0  0
 18 17  1  0  0  0  0
 18 19  1  0  0  0  0
 18 60  1  6  0  0  0
 19 20  1  0  0  0  0
 19 61  1  6  0  0  0
 20 21  1  0  0  0  0
 20 62  1  6  0  0  0
 21 22  1  0  0  0  0
 22 63  1  0  0  0  0
 22 64  1  0  0  0  0
 23 22  1  6  0  0  0
 23 24  1  0  0  0  0
 23 29  1  0  0  0  0
 23 19  1  0  0  0  0
 24 25  1  0  0  0  0
 24 65  1  0  0  0  0
 24 66  1  0  0  0  0
 25 26  1  0  0  0  0
 25 67  1  0  0  0  0
 25 68  1  0  0  0  0
 26 27  1  0  0  0  0
 26 28  1  0  0  0  0
 26 20  1  0  0  0  0
 27 69  1  0  0  0  0
 27 70  1  0  0  0  0
 27 71  1  0  0  0  0
 28 72  1  0  0  0  0
 28 73  1  0  0  0  0
 28 74  1  0  0  0  0
 29 30  1  0  0  0  0
 29 75  1  0  0  0  0
 29 76  1  0  0  0  0
 30 31  1  0  0  0  0
 30 77  1  0  0  0  0
 30 78  1  0  0  0  0
 31 32  1  1  0  0  0
 31 18  1  0  0  0  0
 31 13  1  0  0  0  0
 32 79  1  0  0  0  0
 32 80  1  0  0  0  0
 32 81  1  0  0  0  0
 33 34  1  0  0  0  0
 33 35  1  0  0  0  0
 33  5  1  0  0  0  0
 34 82  1  0  0  0  0
 34 83  1  0  0  0  0
 34 84  1  0  0  0  0
 35 85  1  0  0  0  0
 35 86  1  0  0  0  0
 35 87  1  0  0  0  0
M  END
>  <IDENTIFIER>
CNP0277561.12

>  <Energy>
1012.38

$$$$
