
 OpenBabel09052519193D

 27 28  0  0  0  0  0  0  0  0999 V2000
    3.5594   -1.6729    0.1689 C   0  0  0  0  0  0  0  0  0  0  0  0
    2.2493   -2.0083    0.4166 O   0  0  0  0  0  0  0  0  0  0  0  0
    1.2005   -1.1720    0.4007 N   0  0  0  0  0  0  0  0  0  0  0  0
   -0.0586   -1.6005    0.6388 C   0  0  0  0  0  0  0  0  0  0  0  0
   -0.9521   -0.5437    0.5505 C   0  0  0  0  0  0  0  0  0  0  0  0
   -2.4399   -0.6355    0.7421 C   0  0  0  0  0  0  0  0  0  0  0  0
   -3.1911   -0.3222   -0.5551 C   0  0  0  0  0  0  0  0  0  0  0  0
   -4.5739   -0.4224   -0.3492 O   0  0  0  0  0  0  0  0  0  0  0  0
   -0.1919    0.5748    0.2587 C   0  0  0  0  0  0  0  0  0  0  0  0
   -0.5709    1.9065    0.0778 C   0  0  0  0  0  0  0  0  0  0  0  0
    0.4305    2.8443   -0.2135 C   0  0  0  0  0  0  0  0  0  0  0  0
    1.7752    2.4412   -0.3155 C   0  0  0  0  0  0  0  0  0  0  0  0
    2.1375    1.0961   -0.1245 C   0  0  0  0  0  0  0  0  0  0  0  0
    1.1242    0.1672    0.1679 C   0  0  0  0  0  0  0  0  0  0  0  0
    4.1823   -2.5872    0.2480 H   0  0  0  0  0  0  0  0  0  0  0  0
    3.9201   -0.9486    0.9282 H   0  0  0  0  0  0  0  0  0  0  0  0
    3.6638   -1.2772   -0.8630 H   0  0  0  0  0  0  0  0  0  0  0  0
   -0.3176   -2.6289    0.8569 H   0  0  0  0  0  0  0  0  0  0  0  0
   -2.7513    0.0603    1.5505 H   0  0  0  0  0  0  0  0  0  0  0  0
   -2.7040   -1.6707    1.0499 H   0  0  0  0  0  0  0  0  0  0  0  0
   -2.8715   -1.0155   -1.3676 H   0  0  0  0  0  0  0  0  0  0  0  0
   -2.9680    0.7053   -0.9039 H   0  0  0  0  0  0  0  0  0  0  0  0
   -4.7987   -1.3887   -0.3920 H   0  0  0  0  0  0  0  0  0  0  0  0
   -1.6022    2.2193    0.1621 H   0  0  0  0  0  0  0  0  0  0  0  0
    0.1677    3.8840   -0.3593 H   0  0  0  0  0  0  0  0  0  0  0  0
    2.5383    3.1752   -0.5406 H   0  0  0  0  0  0  0  0  0  0  0  0
    3.1767    0.8366   -0.2090 H   0  0  0  0  0  0  0  0  0  0  0  0
  1  2  1  0  0  0  0
  1 15  1  0  0  0  0
  1 16  1  0  0  0  0
  1 17  1  0  0  0  0
  2  3  1  0  0  0  0
  3  4  1  0  0  0  0
  4  5  2  0  0  0  0
  4 18  1  0  0  0  0
  5  6  1  0  0  0  0
  5  9  1  0  0  0  0
  6  7  1  0  0  0  0
  6 19  1  0  0  0  0
  6 20  1  0  0  0  0
  7  8  1  0  0  0  0
  7 21  1  0  0  0  0
  7 22  1  0  0  0  0
  8 23  1  0  0  0  0
  9 10  2  0  0  0  0
 10 11  1  0  0  0  0
 10 24  1  0  0  0  0
 11 12  2  0  0  0  0
 11 25  1  0  0  0  0
 12 13  1  0  0  0  0
 12 26  1  0  0  0  0
 13 14  2  0  0  0  0
 13 27  1  0  0  0  0
 14  3  1  0  0  0  0
 14  9  1  0  0  0  0
M  END
>  <IDENTIFIER>
CNP0200665.0

>  <Energy>
279.244

$$$$
