
 OpenBabel09122511163D

 89 88  0  0  0  0  0  0  0  0999 V2000
    8.0994   -5.0023   -0.7030 C   0  0  0  0  0  0  0  0  0  0  0  0
    8.0297   -3.4859   -0.4937 C   0  0  0  0  0  0  0  0  0  0  0  0
    6.7624   -3.0029    0.2709 C   0  0  2  0  0  0  0  0  0  0  0  0
    5.4866   -3.3947   -0.5010 C   0  0  0  0  0  0  0  0  0  0  0  0
    6.8694   -1.4581    0.5485 C   0  0  2  0  0  0  0  0  0  0  0  0
    8.1272   -1.1918    1.2615 N   0  0  0  0  0  0  0  0  0  0  0  0
    5.6958   -0.8813    1.3457 C   0  0  0  0  0  0  0  0  0  0  0  0
    5.8824   -0.5163    2.4996 O   0  0  0  0  0  0  0  0  0  0  0  0
    4.4532   -0.7639    0.7926 N   0  0  0  0  0  0  0  0  0  0  0  0
    3.2999   -0.2982    1.5622 C   0  0  1  0  0  0  0  0  0  0  0  0
    3.3925    1.2205    1.8918 C   0  0  0  0  0  0  0  0  0  0  0  0
    3.1238    2.1937    0.7198 C   0  0  0  0  0  0  0  0  0  0  0  0
    4.1465    2.1284   -0.4269 C   0  0  0  0  0  0  0  0  0  0  0  0
    3.8154    3.0867   -1.4684 N   0  0  0  0  0  0  0  0  0  0  0  0
    3.8890    4.5097   -1.3272 C   0  0  0  0  0  0  0  0  0  0  0  0
    4.4015    5.0673   -0.2867 N   0  0  0  0  0  0  0  0  0  0  0  0
    3.4088    5.3344   -2.3773 N   0  0  0  0  0  0  0  0  0  0  0  0
    1.9766   -0.6313    0.8857 C   0  0  0  0  0  0  0  0  0  0  0  0
    1.9642   -1.0972   -0.2456 O   0  0  0  0  0  0  0  0  0  0  0  0
    0.8062   -0.4172    1.5523 N   0  0  0  0  0  0  0  0  0  0  0  0
   -0.5062   -0.6786    0.9737 C   0  0  1  0  0  0  0  0  0  0  0  0
   -1.2372   -1.7204    1.8240 C   0  0  0  0  0  0  0  0  0  0  0  0
   -1.3007    0.6083    0.8897 C   0  0  0  0  0  0  0  0  0  0  0  0
   -0.8272    1.6369    1.3559 O   0  0  0  0  0  0  0  0  0  0  0  0
   -2.5090    0.6291    0.2550 N   0  0  0  0  0  0  0  0  0  0  0  0
   -3.2906    1.8524    0.0914 C   0  0  1  0  0  0  0  0  0  0  0  0
   -3.3047    2.3269   -1.3829 C   0  0  0  0  0  0  0  0  0  0  0  0
   -4.0315    1.4105   -2.3915 C   0  0  0  0  0  0  0  0  0  0  0  0
   -3.3306    0.0971   -2.6305 C   0  0  0  0  0  0  0  0  0  0  0  0
   -3.9620   -1.0784   -2.3999 N   0  0  0  0  0  0  0  0  0  0  0  0
   -2.1810    0.0945   -3.0456 O   0  0  0  0  0  0  0  0  0  0  0  0
   -4.7061    1.7553    0.6378 C   0  0  0  0  0  0  0  0  0  0  0  0
   -5.3011    2.8065    0.8343 O   0  0  0  0  0  0  0  0  0  0  0  0
   -5.3476    0.5631    0.8307 N   0  0  0  0  0  0  0  0  0  0  0  0
   -6.7373    0.4844    1.2714 C   0  0  1  0  0  0  0  0  0  0  0  0
   -7.5887    0.0203    0.0682 C   0  0  0  0  0  0  0  0  0  0  0  0
   -9.1082    0.1501    0.2912 C   0  0  0  0  0  0  0  0  0  0  0  0
   -9.9119   -0.1281   -0.9585 C   0  0  0  0  0  0  0  0  0  0  0  0
  -11.2586   -0.0030   -0.9308 N   0  0  0  0  0  0  0  0  0  0  0  0
   -9.3592   -0.4540   -1.9997 O   0  0  0  0  0  0  0  0  0  0  0  0
   -6.8826   -0.4099    2.4971 C   0  0  0  0  0  0  0  0  0  0  0  0
   -7.9779   -0.5336    3.0207 O   0  0  0  0  0  0  0  0  0  0  0  0
   -5.8315   -1.0518    3.0587 O   0  0  0  0  0  0  0  0  0  0  0  0
    9.0676   -5.2624   -1.1803 H   0  0  0  0  0  0  0  0  0  0  0  0
    7.2976   -5.3636   -1.3767 H   0  0  0  0  0  0  0  0  0  0  0  0
    8.0329   -5.5298    0.2723 H   0  0  0  0  0  0  0  0  0  0  0  0
    8.0984   -2.9781   -1.4802 H   0  0  0  0  0  0  0  0  0  0  0  0
    8.9330   -3.2193    0.0949 H   0  0  0  0  0  0  0  0  0  0  0  0
    6.7350   -3.5295    1.2511 H   0  0  0  0  0  0  0  0  0  0  0  0
    5.4435   -2.8697   -1.4796 H   0  0  0  0  0  0  0  0  0  0  0  0
    4.5799   -3.1822    0.0949 H   0  0  0  0  0  0  0  0  0  0  0  0
    5.4343   -4.4854   -0.6776 H   0  0  0  0  0  0  0  0  0  0  0  0
    6.9194   -0.9119   -0.4195 H   0  0  0  0  0  0  0  0  0  0  0  0
    8.1326   -1.6738    2.1914 H   0  0  0  0  0  0  0  0  0  0  0  0
    8.2513   -0.1629    1.4048 H   0  0  0  0  0  0  0  0  0  0  0  0
    4.3255   -1.0627   -0.1827 H   0  0  0  0  0  0  0  0  0  0  0  0
    3.2994   -0.8744    2.5144 H   0  0  0  0  0  0  0  0  0  0  0  0
    4.3695    1.4621    2.3591 H   0  0  0  0  0  0  0  0  0  0  0  0
    2.6179    1.4441    2.6559 H   0  0  0  0  0  0  0  0  0  0  0  0
    3.1136    3.2158    1.1476 H   0  0  0  0  0  0  0  0  0  0  0  0
    2.1085    2.0077    0.3074 H   0  0  0  0  0  0  0  0  0  0  0  0
    4.0990    1.1179   -0.8743 H   0  0  0  0  0  0  0  0  0  0  0  0
    5.1828    2.2997   -0.0652 H   0  0  0  0  0  0  0  0  0  0  0  0
    3.5086    2.7110   -2.3787 H   0  0  0  0  0  0  0  0  0  0  0  0
    4.7950    4.5390    0.5038 H   0  0  0  0  0  0  0  0  0  0  0  0
    2.9971    4.9173   -3.2244 H   0  0  0  0  0  0  0  0  0  0  0  0
    3.4583    6.3608   -2.2999 H   0  0  0  0  0  0  0  0  0  0  0  0
    0.8419   -0.0434    2.5134 H   0  0  0  0  0  0  0  0  0  0  0  0
   -0.4061   -1.0769   -0.0593 H   0  0  0  0  0  0  0  0  0  0  0  0
   -1.3747   -1.3467    2.8617 H   0  0  0  0  0  0  0  0  0  0  0  0
   -0.6422   -2.6579    1.8594 H   0  0  0  0  0  0  0  0  0  0  0  0
   -2.2325   -1.9567    1.3932 H   0  0  0  0  0  0  0  0  0  0  0  0
   -2.8438   -0.2483   -0.1601 H   0  0  0  0  0  0  0  0  0  0  0  0
   -2.8023    2.6691    0.6670 H   0  0  0  0  0  0  0  0  0  0  0  0
   -2.2603    2.4963   -1.7251 H   0  0  0  0  0  0  0  0  0  0  0  0
   -3.8195    3.3127   -1.4092 H   0  0  0  0  0  0  0  0  0  0  0  0
   -4.0702    1.9388   -3.3682 H   0  0  0  0  0  0  0  0  0  0  0  0
   -5.0789    1.2481   -2.0590 H   0  0  0  0  0  0  0  0  0  0  0  0
   -4.9315   -1.0998   -2.0514 H   0  0  0  0  0  0  0  0  0  0  0  0
   -3.4769   -1.9725   -2.5668 H   0  0  0  0  0  0  0  0  0  0  0  0
   -4.8779   -0.3175    0.5817 H   0  0  0  0  0  0  0  0  0  0  0  0
   -7.1032    1.4942    1.5584 H   0  0  0  0  0  0  0  0  0  0  0  0
   -7.3195   -1.0194   -0.2214 H   0  0  0  0  0  0  0  0  0  0  0  0
   -7.3328    0.6944   -0.7802 H   0  0  0  0  0  0  0  0  0  0  0  0
   -9.3327    1.1918    0.6083 H   0  0  0  0  0  0  0  0  0  0  0  0
   -9.4470   -0.5483    1.0818 H   0  0  0  0  0  0  0  0  0  0  0  0
  -11.7422    0.2783   -0.0652 H   0  0  0  0  0  0  0  0  0  0  0  0
  -11.8188   -0.1794   -1.7780 H   0  0  0  0  0  0  0  0  0  0  0  0
   -4.9251   -0.9942    2.7311 H   0  0  0  0  0  0  0  0  0  0  0  0
  1  2  1  0  0  0  0
  1 44  1  0  0  0  0
  1 45  1  0  0  0  0
  1 46  1  0  0  0  0
  2  3  1  0  0  0  0
  2 47  1  0  0  0  0
  2 48  1  0  0  0  0
  3  4  1  0  0  0  0
  3  5  1  0  0  0  0
  3 49  1  1  0  0  0
  4 50  1  0  0  0  0
  4 51  1  0  0  0  0
  4 52  1  0  0  0  0
  5  6  1  0  0  0  0
  5  7  1  0  0  0  0
  5 53  1  6  0  0  0
  6 54  1  0  0  0  0
  6 55  1  0  0  0  0
  7  8  2  0  0  0  0
  7  9  1  0  0  0  0
  9 10  1  0  0  0  0
  9 56  1  0  0  0  0
 10 11  1  0  0  0  0
 10 18  1  0  0  0  0
 10 57  1  1  0  0  0
 11 12  1  0  0  0  0
 11 58  1  0  0  0  0
 11 59  1  0  0  0  0
 12 13  1  0  0  0  0
 12 60  1  0  0  0  0
 12 61  1  0  0  0  0
 13 14  1  0  0  0  0
 13 62  1  0  0  0  0
 13 63  1  0  0  0  0
 14 15  1  0  0  0  0
 14 64  1  0  0  0  0
 15 16  2  0  0  0  0
 15 17  1  0  0  0  0
 16 65  1  0  0  0  0
 17 66  1  0  0  0  0
 17 67  1  0  0  0  0
 18 19  2  0  0  0  0
 18 20  1  0  0  0  0
 20 21  1  0  0  0  0
 20 68  1  0  0  0  0
 21 22  1  0  0  0  0
 21 23  1  0  0  0  0
 21 69  1  6  0  0  0
 22 70  1  0  0  0  0
 22 71  1  0  0  0  0
 22 72  1  0  0  0  0
 23 24  2  0  0  0  0
 23 25  1  0  0  0  0
 25 26  1  0  0  0  0
 25 73  1  0  0  0  0
 26 27  1  0  0  0  0
 26 32  1  0  0  0  0
 26 74  1  1  0  0  0
 27 28  1  0  0  0  0
 27 75  1  0  0  0  0
 27 76  1  0  0  0  0
 28 29  1  0  0  0  0
 28 77  1  0  0  0  0
 28 78  1  0  0  0  0
 29 30  1  0  0  0  0
 29 31  2  0  0  0  0
 30 79  1  0  0  0  0
 30 80  1  0  0  0  0
 32 33  2  0  0  0  0
 32 34  1  0  0  0  0
 34 35  1  0  0  0  0
 34 81  1  0  0  0  0
 35 36  1  0  0  0  0
 35 41  1  0  0  0  0
 35 82  1  1  0  0  0
 36 37  1  0  0  0  0
 36 83  1  0  0  0  0
 36 84  1  0  0  0  0
 37 38  1  0  0  0  0
 37 85  1  0  0  0  0
 37 86  1  0  0  0  0
 38 39  1  0  0  0  0
 38 40  2  0  0  0  0
 39 87  1  0  0  0  0
 39 88  1  0  0  0  0
 41 42  2  0  0  0  0
 41 43  1  0  0  0  0
 43 89  1  0  0  0  0
M  END
>  <IDENTIFIER>
CNP0160831.1

>  <Energy>
373.664

$$$$
