
 OpenBabel09092501193D

 66 70  0  0  0  0  0  0  0  0999 V2000
   -4.6530    2.3973    2.2727 C   0  0  0  0  0  0  0  0  0  0  0  0
   -4.5915    1.8472    1.2004 C   0  0  0  0  0  0  0  0  0  0  0  0
   -4.5432    1.1562   -0.1178 C   0  0  2  0  0  0  0  0  0  0  0  0
   -5.0680    2.0059   -1.0811 O   0  0  0  0  0  0  0  0  0  0  0  0
   -6.3188    2.5358   -1.1109 C   0  0  0  0  0  0  0  0  0  0  0  0
   -6.6339    3.6002   -2.1121 C   0  0  0  0  0  0  0  0  0  0  0  0
   -7.1783    2.1759   -0.3167 O   0  0  0  0  0  0  0  0  0  0  0  0
   -5.2729   -0.2294   -0.0100 C   0  0  0  0  0  0  0  0  0  0  0  0
   -4.1672   -1.2900    0.3083 C   0  0  0  0  0  0  0  0  0  0  0  0
   -2.9395   -0.4303    0.5733 C   0  0  1  0  0  0  0  0  0  0  0  0
   -1.5055   -0.9389    0.5540 C   0  0  2  0  0  0  0  0  0  0  0  0
   -1.1536   -2.2255    1.3063 C   0  0  0  0  0  0  0  0  0  0  0  0
    0.3535   -2.4644    1.2536 C   0  0  0  0  0  0  0  0  0  0  0  0
    1.2470   -1.5266    0.8233 C   0  0  0  0  0  0  0  0  0  0  0  0
    2.7005   -1.8470    0.8104 C   0  0  0  0  0  0  0  0  0  0  0  0
    3.6117   -0.9299    0.4316 C   0  0  0  0  0  0  0  0  0  0  0  0
    4.9241   -1.2545    0.4128 O   0  0  0  0  0  0  0  0  0  0  0  0
    5.6035   -1.5319   -0.7626 C   0  0  0  0  0  0  0  0  0  0  0  0
    6.5339   -0.3843   -1.1349 C   0  0  0  0  0  0  0  0  0  0  0  0
    7.7363   -0.5176   -0.1931 C   0  0  0  0  0  0  0  0  0  0  0  0
    7.6350   -1.9399    0.3797 C   0  0  0  0  0  0  0  0  0  0  0  0
    6.6217   -2.6445   -0.5162 C   0  0  0  0  0  0  0  0  0  0  0  0
    3.2008    0.4639    0.0184 C   0  0  0  0  0  0  0  0  0  0  0  0
    1.9093    0.8925    0.7253 C   0  0  0  0  0  0  0  0  0  0  0  0
    0.7979   -0.1177    0.3982 C   0  0  2  0  0  0  0  0  0  0  0  0
   -0.5591    0.1965    1.0707 C   0  0  1  0  0  0  0  0  0  0  0  0
   -1.1579    1.6406    0.9158 C   0  0  0  0  0  0  0  0  0  0  0  0
   -1.9530    1.7970   -0.3715 C   0  0  0  0  0  0  0  0  0  0  0  0
   -3.0990    0.7249   -0.4838 C   0  0  2  0  0  0  0  0  0  0  0  0
   -3.0691    0.2600   -1.9871 C   0  0  0  0  0  0  0  0  0  0  0  0
   -4.7098    2.8724    3.2159 H   0  0  0  0  0  0  0  0  0  0  0  0
   -5.7389    3.8182   -2.7330 H   0  0  0  0  0  0  0  0  0  0  0  0
   -6.9315    4.5294   -1.5819 H   0  0  0  0  0  0  0  0  0  0  0  0
   -7.4614    3.2691   -2.7720 H   0  0  0  0  0  0  0  0  0  0  0  0
   -5.7292   -0.5200   -0.9807 H   0  0  0  0  0  0  0  0  0  0  0  0
   -6.0956   -0.2009    0.7382 H   0  0  0  0  0  0  0  0  0  0  0  0
   -3.9742   -1.9016   -0.5981 H   0  0  0  0  0  0  0  0  0  0  0  0
   -4.4219   -1.9913    1.1310 H   0  0  0  0  0  0  0  0  0  0  0  0
   -3.0891   -0.0736    1.6179 H   0  0  0  0  0  0  0  0  0  0  0  0
   -1.2985   -1.1627   -0.5137 H   0  0  0  0  0  0  0  0  0  0  0  0
   -1.6884   -3.0687    0.8196 H   0  0  0  0  0  0  0  0  0  0  0  0
   -1.4643   -2.1741    2.3703 H   0  0  0  0  0  0  0  0  0  0  0  0
    0.7166   -3.4269    1.6039 H   0  0  0  0  0  0  0  0  0  0  0  0
    3.0376   -2.8372    1.1049 H   0  0  0  0  0  0  0  0  0  0  0  0
    4.8836   -1.7668   -1.5806 H   0  0  0  0  0  0  0  0  0  0  0  0
    6.0850    0.6298   -1.1907 H   0  0  0  0  0  0  0  0  0  0  0  0
    6.8997   -0.6296   -2.1597 H   0  0  0  0  0  0  0  0  0  0  0  0
    7.7030    0.2041    0.6529 H   0  0  0  0  0  0  0  0  0  0  0  0
    8.6648   -0.3502   -0.7836 H   0  0  0  0  0  0  0  0  0  0  0  0
    7.1515   -1.8573    1.3796 H   0  0  0  0  0  0  0  0  0  0  0  0
    8.6061   -2.4581    0.5285 H   0  0  0  0  0  0  0  0  0  0  0  0
    6.1941   -3.5653   -0.0659 H   0  0  0  0  0  0  0  0  0  0  0  0
    7.1129   -2.9126   -1.4793 H   0  0  0  0  0  0  0  0  0  0  0  0
    3.0661    0.4825   -1.0856 H   0  0  0  0  0  0  0  0  0  0  0  0
    4.0067    1.1831    0.2753 H   0  0  0  0  0  0  0  0  0  0  0  0
    1.6439    1.9070    0.3650 H   0  0  0  0  0  0  0  0  0  0  0  0
    2.0765    0.9317    1.8244 H   0  0  0  0  0  0  0  0  0  0  0  0
    0.6824   -0.0979   -0.7103 H   0  0  0  0  0  0  0  0  0  0  0  0
   -0.4107    0.1181    2.1731 H   0  0  0  0  0  0  0  0  0  0  0  0
   -0.3857    2.4252    1.0360 H   0  0  0  0  0  0  0  0  0  0  0  0
   -1.8751    1.8176    1.7443 H   0  0  0  0  0  0  0  0  0  0  0  0
   -1.1824    1.6438   -1.1606 H   0  0  0  0  0  0  0  0  0  0  0  0
   -2.3577    2.8213   -0.5163 H   0  0  0  0  0  0  0  0  0  0  0  0
   -3.2463    1.1320   -2.6533 H   0  0  0  0  0  0  0  0  0  0  0  0
   -3.8313   -0.4933   -2.2571 H   0  0  0  0  0  0  0  0  0  0  0  0
   -2.0846   -0.1610   -2.2755 H   0  0  0  0  0  0  0  0  0  0  0  0
  1  2  3  0  0  0  0
  1 31  1  0  0  0  0
  3  2  1  1  0  0  0
  3  4  1  0  0  0  0
  3  8  1  0  0  0  0
  4  5  1  0  0  0  0
  5  6  1  0  0  0  0
  5  7  2  0  0  0  0
  6 32  1  0  0  0  0
  6 33  1  0  0  0  0
  6 34  1  0  0  0  0
  8  9  1  0  0  0  0
  8 35  1  0  0  0  0
  8 36  1  0  0  0  0
  9 37  1  0  0  0  0
  9 38  1  0  0  0  0
 10  9  1  0  0  0  0
 10 11  1  0  0  0  0
 10 39  1  1  0  0  0
 11 12  1  0  0  0  0
 11 40  1  6  0  0  0
 12 13  1  0  0  0  0
 12 41  1  0  0  0  0
 12 42  1  0  0  0  0
 13 14  2  0  0  0  0
 13 43  1  0  0  0  0
 14 15  1  0  0  0  0
 15 16  2  0  0  0  0
 15 44  1  0  0  0  0
 16 17  1  0  0  0  0
 16 23  1  0  0  0  0
 17 18  1  0  0  0  0
 18 19  1  0  0  0  0
 18 45  1  0  0  0  0
 19 20  1  0  0  0  0
 19 46  1  0  0  0  0
 19 47  1  0  0  0  0
 20 21  1  0  0  0  0
 20 48  1  0  0  0  0
 20 49  1  0  0  0  0
 21 22  1  0  0  0  0
 21 50  1  0  0  0  0
 21 51  1  0  0  0  0
 22 18  1  0  0  0  0
 22 52  1  0  0  0  0
 22 53  1  0  0  0  0
 23 24  1  0  0  0  0
 23 54  1  0  0  0  0
 23 55  1  0  0  0  0
 24 56  1  0  0  0  0
 24 57  1  0  0  0  0
 25 24  1  0  0  0  0
 25 26  1  0  0  0  0
 25 14  1  0  0  0  0
 25 58  1  6  0  0  0
 26 27  1  0  0  0  0
 26 11  1  0  0  0  0
 26 59  1  1  0  0  0
 27 28  1  0  0  0  0
 27 60  1  0  0  0  0
 27 61  1  0  0  0  0
 28 29  1  0  0  0  0
 28 62  1  0  0  0  0
 28 63  1  0  0  0  0
 29 30  1  6  0  0  0
 29  3  1  0  0  0  0
 29 10  1  0  0  0  0
 30 64  1  0  0  0  0
 30 65  1  0  0  0  0
 30 66  1  0  0  0  0
M  END
>  <IDENTIFIER>
CNP0170168.1

>  <Energy>
1001.25

$$$$
