
 OpenBabel09072504143D

 74 77  0  0  0  0  0  0  0  0999 V2000
   -3.5294    4.0521    1.3250 C   0  0  0  0  0  0  0  0  0  0  0  0
   -2.9629    2.8215    1.0741 O   0  0  0  0  0  0  0  0  0  0  0  0
   -3.4659    1.8936    0.2157 C   0  0  0  0  0  0  0  0  0  0  0  0
   -4.5001    2.1446   -0.3795 O   0  0  0  0  0  0  0  0  0  0  0  0
   -2.7090    0.5488    0.0458 C   0  0  1  0  0  0  0  0  0  0  0  0
   -2.6530    0.0279    1.4762 C   0  0  0  0  0  0  0  0  0  0  0  0
   -2.0630    0.5693    2.3993 O   0  0  0  0  0  0  0  0  0  0  0  0
   -3.5573   -1.0926    1.6774 C   0  0  0  0  0  0  0  0  0  0  0  0
   -3.8569   -1.7324    3.0037 C   0  0  0  0  0  0  0  0  0  0  0  0
   -4.0717   -1.4665    0.5118 C   0  0  0  0  0  0  0  0  0  0  0  0
   -4.9366   -2.4984    0.3627 O   0  0  0  0  0  0  0  0  0  0  0  0
   -3.4973   -0.6908   -0.6498 C   0  0  1  0  0  0  0  0  0  0  0  0
   -4.6197   -0.2601   -1.6358 C   0  0  0  0  0  0  0  0  0  0  0  0
   -2.5577   -1.7167   -1.3440 C   0  0  0  0  0  0  0  0  0  0  0  0
   -3.1048   -2.9259   -2.0823 C   0  0  0  0  0  0  0  0  0  0  0  0
   -1.2128   -1.6159   -1.3204 C   0  0  0  0  0  0  0  0  0  0  0  0
   -0.4737   -0.5368   -0.5686 C   0  0  1  0  0  0  0  0  0  0  0  0
    1.0998   -0.5272   -0.8601 C   0  0  2  0  0  0  0  0  0  0  0  0
    1.3859   -0.4253   -2.3884 C   0  0  0  0  0  0  0  0  0  0  0  0
    0.4691   -0.3428   -3.1857 O   0  0  0  0  0  0  0  0  0  0  0  0
    2.6174   -0.5673   -2.9199 O   0  0  0  0  0  0  0  0  0  0  0  0
    1.7207   -1.8879   -0.3303 C   0  0  0  0  0  0  0  0  0  0  0  0
    2.7509   -1.7451    0.8209 C   0  0  0  0  0  0  0  0  0  0  0  0
    3.8334   -0.7238    0.4285 C   0  0  2  0  0  0  0  0  0  0  0  0
    4.8551   -0.7461    1.3683 O   0  0  0  0  0  0  0  0  0  0  0  0
    6.1551   -1.0671    1.1467 C   0  0  0  0  0  0  0  0  0  0  0  0
    7.1340   -0.9537    2.2702 C   0  0  0  0  0  0  0  0  0  0  0  0
    6.5398   -1.4342    0.0451 O   0  0  0  0  0  0  0  0  0  0  0  0
    3.2376    0.7336    0.2852 C   0  0  0  0  0  0  0  0  0  0  0  0
    4.0259    1.5345   -0.7792 C   0  0  0  0  0  0  0  0  0  0  0  0
    3.4431    1.5039    1.6341 C   0  0  0  0  0  0  0  0  0  0  0  0
    1.6764    0.6604    0.0124 C   0  0  1  0  0  0  0  0  0  0  0  0
    1.0086    2.0027   -0.3513 C   0  0  0  0  0  0  0  0  0  0  0  0
   -0.4722    1.9443    0.0511 C   0  0  0  0  0  0  0  0  0  0  0  0
   -1.2810    0.8140   -0.6578 C   0  0  2  0  0  0  0  0  0  0  0  0
   -1.5225    1.3085   -2.1165 C   0  0  0  0  0  0  0  0  0  0  0  0
   -2.9005    4.5944    2.0612 H   0  0  0  0  0  0  0  0  0  0  0  0
   -4.5477    3.9245    1.7493 H   0  0  0  0  0  0  0  0  0  0  0  0
   -3.5777    4.6479    0.3891 H   0  0  0  0  0  0  0  0  0  0  0  0
   -3.2905   -1.2358    3.8186 H   0  0  0  0  0  0  0  0  0  0  0  0
   -3.5631   -2.8031    2.9748 H   0  0  0  0  0  0  0  0  0  0  0  0
   -4.9415   -1.6534    3.2247 H   0  0  0  0  0  0  0  0  0  0  0  0
   -5.2729   -3.0143    1.1083 H   0  0  0  0  0  0  0  0  0  0  0  0
   -5.1292   -1.1168   -2.1100 H   0  0  0  0  0  0  0  0  0  0  0  0
   -4.2293    0.3826   -2.4484 H   0  0  0  0  0  0  0  0  0  0  0  0
   -5.4528    0.2452   -1.1129 H   0  0  0  0  0  0  0  0  0  0  0  0
   -4.2044   -3.0178   -2.0403 H   0  0  0  0  0  0  0  0  0  0  0  0
   -2.6945   -3.8538   -1.6304 H   0  0  0  0  0  0  0  0  0  0  0  0
   -2.8020   -2.8810   -3.1503 H   0  0  0  0  0  0  0  0  0  0  0  0
   -0.6252   -2.3569   -1.8583 H   0  0  0  0  0  0  0  0  0  0  0  0
   -0.5335   -0.8204    0.5030 H   0  0  0  0  0  0  0  0  0  0  0  0
    3.3945   -0.8351   -2.4284 H   0  0  0  0  0  0  0  0  0  0  0  0
    2.2427   -2.4126   -1.1594 H   0  0  0  0  0  0  0  0  0  0  0  0
    0.9397   -2.6080   -0.0044 H   0  0  0  0  0  0  0  0  0  0  0  0
    3.2112   -2.7417    0.9975 H   0  0  0  0  0  0  0  0  0  0  0  0
    2.2607   -1.4380    1.7696 H   0  0  0  0  0  0  0  0  0  0  0  0
    4.2216   -1.0766   -0.5419 H   0  0  0  0  0  0  0  0  0  0  0  0
    6.6228   -0.5988    3.1907 H   0  0  0  0  0  0  0  0  0  0  0  0
    7.9282   -0.2264    2.0006 H   0  0  0  0  0  0  0  0  0  0  0  0
    7.5931   -1.9436    2.4721 H   0  0  0  0  0  0  0  0  0  0  0  0
    5.1063    1.5591   -0.5193 H   0  0  0  0  0  0  0  0  0  0  0  0
    3.6678    2.5842   -0.8308 H   0  0  0  0  0  0  0  0  0  0  0  0
    3.9411    1.1226   -1.7920 H   0  0  0  0  0  0  0  0  0  0  0  0
    4.5214    1.5995    1.8853 H   0  0  0  0  0  0  0  0  0  0  0  0
    2.9473    0.9779    2.4782 H   0  0  0  0  0  0  0  0  0  0  0  0
    3.0549    2.5397    1.6002 H   0  0  0  0  0  0  0  0  0  0  0  0
    1.2966    0.4213    1.0316 H   0  0  0  0  0  0  0  0  0  0  0  0
    1.1708    2.2452   -1.4211 H   0  0  0  0  0  0  0  0  0  0  0  0
    1.4362    2.8386    0.2325 H   0  0  0  0  0  0  0  0  0  0  0  0
   -0.9201    2.9406   -0.1487 H   0  0  0  0  0  0  0  0  0  0  0  0
   -0.4796    1.7949    1.1467 H   0  0  0  0  0  0  0  0  0  0  0  0
   -0.5969    1.6320   -2.6216 H   0  0  0  0  0  0  0  0  0  0  0  0
   -2.1766    2.2054   -2.1195 H   0  0  0  0  0  0  0  0  0  0  0  0
   -2.0055    0.5407   -2.7497 H   0  0  0  0  0  0  0  0  0  0  0  0
  1  2  1  0  0  0  0
  1 37  1  0  0  0  0
  1 38  1  0  0  0  0
  1 39  1  0  0  0  0
  2  3  1  0  0  0  0
  3  4  2  0  0  0  0
  5  3  1  6  0  0  0
  5  6  1  0  0  0  0
  6  7  2  0  0  0  0
  6  8  1  0  0  0  0
  8  9  1  0  0  0  0
  8 10  2  0  0  0  0
  9 40  1  0  0  0  0
  9 41  1  0  0  0  0
  9 42  1  0  0  0  0
 10 11  1  0  0  0  0
 10 12  1  0  0  0  0
 11 43  1  0  0  0  0
 12 13  1  6  0  0  0
 12 14  1  0  0  0  0
 12  5  1  0  0  0  0
 13 44  1  0  0  0  0
 13 45  1  0  0  0  0
 13 46  1  0  0  0  0
 14 15  1  0  0  0  0
 14 16  2  0  0  0  0
 15 47  1  0  0  0  0
 15 48  1  0  0  0  0
 15 49  1  0  0  0  0
 16 50  1  0  0  0  0
 17 16  1  0  0  0  0
 17 18  1  0  0  0  0
 17 51  1  1  0  0  0
 18 19  1  6  0  0  0
 18 22  1  0  0  0  0
 19 20  2  0  0  0  0
 19 21  1  0  0  0  0
 21 52  1  0  0  0  0
 22 23  1  0  0  0  0
 22 53  1  0  0  0  0
 22 54  1  0  0  0  0
 23 24  1  0  0  0  0
 23 55  1  0  0  0  0
 23 56  1  0  0  0  0
 24 25  1  0  0  0  0
 24 29  1  0  0  0  0
 24 57  1  6  0  0  0
 25 26  1  0  0  0  0
 26 27  1  0  0  0  0
 26 28  2  0  0  0  0
 27 58  1  0  0  0  0
 27 59  1  0  0  0  0
 27 60  1  0  0  0  0
 29 30  1  0  0  0  0
 29 31  1  0  0  0  0
 29 32  1  0  0  0  0
 30 61  1  0  0  0  0
 30 62  1  0  0  0  0
 30 63  1  0  0  0  0
 31 64  1  0  0  0  0
 31 65  1  0  0  0  0
 31 66  1  0  0  0  0
 32 33  1  0  0  0  0
 32 18  1  0  0  0  0
 32 67  1  1  0  0  0
 33 34  1  0  0  0  0
 33 68  1  0  0  0  0
 33 69  1  0  0  0  0
 34 35  1  0  0  0  0
 34 70  1  0  0  0  0
 34 71  1  0  0  0  0
 35 36  1  6  0  0  0
 35 17  1  0  0  0  0
 35  5  1  0  0  0  0
 36 72  1  0  0  0  0
 36 73  1  0  0  0  0
 36 74  1  0  0  0  0
M  END
>  <IDENTIFIER>
CNP0449693.1

>  <Energy>
897.646

$$$$
