
 OpenBabel09082506563D

 51 52  0  0  0  0  0  0  0  0999 V2000
    6.8297    0.8485    2.1850 C   0  0  0  0  0  0  0  0  0  0  0  0
    6.7906   -0.6261    1.7835 C   0  0  0  0  0  0  0  0  0  0  0  0
    5.5336   -1.1789    1.9609 O   0  0  0  0  0  0  0  0  0  0  0  0
    4.4143   -0.9465    1.2227 C   0  0  0  0  0  0  0  0  0  0  0  0
    4.4008   -0.1046    0.0963 C   0  0  0  0  0  0  0  0  0  0  0  0
    3.2224    0.0860   -0.6279 C   0  0  0  0  0  0  0  0  0  0  0  0
    2.0323   -0.5722   -0.2701 C   0  0  0  0  0  0  0  0  0  0  0  0
    0.8666   -0.3349   -1.0739 N   0  0  0  0  0  0  0  0  0  0  0  0
   -0.2783   -1.0858   -1.1112 C   0  0  0  0  0  0  0  0  0  0  0  0
   -0.3988   -2.0964   -0.4380 O   0  0  0  0  0  0  0  0  0  0  0  0
   -1.4364   -0.6807   -2.0085 C   0  0  2  0  0  0  0  0  0  0  0  0
   -1.0182   -0.5932   -3.4891 C   0  0  0  0  0  0  0  0  0  0  0  0
   -1.9843    0.4443   -4.0371 C   0  0  1  0  0  0  0  0  0  0  0  0
   -3.2517   -0.1475   -4.2401 O   0  0  0  0  0  0  0  0  0  0  0  0
   -2.0033    1.4787   -2.8953 C   0  0  0  0  0  0  0  0  0  0  0  0
   -1.9218    0.6544   -1.7082 N   0  0  0  0  0  0  0  0  0  0  0  0
   -2.3237    1.0573   -0.4695 C   0  0  0  0  0  0  0  0  0  0  0  0
   -2.7042    2.2066   -0.2925 O   0  0  0  0  0  0  0  0  0  0  0  0
   -2.2908    0.1739    0.5620 O   0  0  0  0  0  0  0  0  0  0  0  0
   -2.7526    0.3659    1.8524 C   0  0  0  0  0  0  0  0  0  0  0  0
   -4.2907    0.2472    1.9967 C   0  0  0  0  0  0  0  0  0  0  0  0
   -4.8019   -1.0884    1.4398 C   0  0  0  0  0  0  0  0  0  0  0  0
   -5.0556    1.4137    1.3616 C   0  0  0  0  0  0  0  0  0  0  0  0
    2.0519   -1.4157    0.8626 C   0  0  0  0  0  0  0  0  0  0  0  0
    3.2304   -1.5912    1.5966 C   0  0  0  0  0  0  0  0  0  0  0  0
    7.8639    1.2340    2.0600 H   0  0  0  0  0  0  0  0  0  0  0  0
    6.5339    0.9590    3.2492 H   0  0  0  0  0  0  0  0  0  0  0  0
    6.1530    1.4653    1.5627 H   0  0  0  0  0  0  0  0  0  0  0  0
    7.5000   -1.1688    2.4433 H   0  0  0  0  0  0  0  0  0  0  0  0
    7.1299   -0.7682    0.7348 H   0  0  0  0  0  0  0  0  0  0  0  0
    5.2924    0.4053   -0.2378 H   0  0  0  0  0  0  0  0  0  0  0  0
    3.2434    0.7400   -1.4909 H   0  0  0  0  0  0  0  0  0  0  0  0
    0.9165    0.4767   -1.7067 H   0  0  0  0  0  0  0  0  0  0  0  0
   -2.2870   -1.3894   -1.8864 H   0  0  0  0  0  0  0  0  0  0  0  0
   -0.9819   -1.5643   -4.0272 H   0  0  0  0  0  0  0  0  0  0  0  0
   -0.0150   -0.1255   -3.5776 H   0  0  0  0  0  0  0  0  0  0  0  0
   -1.6706    0.8906   -5.0047 H   0  0  0  0  0  0  0  0  0  0  0  0
   -3.7500   -0.1890   -3.3832 H   0  0  0  0  0  0  0  0  0  0  0  0
   -2.9352    2.0822   -2.9531 H   0  0  0  0  0  0  0  0  0  0  0  0
   -1.1108    2.1426   -2.9173 H   0  0  0  0  0  0  0  0  0  0  0  0
   -2.3739    1.3257    2.2659 H   0  0  0  0  0  0  0  0  0  0  0  0
   -2.3120   -0.4454    2.4710 H   0  0  0  0  0  0  0  0  0  0  0  0
   -4.5118    0.2777    3.0872 H   0  0  0  0  0  0  0  0  0  0  0  0
   -4.6147   -1.1540    0.3461 H   0  0  0  0  0  0  0  0  0  0  0  0
   -5.8947   -1.1845    1.6168 H   0  0  0  0  0  0  0  0  0  0  0  0
   -4.2929   -1.9381    1.9423 H   0  0  0  0  0  0  0  0  0  0  0  0
   -4.9579    1.4140    0.2584 H   0  0  0  0  0  0  0  0  0  0  0  0
   -4.6899    2.3784    1.7739 H   0  0  0  0  0  0  0  0  0  0  0  0
   -6.1373    1.3272    1.6001 H   0  0  0  0  0  0  0  0  0  0  0  0
    1.1770   -1.9343    1.2162 H   0  0  0  0  0  0  0  0  0  0  0  0
    3.2233   -2.2394    2.4644 H   0  0  0  0  0  0  0  0  0  0  0  0
  1  2  1  0  0  0  0
  1 26  1  0  0  0  0
  1 27  1  0  0  0  0
  1 28  1  0  0  0  0
  2  3  1  0  0  0  0
  2 29  1  0  0  0  0
  2 30  1  0  0  0  0
  3  4  1  0  0  0  0
  4  5  2  0  0  0  0
  5  6  1  0  0  0  0
  5 31  1  0  0  0  0
  6  7  2  0  0  0  0
  6 32  1  0  0  0  0
  7  8  1  0  0  0  0
  7 24  1  0  0  0  0
  8  9  1  0  0  0  0
  8 33  1  0  0  0  0
  9 10  2  0  0  0  0
 11  9  1  0  0  0  0
 11 12  1  0  0  0  0
 11 34  1  1  0  0  0
 12 13  1  0  0  0  0
 12 35  1  0  0  0  0
 12 36  1  0  0  0  0
 13 14  1  0  0  0  0
 13 15  1  0  0  0  0
 13 37  1  6  0  0  0
 14 38  1  0  0  0  0
 15 16  1  0  0  0  0
 15 39  1  0  0  0  0
 15 40  1  0  0  0  0
 16 17  1  0  0  0  0
 16 11  1  0  0  0  0
 17 18  2  0  0  0  0
 17 19  1  0  0  0  0
 19 20  1  0  0  0  0
 20 21  1  0  0  0  0
 20 41  1  0  0  0  0
 20 42  1  0  0  0  0
 21 22  1  0  0  0  0
 21 23  1  0  0  0  0
 21 43  1  0  0  0  0
 22 44  1  0  0  0  0
 22 45  1  0  0  0  0
 22 46  1  0  0  0  0
 23 47  1  0  0  0  0
 23 48  1  0  0  0  0
 23 49  1  0  0  0  0
 24 25  2  0  0  0  0
 24 50  1  0  0  0  0
 25  4  1  0  0  0  0
 25 51  1  0  0  0  0
M  END
>  <IDENTIFIER>
CNP0380398.2

>  <Energy>
374.42

$$$$
