
 OpenBabel09112503363D

 54 56  0  0  0  0  0  0  0  0999 V2000
   -2.6710    2.4830    1.5750 C   0  0  0  0  0  0  0  0  0  0  0  0
   -2.7612    1.6966    0.4853 C   0  0  0  0  0  0  0  0  0  0  0  0
   -4.0988    1.5390   -0.1961 C   0  0  0  0  0  0  0  0  0  0  0  0
   -1.5159    0.9764   -0.0319 C   0  0  2  0  0  0  0  0  0  0  0  0
   -1.1565    1.3890   -1.5072 C   0  0  0  0  0  0  0  0  0  0  0  0
   -0.3176    2.6870   -1.5509 C   0  0  0  0  0  0  0  0  0  0  0  0
    1.0486    2.3807   -0.9721 C   0  0  0  0  0  0  0  0  0  0  0  0
    2.0144    1.6585   -1.5435 C   0  0  0  0  0  0  0  0  0  0  0  0
    3.1232    1.4077   -0.5307 C   0  0  1  0  0  0  0  0  0  0  0  0
    2.6835    2.0886    0.5960 O   0  0  0  0  0  0  0  0  0  0  0  0
    1.5106    2.6919    0.3562 C   0  0  0  0  0  0  0  0  0  0  0  0
    0.9016    3.3419    1.1905 O   0  0  0  0  0  0  0  0  0  0  0  0
    3.3217   -0.1368   -0.2693 C   0  0  1  0  0  0  0  0  0  0  0  0
    4.1608   -0.5353    0.9473 C   0  0  0  0  0  0  0  0  0  0  0  0
    4.6922    0.3371    1.8241 C   0  0  0  0  0  0  0  0  0  0  0  0
    4.4429   -2.0004    1.1738 C   0  0  0  0  0  0  0  0  0  0  0  0
    1.9852   -0.8524   -0.2817 C   0  0  0  0  0  0  0  0  0  0  0  0
    1.6335   -1.8978   -1.1187 C   0  0  0  0  0  0  0  0  0  0  0  0
    0.2643   -2.0311   -1.0050 C   0  0  0  0  0  0  0  0  0  0  0  0
   -0.5963   -2.9844   -1.7679 C   0  0  0  0  0  0  0  0  0  0  0  0
   -0.1379   -1.0539   -0.1110 C   0  0  0  0  0  0  0  0  0  0  0  0
    0.9171   -0.3990    0.3228 O   0  0  0  0  0  0  0  0  0  0  0  0
   -1.5464   -0.5696    0.1834 C   0  0  1  0  0  0  0  0  0  0  0  0
   -1.8602   -0.8257    1.5428 O   0  0  0  0  0  0  0  0  0  0  0  0
   -2.5225   -2.0679    1.7029 C   0  0  0  0  0  0  0  0  0  0  0  0
   -4.0294   -1.9297    1.4884 C   0  0  0  0  0  0  0  0  0  0  0  0
   -3.5367    3.0041    1.9708 H   0  0  0  0  0  0  0  0  0  0  0  0
   -1.7295    2.6184    2.1001 H   0  0  0  0  0  0  0  0  0  0  0  0
   -4.8986    2.1034    0.3308 H   0  0  0  0  0  0  0  0  0  0  0  0
   -4.3927    0.4755   -0.2213 H   0  0  0  0  0  0  0  0  0  0  0  0
   -4.0552    1.9260   -1.2324 H   0  0  0  0  0  0  0  0  0  0  0  0
   -0.6882    1.2940    0.6292 H   0  0  0  0  0  0  0  0  0  0  0  0
   -2.0752    1.4666   -2.1199 H   0  0  0  0  0  0  0  0  0  0  0  0
   -0.5426    0.6144   -2.0133 H   0  0  0  0  0  0  0  0  0  0  0  0
   -0.8446    3.4662   -0.9595 H   0  0  0  0  0  0  0  0  0  0  0  0
   -0.1907    3.0577   -2.5903 H   0  0  0  0  0  0  0  0  0  0  0  0
    1.9707    1.2446   -2.5428 H   0  0  0  0  0  0  0  0  0  0  0  0
    4.0870    1.8516   -0.8619 H   0  0  0  0  0  0  0  0  0  0  0  0
    3.8741   -0.5270   -1.1532 H   0  0  0  0  0  0  0  0  0  0  0  0
    4.5796    1.4074    1.7479 H   0  0  0  0  0  0  0  0  0  0  0  0
    5.2841   -0.0213    2.6615 H   0  0  0  0  0  0  0  0  0  0  0  0
    3.9905   -2.6312    0.3809 H   0  0  0  0  0  0  0  0  0  0  0  0
    4.0302   -2.3177    2.1547 H   0  0  0  0  0  0  0  0  0  0  0  0
    5.5396   -2.1761    1.1640 H   0  0  0  0  0  0  0  0  0  0  0  0
    2.2872   -2.4470   -1.7877 H   0  0  0  0  0  0  0  0  0  0  0  0
    0.0290   -3.6251   -2.4290 H   0  0  0  0  0  0  0  0  0  0  0  0
   -1.3232   -2.4262   -2.3910 H   0  0  0  0  0  0  0  0  0  0  0  0
   -1.1413   -3.6407   -1.0590 H   0  0  0  0  0  0  0  0  0  0  0  0
   -2.2889   -1.0178   -0.5156 H   0  0  0  0  0  0  0  0  0  0  0  0
   -2.3543   -2.4025    2.7480 H   0  0  0  0  0  0  0  0  0  0  0  0
   -2.0995   -2.8654    1.0517 H   0  0  0  0  0  0  0  0  0  0  0  0
   -4.4399   -1.1418    2.1552 H   0  0  0  0  0  0  0  0  0  0  0  0
   -4.5317   -2.8929    1.7150 H   0  0  0  0  0  0  0  0  0  0  0  0
   -4.2572   -1.6743    0.4354 H   0  0  0  0  0  0  0  0  0  0  0  0
  1  2  2  0  0  0  0
  1 27  1  0  0  0  0
  1 28  1  0  0  0  0
  2  3  1  0  0  0  0
  3 29  1  0  0  0  0
  3 30  1  0  0  0  0
  3 31  1  0  0  0  0
  4  2  1  0  0  0  0
  4  5  1  0  0  0  0
  4 32  1  1  0  0  0
  5  6  1  0  0  0  0
  5 33  1  0  0  0  0
  5 34  1  0  0  0  0
  6  7  1  0  0  0  0
  6 35  1  0  0  0  0
  6 36  1  0  0  0  0
  7  8  2  0  0  0  0
  8  9  1  0  0  0  0
  8 37  1  0  0  0  0
  9 10  1  0  0  0  0
  9 13  1  0  0  0  0
  9 38  1  6  0  0  0
 10 11  1  0  0  0  0
 11 12  2  0  0  0  0
 11  7  1  0  0  0  0
 13 14  1  0  0  0  0
 13 17  1  0  0  0  0
 13 39  1  6  0  0  0
 14 15  2  0  0  0  0
 14 16  1  0  0  0  0
 15 40  1  0  0  0  0
 15 41  1  0  0  0  0
 16 42  1  0  0  0  0
 16 43  1  0  0  0  0
 16 44  1  0  0  0  0
 17 18  2  0  0  0  0
 18 19  1  0  0  0  0
 18 45  1  0  0  0  0
 19 20  1  0  0  0  0
 19 21  2  0  0  0  0
 20 46  1  0  0  0  0
 20 47  1  0  0  0  0
 20 48  1  0  0  0  0
 21 22  1  0  0  0  0
 21 23  1  0  0  0  0
 22 17  1  0  0  0  0
 23 24  1  0  0  0  0
 23  4  1  0  0  0  0
 23 49  1  6  0  0  0
 24 25  1  0  0  0  0
 25 26  1  0  0  0  0
 25 50  1  0  0  0  0
 25 51  1  0  0  0  0
 26 52  1  0  0  0  0
 26 53  1  0  0  0  0
 26 54  1  0  0  0  0
M  END
>  <IDENTIFIER>
CNP0154690.1

>  <Energy>
573.311

$$$$
