
 OpenBabel09092516453D

 56 57  0  0  0  0  0  0  0  0999 V2000
   -6.6407    0.9791    1.5348 C   0  0  0  0  0  0  0  0  0  0  0  0
   -5.2360    1.1910    0.9679 C   0  0  0  0  0  0  0  0  0  0  0  0
   -5.0671    0.6977   -0.4909 C   0  0  2  0  0  0  0  0  0  0  0  0
   -5.3546   -0.8059   -0.6357 C   0  0  0  0  0  0  0  0  0  0  0  0
   -3.6546    1.0592   -1.0160 C   0  0  0  0  0  0  0  0  0  0  0  0
   -2.6270    0.6104   -0.1478 O   0  0  0  0  0  0  0  0  0  0  0  0
   -2.0443   -0.6123   -0.5614 C   0  0  1  0  0  0  0  0  0  0  0  0
   -0.8403   -0.3568   -1.2985 O   0  0  0  0  0  0  0  0  0  0  0  0
    0.3847   -0.4730   -0.5610 C   0  0  1  0  0  0  0  0  0  0  0  0
    1.4661    0.3125   -1.3204 C   0  0  0  0  0  0  0  0  0  0  0  0
    2.7127    0.1352   -0.6801 O   0  0  0  0  0  0  0  0  0  0  0  0
    3.7945    0.5666   -1.4888 C   0  0  2  0  0  0  0  0  0  0  0  0
    4.6661   -0.5416   -1.6796 O   0  0  0  0  0  0  0  0  0  0  0  0
    5.8389   -0.2823   -0.9165 C   0  0  2  0  0  0  0  0  0  0  0  0
    6.4395   -1.5610   -0.3116 C   0  0  0  0  0  0  0  0  0  0  0  0
    6.8121   -2.4511   -1.3290 O   0  0  0  0  0  0  0  0  0  0  0  0
    5.4873    0.7994    0.1233 C   0  0  2  0  0  0  0  0  0  0  0  0
    4.7662    0.3173    1.2414 O   0  0  0  0  0  0  0  0  0  0  0  0
    4.6137    1.6421   -0.7700 C   0  0  2  0  0  0  0  0  0  0  0  0
    3.8637    2.6424   -0.1254 O   0  0  0  0  0  0  0  0  0  0  0  0
    0.2094    0.0313    0.8970 C   0  0  2  0  0  0  0  0  0  0  0  0
    1.4081    0.1098    1.6257 O   0  0  0  0  0  0  0  0  0  0  0  0
   -0.8176   -0.8486    1.6504 C   0  0  1  0  0  0  0  0  0  0  0  0
   -1.4475   -0.1014    2.6621 O   0  0  0  0  0  0  0  0  0  0  0  0
   -1.8261   -1.5085    0.6782 C   0  0  2  0  0  0  0  0  0  0  0  0
   -1.3041   -2.7408    0.2429 O   0  0  0  0  0  0  0  0  0  0  0  0
   -6.6878    1.3978    2.5623 H   0  0  0  0  0  0  0  0  0  0  0  0
   -6.8889   -0.0996    1.6036 H   0  0  0  0  0  0  0  0  0  0  0  0
   -7.3943    1.4954    0.9040 H   0  0  0  0  0  0  0  0  0  0  0  0
   -4.5086    0.6736    1.6310 H   0  0  0  0  0  0  0  0  0  0  0  0
   -5.0213    2.2815    1.0005 H   0  0  0  0  0  0  0  0  0  0  0  0
   -5.7989    1.2300   -1.1385 H   0  0  0  0  0  0  0  0  0  0  0  0
   -4.7023   -1.4094    0.0230 H   0  0  0  0  0  0  0  0  0  0  0  0
   -5.2030   -1.1206   -1.6902 H   0  0  0  0  0  0  0  0  0  0  0  0
   -6.4087   -1.0347   -0.3805 H   0  0  0  0  0  0  0  0  0  0  0  0
   -3.5757    2.1670   -1.0516 H   0  0  0  0  0  0  0  0  0  0  0  0
   -3.5150    0.7337   -2.0735 H   0  0  0  0  0  0  0  0  0  0  0  0
   -2.7185   -1.1977   -1.2266 H   0  0  0  0  0  0  0  0  0  0  0  0
    0.7158   -1.5352   -0.5565 H   0  0  0  0  0  0  0  0  0  0  0  0
    1.1977    1.3919   -1.3514 H   0  0  0  0  0  0  0  0  0  0  0  0
    1.4949   -0.1041   -2.3546 H   0  0  0  0  0  0  0  0  0  0  0  0
    3.4740    0.9864   -2.4728 H   0  0  0  0  0  0  0  0  0  0  0  0
    6.5940    0.1450   -1.6180 H   0  0  0  0  0  0  0  0  0  0  0  0
    5.7431   -2.0662    0.3931 H   0  0  0  0  0  0  0  0  0  0  0  0
    7.3494   -1.2982    0.2686 H   0  0  0  0  0  0  0  0  0  0  0  0
    5.9874   -2.9302   -1.6046 H   0  0  0  0  0  0  0  0  0  0  0  0
    6.3863    1.3287    0.5062 H   0  0  0  0  0  0  0  0  0  0  0  0
    4.2968   -0.5245    1.0170 H   0  0  0  0  0  0  0  0  0  0  0  0
    5.2768    2.1293   -1.5238 H   0  0  0  0  0  0  0  0  0  0  0  0
    3.2947    2.2101    0.5618 H   0  0  0  0  0  0  0  0  0  0  0  0
   -0.1918    1.0635    0.7902 H   0  0  0  0  0  0  0  0  0  0  0  0
    1.8070   -0.7993    1.6327 H   0  0  0  0  0  0  0  0  0  0  0  0
   -0.3076   -1.6963    2.1602 H   0  0  0  0  0  0  0  0  0  0  0  0
   -1.9894    0.6082    2.2318 H   0  0  0  0  0  0  0  0  0  0  0  0
   -2.7651   -1.7148    1.2416 H   0  0  0  0  0  0  0  0  0  0  0  0
   -2.0662   -3.2691   -0.1130 H   0  0  0  0  0  0  0  0  0  0  0  0
  1  2  1  0  0  0  0
  1 27  1  0  0  0  0
  1 28  1  0  0  0  0
  1 29  1  0  0  0  0
  2  3  1  0  0  0  0
  2 30  1  0  0  0  0
  2 31  1  0  0  0  0
  3  4  1  0  0  0  0
  3  5  1  0  0  0  0
  3 32  1  6  0  0  0
  4 33  1  0  0  0  0
  4 34  1  0  0  0  0
  4 35  1  0  0  0  0
  5  6  1  0  0  0  0
  5 36  1  0  0  0  0
  5 37  1  0  0  0  0
  7  6  1  0  0  0  0
  7  8  1  0  0  0  0
  7 38  1  6  0  0  0
  8  9  1  0  0  0  0
  9 10  1  0  0  0  0
  9 21  1  0  0  0  0
  9 39  1  1  0  0  0
 10 11  1  0  0  0  0
 10 40  1  0  0  0  0
 10 41  1  0  0  0  0
 12 11  1  0  0  0  0
 12 13  1  0  0  0  0
 12 42  1  6  0  0  0
 13 14  1  0  0  0  0
 14 15  1  0  0  0  0
 14 17  1  0  0  0  0
 14 43  1  6  0  0  0
 15 16  1  0  0  0  0
 15 44  1  0  0  0  0
 15 45  1  0  0  0  0
 16 46  1  0  0  0  0
 17 18  1  0  0  0  0
 17 19  1  0  0  0  0
 17 47  1  1  0  0  0
 18 48  1  0  0  0  0
 19 20  1  0  0  0  0
 19 12  1  0  0  0  0
 19 49  1  6  0  0  0
 20 50  1  0  0  0  0
 21 22  1  0  0  0  0
 21 23  1  0  0  0  0
 21 51  1  6  0  0  0
 22 52  1  0  0  0  0
 23 24  1  0  0  0  0
 23 25  1  0  0  0  0
 23 53  1  1  0  0  0
 24 54  1  0  0  0  0
 25 26  1  0  0  0  0
 25  7  1  0  0  0  0
 25 55  1  1  0  0  0
 26 56  1  0  0  0  0
M  END
>  <IDENTIFIER>
CNP0157923.2

>  <Energy>
643.762

$$$$
