
 OpenBabel09112500373D

 52 54  0  0  0  0  0  0  0  0999 V2000
    5.2362   -1.0511   -1.2253 C   0  0  0  0  0  0  0  0  0  0  0  0
    4.7595   -0.6943    0.1880 C   0  0  0  0  0  0  0  0  0  0  0  0
    5.6341    0.4104    0.7978 C   0  0  0  0  0  0  0  0  0  0  0  0
    3.2852   -0.2974    0.1679 C   0  0  0  0  0  0  0  0  0  0  0  0
    2.8752    0.8542   -0.5100 C   0  0  0  0  0  0  0  0  0  0  0  0
    1.5260    1.2558   -0.5694 C   0  0  0  0  0  0  0  0  0  0  0  0
    1.2548    2.5348   -1.2936 C   0  0  0  0  0  0  0  0  0  0  0  0
    2.1545    3.1482   -1.8481 O   0  0  0  0  0  0  0  0  0  0  0  0
    0.5183    0.4358    0.0519 C   0  0  0  0  0  0  0  0  0  0  0  0
    0.9624   -0.7112    0.7761 C   0  0  0  0  0  0  0  0  0  0  0  0
    2.3212   -1.0711    0.8261 C   0  0  0  0  0  0  0  0  0  0  0  0
    2.7077   -2.1738    1.5090 O   0  0  0  0  0  0  0  0  0  0  0  0
    0.0942   -1.4987    1.4508 O   0  0  0  0  0  0  0  0  0  0  0  0
   -1.2276   -1.1995    1.6967 C   0  0  2  0  0  0  0  0  0  0  0  0
   -1.8868   -2.3726    2.0900 O   0  0  0  0  0  0  0  0  0  0  0  0
   -1.8337   -0.5674    0.4310 C   0  0  1  0  0  0  0  0  0  0  0  0
   -3.4237   -0.3971    0.4118 C   0  0  0  0  0  0  0  0  0  0  0  0
   -4.0251    0.0701    1.7598 C   0  0  0  0  0  0  0  0  0  0  0  0
   -4.0787   -1.7704    0.0797 C   0  0  0  0  0  0  0  0  0  0  0  0
   -3.8525    0.6110   -0.7080 C   0  0  0  0  0  0  0  0  0  0  0  0
   -2.8896    0.5318   -1.8857 C   0  0  0  0  0  0  0  0  0  0  0  0
   -1.5007    1.0735   -1.4656 C   0  0  0  0  0  0  0  0  0  0  0  0
   -1.0188    0.7214    0.0025 C   0  0  2  0  0  0  0  0  0  0  0  0
   -1.2603    1.9187    0.9656 C   0  0  0  0  0  0  0  0  0  0  0  0
    6.2959   -1.3833   -1.1994 H   0  0  0  0  0  0  0  0  0  0  0  0
    5.1532   -0.1836   -1.9128 H   0  0  0  0  0  0  0  0  0  0  0  0
    4.6225   -1.8864   -1.6276 H   0  0  0  0  0  0  0  0  0  0  0  0
    4.9061   -1.6022    0.8108 H   0  0  0  0  0  0  0  0  0  0  0  0
    5.5938    1.3419    0.1954 H   0  0  0  0  0  0  0  0  0  0  0  0
    6.6927    0.0758    0.8405 H   0  0  0  0  0  0  0  0  0  0  0  0
    5.2973    0.6367    1.8315 H   0  0  0  0  0  0  0  0  0  0  0  0
    3.6326    1.4537   -0.9973 H   0  0  0  0  0  0  0  0  0  0  0  0
    0.2882    2.9888   -1.3254 H   0  0  0  0  0  0  0  0  0  0  0  0
    2.0952   -2.7504    1.9860 H   0  0  0  0  0  0  0  0  0  0  0  0
   -1.2875   -0.4843    2.5421 H   0  0  0  0  0  0  0  0  0  0  0  0
   -1.6546   -3.0778    1.4306 H   0  0  0  0  0  0  0  0  0  0  0  0
   -1.6008   -1.2987   -0.3793 H   0  0  0  0  0  0  0  0  0  0  0  0
   -3.8143   -0.6634    2.5652 H   0  0  0  0  0  0  0  0  0  0  0  0
   -5.1297    0.1641    1.6764 H   0  0  0  0  0  0  0  0  0  0  0  0
   -3.6364    1.0468    2.0930 H   0  0  0  0  0  0  0  0  0  0  0  0
   -3.8966   -2.5328    0.8580 H   0  0  0  0  0  0  0  0  0  0  0  0
   -3.7141   -2.1752   -0.8872 H   0  0  0  0  0  0  0  0  0  0  0  0
   -5.1830   -1.6691    0.0026 H   0  0  0  0  0  0  0  0  0  0  0  0
   -3.8425    1.6626   -0.3612 H   0  0  0  0  0  0  0  0  0  0  0  0
   -4.9021    0.4193   -1.0212 H   0  0  0  0  0  0  0  0  0  0  0  0
   -3.2538    1.1170   -2.7579 H   0  0  0  0  0  0  0  0  0  0  0  0
   -2.8165   -0.5261   -2.2144 H   0  0  0  0  0  0  0  0  0  0  0  0
   -1.5789    2.1729   -1.5609 H   0  0  0  0  0  0  0  0  0  0  0  0
   -0.7853    0.7053   -2.2329 H   0  0  0  0  0  0  0  0  0  0  0  0
   -2.2967    2.2811    0.9711 H   0  0  0  0  0  0  0  0  0  0  0  0
   -0.6520    2.7978    0.6807 H   0  0  0  0  0  0  0  0  0  0  0  0
   -0.9700    1.6646    2.0046 H   0  0  0  0  0  0  0  0  0  0  0  0
  1  2  1  0  0  0  0
  1 25  1  0  0  0  0
  1 26  1  0  0  0  0
  1 27  1  0  0  0  0
  2  3  1  0  0  0  0
  2  4  1  0  0  0  0
  2 28  1  0  0  0  0
  3 29  1  0  0  0  0
  3 30  1  0  0  0  0
  3 31  1  0  0  0  0
  4  5  2  0  0  0  0
  5  6  1  0  0  0  0
  5 32  1  0  0  0  0
  6  7  1  0  0  0  0
  6  9  2  0  0  0  0
  7  8  2  0  0  0  0
  7 33  1  0  0  0  0
  9 10  1  0  0  0  0
 10 11  2  0  0  0  0
 10 13  1  0  0  0  0
 11 12  1  0  0  0  0
 11  4  1  0  0  0  0
 12 34  1  0  0  0  0
 13 14  1  0  0  0  0
 14 15  1  0  0  0  0
 14 16  1  0  0  0  0
 14 35  1  1  0  0  0
 15 36  1  0  0  0  0
 16 17  1  0  0  0  0
 16 37  1  6  0  0  0
 17 18  1  0  0  0  0
 17 19  1  0  0  0  0
 17 20  1  0  0  0  0
 18 38  1  0  0  0  0
 18 39  1  0  0  0  0
 18 40  1  0  0  0  0
 19 41  1  0  0  0  0
 19 42  1  0  0  0  0
 19 43  1  0  0  0  0
 20 21  1  0  0  0  0
 20 44  1  0  0  0  0
 20 45  1  0  0  0  0
 21 22  1  0  0  0  0
 21 46  1  0  0  0  0
 21 47  1  0  0  0  0
 22 23  1  0  0  0  0
 22 48  1  0  0  0  0
 22 49  1  0  0  0  0
 23 24  1  1  0  0  0
 23 16  1  0  0  0  0
 23  9  1  0  0  0  0
 24 50  1  0  0  0  0
 24 51  1  0  0  0  0
 24 52  1  0  0  0  0
M  END
>  <IDENTIFIER>
CNP0294270.1

>  <Energy>
518.095

$$$$
