
 OpenBabel09042515263D

 47 49  0  0  0  0  0  0  0  0999 V2000
   -3.4120   -3.0907    1.3687 C   0  0  0  0  0  0  0  0  0  0  0  0
   -3.6377   -1.8740    0.5080 C   0  0  0  0  0  0  0  0  0  0  0  0
   -4.7930   -1.5583    0.2574 O   0  0  0  0  0  0  0  0  0  0  0  0
   -2.5915   -1.1399    0.0059 N   0  0  0  0  0  0  0  0  0  0  0  0
   -1.2136   -1.4926    0.3256 C   0  0  0  0  0  0  0  0  0  0  0  0
   -0.2108   -0.5233   -0.3351 C   0  0  2  0  0  0  0  0  0  0  0  0
    1.2060   -0.8334    0.1801 C   0  0  0  0  0  0  0  0  0  0  0  0
    2.1932    0.0703   -0.4387 N   0  0  2  0  0  0  0  0  0  0  0  0
    3.5374   -0.2155    0.1026 C   0  0  0  0  0  0  0  0  0  0  0  0
    4.1189   -1.5967   -0.2243 C   0  0  0  0  0  0  0  0  0  0  0  0
    5.4700   -0.9062   -0.4033 C   0  0  0  0  0  0  0  0  0  0  0  0
    4.7048    0.3861   -0.6876 C   0  0  0  0  0  0  0  0  0  0  0  0
    1.8385    1.4709   -0.1383 C   0  0  0  0  0  0  0  0  0  0  0  0
    0.4338    1.8001   -0.6512 C   0  0  0  0  0  0  0  0  0  0  0  0
   -0.5632    0.8910   -0.0420 N   0  0  1  0  0  0  0  0  0  0  0  0
   -2.0222    1.2451   -0.2291 C   0  0  2  0  0  0  0  0  0  0  0  0
   -2.2689    2.4534   -1.1783 C   0  0  0  0  0  0  0  0  0  0  0  0
   -2.5701    1.6013    1.1757 C   0  0  0  0  0  0  0  0  0  0  0  0
   -3.9443    1.8943    1.1432 O   0  0  0  0  0  0  0  0  0  0  0  0
   -2.8133    0.0405   -0.8198 C   0  0  0  0  0  0  0  0  0  0  0  0
   -4.3806   -3.5453    1.6678 H   0  0  0  0  0  0  0  0  0  0  0  0
   -2.8593   -2.8114    2.2895 H   0  0  0  0  0  0  0  0  0  0  0  0
   -2.8329   -3.8509    0.8040 H   0  0  0  0  0  0  0  0  0  0  0  0
   -0.9905   -2.5283   -0.0124 H   0  0  0  0  0  0  0  0  0  0  0  0
   -1.0892   -1.4357    1.4294 H   0  0  0  0  0  0  0  0  0  0  0  0
   -0.2323   -0.6838   -1.4378 H   0  0  0  0  0  0  0  0  0  0  0  0
    1.4478   -1.8884   -0.0754 H   0  0  0  0  0  0  0  0  0  0  0  0
    1.2290   -0.7261    1.2898 H   0  0  0  0  0  0  0  0  0  0  0  0
    3.6534   -0.0038    1.1945 H   0  0  0  0  0  0  0  0  0  0  0  0
    3.7585   -1.9253   -1.2280 H   0  0  0  0  0  0  0  0  0  0  0  0
    4.0316   -2.4002    0.5378 H   0  0  0  0  0  0  0  0  0  0  0  0
    6.1727   -1.2965   -1.1692 H   0  0  0  0  0  0  0  0  0  0  0  0
    5.9572   -0.8159    0.5972 H   0  0  0  0  0  0  0  0  0  0  0  0
    4.4456    0.4050   -1.7733 H   0  0  0  0  0  0  0  0  0  0  0  0
    5.1412    1.3484   -0.3465 H   0  0  0  0  0  0  0  0  0  0  0  0
    2.5592    2.1613   -0.6295 H   0  0  0  0  0  0  0  0  0  0  0  0
    1.8695    1.6548    0.9605 H   0  0  0  0  0  0  0  0  0  0  0  0
    0.4128    1.7082   -1.7603 H   0  0  0  0  0  0  0  0  0  0  0  0
    0.2384    2.8521   -0.3609 H   0  0  0  0  0  0  0  0  0  0  0  0
   -1.8234    3.3902   -0.7860 H   0  0  0  0  0  0  0  0  0  0  0  0
   -3.3571    2.6491   -1.2898 H   0  0  0  0  0  0  0  0  0  0  0  0
   -1.8656    2.2490   -2.1925 H   0  0  0  0  0  0  0  0  0  0  0  0
   -1.9933    2.4566    1.6017 H   0  0  0  0  0  0  0  0  0  0  0  0
   -2.4151    0.7561    1.8792 H   0  0  0  0  0  0  0  0  0  0  0  0
   -4.0328    2.8831    1.1373 H   0  0  0  0  0  0  0  0  0  0  0  0
   -2.4376   -0.1683   -1.8451 H   0  0  0  0  0  0  0  0  0  0  0  0
   -3.8926    0.2860   -0.9283 H   0  0  0  0  0  0  0  0  0  0  0  0
  1  2  1  0  0  0  0
  1 21  1  0  0  0  0
  1 22  1  0  0  0  0
  1 23  1  0  0  0  0
  2  3  2  0  0  0  0
  2  4  1  0  0  0  0
  4  5  1  0  0  0  0
  5 24  1  0  0  0  0
  5 25  1  0  0  0  0
  6  5  1  0  0  0  0
  6  7  1  0  0  0  0
  6 26  1  6  0  0  0
  7  8  1  0  0  0  0
  7 27  1  0  0  0  0
  7 28  1  0  0  0  0
  8  9  1  1  0  0  0
  8 13  1  0  0  0  0
  9 10  1  0  0  0  0
  9 29  1  0  0  0  0
 10 11  1  0  0  0  0
 10 30  1  0  0  0  0
 10 31  1  0  0  0  0
 11 12  1  0  0  0  0
 11 32  1  0  0  0  0
 11 33  1  0  0  0  0
 12  9  1  0  0  0  0
 12 34  1  0  0  0  0
 12 35  1  0  0  0  0
 13 14  1  0  0  0  0
 13 36  1  0  0  0  0
 13 37  1  0  0  0  0
 14 38  1  0  0  0  0
 14 39  1  0  0  0  0
 15 14  1  6  0  0  0
 15 16  1  0  0  0  0
 15  6  1  0  0  0  0
 16 17  1  6  0  0  0
 16 18  1  0  0  0  0
 16 20  1  0  0  0  0
 17 40  1  0  0  0  0
 17 41  1  0  0  0  0
 17 42  1  0  0  0  0
 18 19  1  0  0  0  0
 18 43  1  0  0  0  0
 18 44  1  0  0  0  0
 19 45  1  0  0  0  0
 20  4  1  0  0  0  0
 20 46  1  0  0  0  0
 20 47  1  0  0  0  0
M  END
>  <IDENTIFIER>
CNP0165131.1

>  <Energy>
788.41

$$$$
