
 OpenBabel09122515553D

 59 62  0  0  0  0  0  0  0  0999 V2000
   -7.7820   -1.4879    2.3332 C   0  0  0  0  0  0  0  0  0  0  0  0
   -7.1021   -1.0953    1.0162 C   0  0  0  0  0  0  0  0  0  0  0  0
   -6.3642   -2.3188    0.4424 C   0  0  0  0  0  0  0  0  0  0  0  0
   -6.1580    0.1106    1.2535 C   0  0  0  0  0  0  0  0  0  0  0  0
   -5.5376    0.6378   -0.0416 C   0  0  0  0  0  0  0  0  0  0  0  0
   -4.6960    1.7389    0.2427 O   0  0  0  0  0  0  0  0  0  0  0  0
   -4.1854    2.2897   -0.9602 C   0  0  0  0  0  0  0  0  0  0  0  0
   -2.9974    1.4758   -1.5028 C   0  0  2  0  0  0  0  0  0  0  0  0
   -1.7988    1.4352   -0.5567 C   0  0  0  0  0  0  0  0  0  0  0  0
   -0.6446    1.0685   -1.5019 C   0  0  1  0  0  0  0  0  0  0  0  0
    0.7061    1.5699   -1.0012 C   0  0  0  0  0  0  0  0  0  0  0  0
    1.7309    0.4856   -1.4339 C   0  0  1  0  0  0  0  0  0  0  0  0
    2.2936    0.7313   -2.8475 C   0  0  0  0  0  0  0  0  0  0  0  0
    2.9168    0.3813   -0.4800 C   0  0  0  0  0  0  0  0  0  0  0  0
    3.1536    1.2483    0.5945 C   0  0  0  0  0  0  0  0  0  0  0  0
    4.5940    0.8108    1.3171 S   0  0  0  0  0  0  0  0  0  0  0  0
    4.8755   -0.4729    0.2667 C   0  0  0  0  0  0  0  0  0  0  0  0
    6.0485   -1.2851    0.2049 N   0  0  0  0  0  0  0  0  0  0  0  0
    7.1579   -1.2590    1.1136 C   0  0  0  0  0  0  0  0  0  0  0  0
    8.4050   -1.7285    0.6591 C   0  0  0  0  0  0  0  0  0  0  0  0
    9.5276   -1.7071    1.4929 C   0  0  0  0  0  0  0  0  0  0  0  0
    9.4198   -1.2316    2.8000 C   0  0  0  0  0  0  0  0  0  0  0  0
    8.1878   -0.7858    3.2772 C   0  0  0  0  0  0  0  0  0  0  0  0
    7.0637   -0.7990    2.4467 C   0  0  0  0  0  0  0  0  0  0  0  0
    3.8868   -0.5642   -0.6538 N   0  0  0  0  0  0  0  0  0  0  0  0
    0.9775   -0.6735   -1.4669 O   0  0  0  0  0  0  0  0  0  0  0  0
   -0.3406   -0.3947   -1.6044 C   0  0  0  0  0  0  0  0  0  0  0  0
   -1.1690   -1.2562   -1.8559 O   0  0  0  0  0  0  0  0  0  0  0  0
   -1.1799    1.6754   -2.7692 C   0  0  0  0  0  0  0  0  0  0  0  0
   -0.5663    1.7971   -3.8151 O   0  0  0  0  0  0  0  0  0  0  0  0
   -2.4813    2.0089   -2.6628 O   0  0  0  0  0  0  0  0  0  0  0  0
   -8.4893   -2.3284    2.1612 H   0  0  0  0  0  0  0  0  0  0  0  0
   -8.3601   -0.6308    2.7378 H   0  0  0  0  0  0  0  0  0  0  0  0
   -7.0284   -1.8033    3.0860 H   0  0  0  0  0  0  0  0  0  0  0  0
   -7.8986   -0.7942    0.3000 H   0  0  0  0  0  0  0  0  0  0  0  0
   -5.5480   -2.6392    1.1252 H   0  0  0  0  0  0  0  0  0  0  0  0
   -5.9363   -2.1074   -0.5577 H   0  0  0  0  0  0  0  0  0  0  0  0
   -7.0719   -3.1641    0.3103 H   0  0  0  0  0  0  0  0  0  0  0  0
   -5.3502   -0.1773    1.9624 H   0  0  0  0  0  0  0  0  0  0  0  0
   -6.7417    0.9407    1.7103 H   0  0  0  0  0  0  0  0  0  0  0  0
   -6.3691    0.9352   -0.7206 H   0  0  0  0  0  0  0  0  0  0  0  0
   -4.9413   -0.1789   -0.4861 H   0  0  0  0  0  0  0  0  0  0  0  0
   -3.8488    3.3264   -0.7473 H   0  0  0  0  0  0  0  0  0  0  0  0
   -4.9763    2.3920   -1.7385 H   0  0  0  0  0  0  0  0  0  0  0  0
   -3.3059    0.4368   -1.7426 H   0  0  0  0  0  0  0  0  0  0  0  0
   -1.9042    0.8096    0.3559 H   0  0  0  0  0  0  0  0  0  0  0  0
   -1.6312    2.4900   -0.2337 H   0  0  0  0  0  0  0  0  0  0  0  0
    0.6157    1.4435    0.1016 H   0  0  0  0  0  0  0  0  0  0  0  0
    0.9617    2.6372   -1.1797 H   0  0  0  0  0  0  0  0  0  0  0  0
    2.8415    1.6968   -2.8871 H   0  0  0  0  0  0  0  0  0  0  0  0
    1.5034    0.7330   -3.6151 H   0  0  0  0  0  0  0  0  0  0  0  0
    2.9910   -0.0865   -3.1308 H   0  0  0  0  0  0  0  0  0  0  0  0
    2.5524    2.0879    0.9124 H   0  0  0  0  0  0  0  0  0  0  0  0
    6.1478   -1.8577   -0.6469 H   0  0  0  0  0  0  0  0  0  0  0  0
    8.5130   -2.0954   -0.3540 H   0  0  0  0  0  0  0  0  0  0  0  0
   10.4829   -2.0567    1.1239 H   0  0  0  0  0  0  0  0  0  0  0  0
   10.2881   -1.2147    3.4456 H   0  0  0  0  0  0  0  0  0  0  0  0
    8.1009   -0.4306    4.2962 H   0  0  0  0  0  0  0  0  0  0  0  0
    6.1387   -0.4680    2.8798 H   0  0  0  0  0  0  0  0  0  0  0  0
  1  2  1  0  0  0  0
  1 32  1  0  0  0  0
  1 33  1  0  0  0  0
  1 34  1  0  0  0  0
  2  3  1  0  0  0  0
  2  4  1  0  0  0  0
  2 35  1  0  0  0  0
  3 36  1  0  0  0  0
  3 37  1  0  0  0  0
  3 38  1  0  0  0  0
  4  5  1  0  0  0  0
  4 39  1  0  0  0  0
  4 40  1  0  0  0  0
  5  6  1  0  0  0  0
  5 41  1  0  0  0  0
  5 42  1  0  0  0  0
  6  7  1  0  0  0  0
  7 43  1  0  0  0  0
  7 44  1  0  0  0  0
  8  7  1  0  0  0  0
  8  9  1  0  0  0  0
  8 45  1  6  0  0  0
  9 46  1  0  0  0  0
  9 47  1  0  0  0  0
 10  9  1  0  0  0  0
 10 11  1  0  0  0  0
 10 29  1  6  0  0  0
 11 12  1  0  0  0  0
 11 48  1  0  0  0  0
 11 49  1  0  0  0  0
 12 13  1  6  0  0  0
 12 14  1  0  0  0  0
 12 26  1  0  0  0  0
 13 50  1  0  0  0  0
 13 51  1  0  0  0  0
 13 52  1  0  0  0  0
 14 15  2  0  0  0  0
 15 16  1  0  0  0  0
 15 53  1  0  0  0  0
 16 17  1  0  0  0  0
 17 18  1  0  0  0  0
 17 25  2  0  0  0  0
 18 19  1  0  0  0  0
 18 54  1  0  0  0  0
 19 20  2  0  0  0  0
 20 21  1  0  0  0  0
 20 55  1  0  0  0  0
 21 22  2  0  0  0  0
 21 56  1  0  0  0  0
 22 23  1  0  0  0  0
 22 57  1  0  0  0  0
 23 24  2  0  0  0  0
 23 58  1  0  0  0  0
 24 19  1  0  0  0  0
 24 59  1  0  0  0  0
 25 14  1  0  0  0  0
 26 27  1  0  0  0  0
 27 28  2  0  0  0  0
 27 10  1  0  0  0  0
 29 30  2  0  0  0  0
 29 31  1  0  0  0  0
 31  8  1  0  0  0  0
M  END
>  <IDENTIFIER>
CNP0227305.3

>  <Energy>
699.582

$$$$
