
 OpenBabel09102506003D

115120  0  0  0  0  0  0  0  0999 V2000
    2.2946   -2.3945    2.4513 C   0  0  0  0  0  0  0  0  0  0  0  0
    1.6534   -2.0281    1.1030 C   0  0  0  0  0  0  0  0  0  0  0  0
    1.4493   -3.3049    0.2678 C   0  0  0  0  0  0  0  0  0  0  0  0
    2.5217   -0.9649    0.3672 C   0  0  2  0  0  0  0  0  0  0  0  0
    1.9390   -0.4949   -0.9906 C   0  0  0  0  0  0  0  0  0  0  0  0
    0.4837    0.0142   -0.9088 C   0  0  0  0  0  0  0  0  0  0  0  0
   -0.0787    0.5534   -2.2492 C   0  0  1  0  0  0  0  0  0  0  0  0
    0.0496   -0.4982   -3.3827 C   0  0  0  0  0  0  0  0  0  0  0  0
   -1.5271    1.1540   -2.0705 C   0  0  1  0  0  0  0  0  0  0  0  0
   -2.0873    1.8417   -3.3569 C   0  0  0  0  0  0  0  0  0  0  0  0
   -3.6131    1.6389   -3.3171 C   0  0  2  0  0  0  0  0  0  0  0  0
   -4.3172    2.7202   -3.8713 O   0  0  0  0  0  0  0  0  0  0  0  0
   -3.9069    1.3571   -1.8446 C   0  0  2  0  0  0  0  0  0  0  0  0
   -2.7514    0.3805   -1.4564 C   0  0  1  0  0  0  0  0  0  0  0  0
   -2.8450   -1.0493   -2.0716 C   0  0  0  0  0  0  0  0  0  0  0  0
   -2.7682    0.2779    0.0951 C   0  0  0  0  0  0  0  0  0  0  0  0
   -4.1366   -0.2190    0.6202 C   0  0  0  0  0  0  0  0  0  0  0  0
   -5.3105    0.7038    0.1631 C   0  0  1  0  0  0  0  0  0  0  0  0
   -5.3331    0.8711   -1.4127 C   0  0  2  0  0  0  0  0  0  0  0  0
   -5.6323   -0.3494   -2.0377 O   0  0  0  0  0  0  0  0  0  0  0  0
   -6.4236    1.9162   -1.7885 C   0  0  0  0  0  0  0  0  0  0  0  0
   -7.8214    1.5444   -1.2475 C   0  0  1  0  0  0  0  0  0  0  0  0
   -8.2893    0.3762   -1.8710 O   0  0  0  0  0  0  0  0  0  0  0  0
   -7.7749    1.4139    0.3055 C   0  0  1  0  0  0  0  0  0  0  0  0
   -7.3487    2.6651    0.8145 O   0  0  0  0  0  0  0  0  0  0  0  0
   -9.1813    1.1121    0.9034 C   0  0  0  0  0  0  0  0  0  0  0  0
   -9.1203    1.1150    2.4484 C   0  0  1  0  0  0  0  0  0  0  0  0
  -10.3857    0.8560    3.0000 O   0  0  0  0  0  0  0  0  0  0  0  0
   -8.0772    0.1177    2.9833 C   0  0  0  0  0  0  0  0  0  0  0  0
   -6.6920    0.3603    2.3426 C   0  0  0  0  0  0  0  0  0  0  0  0
   -6.7287    0.3117    0.7733 C   0  0  2  0  0  0  0  0  0  0  0  0
   -7.1209   -1.1535    0.3680 C   0  0  0  0  0  0  0  0  0  0  0  0
    3.8003   -1.5415    0.1484 O   0  0  0  0  0  0  0  0  0  0  0  0
    4.8623   -0.6033    0.1769 C   0  0  2  0  0  0  0  0  0  0  0  0
    5.1048   -0.1431   -1.1415 O   0  0  0  0  0  0  0  0  0  0  0  0
    6.1545   -0.9361   -1.6819 C   0  0  1  0  0  0  0  0  0  0  0  0
    7.3268   -0.0231   -2.0682 C   0  0  0  0  0  0  0  0  0  0  0  0
    8.3582   -0.7644   -2.6660 O   0  0  0  0  0  0  0  0  0  0  0  0
    6.5191   -2.0111   -0.6403 C   0  0  2  0  0  0  0  0  0  0  0  0
    5.6791   -3.1281   -0.8092 O   0  0  0  0  0  0  0  0  0  0  0  0
    6.1326   -1.3112    0.6396 C   0  0  1  0  0  0  0  0  0  0  0  0
    7.1137   -0.3367    0.9933 O   0  0  0  0  0  0  0  0  0  0  0  0
    7.6877   -0.5346    2.2884 C   0  0  2  0  0  0  0  0  0  0  0  0
    7.5459    0.6504    3.0532 O   0  0  0  0  0  0  0  0  0  0  0  0
    8.3127    1.7605    2.5754 C   0  0  0  0  0  0  0  0  0  0  0  0
    9.3690    1.4447    1.4799 C   0  0  1  0  0  0  0  0  0  0  0  0
   10.2172    2.5449    1.2619 O   0  0  0  0  0  0  0  0  0  0  0  0
   10.1441    0.1992    1.9199 C   0  0  2  0  0  0  0  0  0  0  0  0
   11.1610   -0.1539    1.0180 O   0  0  0  0  0  0  0  0  0  0  0  0
    9.1742   -0.9862    2.1740 C   0  0  1  0  0  0  0  0  0  0  0  0
    9.5906   -1.6934    3.3165 O   0  0  0  0  0  0  0  0  0  0  0  0
    1.6515   -3.1161    2.9987 H   0  0  0  0  0  0  0  0  0  0  0  0
    2.4095   -1.4873    3.0818 H   0  0  0  0  0  0  0  0  0  0  0  0
    3.2949   -2.8564    2.3056 H   0  0  0  0  0  0  0  0  0  0  0  0
    0.6564   -1.5958    1.3327 H   0  0  0  0  0  0  0  0  0  0  0  0
    2.4238   -3.7814    0.0277 H   0  0  0  0  0  0  0  0  0  0  0  0
    0.9155   -3.0827   -0.6782 H   0  0  0  0  0  0  0  0  0  0  0  0
    0.8285   -4.0333    0.8315 H   0  0  0  0  0  0  0  0  0  0  0  0
    2.5586   -0.0859    1.0525 H   0  0  0  0  0  0  0  0  0  0  0  0
    2.0005   -1.3468   -1.6953 H   0  0  0  0  0  0  0  0  0  0  0  0
    2.5789    0.3227   -1.3847 H   0  0  0  0  0  0  0  0  0  0  0  0
    0.4325    0.8251   -0.1494 H   0  0  0  0  0  0  0  0  0  0  0  0
   -0.1481   -0.8299   -0.5892 H   0  0  0  0  0  0  0  0  0  0  0  0
    0.5615    1.4085   -2.5625 H   0  0  0  0  0  0  0  0  0  0  0  0
   -0.4458   -1.4548   -3.1503 H   0  0  0  0  0  0  0  0  0  0  0  0
    1.1151   -0.7271   -3.5797 H   0  0  0  0  0  0  0  0  0  0  0  0
   -0.3338   -0.1281   -4.3491 H   0  0  0  0  0  0  0  0  0  0  0  0
   -1.3983    2.0022   -1.3557 H   0  0  0  0  0  0  0  0  0  0  0  0
   -1.7338    1.4614   -4.3325 H   0  0  0  0  0  0  0  0  0  0  0  0
   -1.8031    2.9169   -3.3033 H   0  0  0  0  0  0  0  0  0  0  0  0
   -3.8606    0.7272   -3.8963 H   0  0  0  0  0  0  0  0  0  0  0  0
   -4.1287    3.5171   -3.3102 H   0  0  0  0  0  0  0  0  0  0  0  0
   -3.7314    2.3233   -1.3096 H   0  0  0  0  0  0  0  0  0  0  0  0
   -3.7380   -1.6191   -1.7733 H   0  0  0  0  0  0  0  0  0  0  0  0
   -2.0083   -1.6666   -1.6947 H   0  0  0  0  0  0  0  0  0  0  0  0
   -2.8087   -1.0443   -3.1781 H   0  0  0  0  0  0  0  0  0  0  0  0
   -2.5861    1.2840    0.5348 H   0  0  0  0  0  0  0  0  0  0  0  0
   -1.9759   -0.3928    0.4752 H   0  0  0  0  0  0  0  0  0  0  0  0
   -4.0665   -0.2303    1.7259 H   0  0  0  0  0  0  0  0  0  0  0  0
   -4.3057   -1.2603    0.2922 H   0  0  0  0  0  0  0  0  0  0  0  0
   -5.0633    1.7082    0.5777 H   0  0  0  0  0  0  0  0  0  0  0  0
   -5.7520   -0.1884   -3.0094 H   0  0  0  0  0  0  0  0  0  0  0  0
   -6.4942    2.0329   -2.8901 H   0  0  0  0  0  0  0  0  0  0  0  0
   -6.1329    2.9057   -1.3723 H   0  0  0  0  0  0  0  0  0  0  0  0
   -8.4979    2.3884   -1.5265 H   0  0  0  0  0  0  0  0  0  0  0  0
   -9.2801    0.4297   -1.8940 H   0  0  0  0  0  0  0  0  0  0  0  0
   -8.0199    3.3543    0.5652 H   0  0  0  0  0  0  0  0  0  0  0  0
   -9.5710    0.1422    0.5341 H   0  0  0  0  0  0  0  0  0  0  0  0
   -9.9053    1.8912    0.5784 H   0  0  0  0  0  0  0  0  0  0  0  0
   -8.8155    2.1311    2.7799 H   0  0  0  0  0  0  0  0  0  0  0  0
  -10.6646   -0.0490    2.6964 H   0  0  0  0  0  0  0  0  0  0  0  0
   -8.4146   -0.9193    2.7895 H   0  0  0  0  0  0  0  0  0  0  0  0
   -7.9980    0.2206    4.0870 H   0  0  0  0  0  0  0  0  0  0  0  0
   -5.9955   -0.3979    2.7547 H   0  0  0  0  0  0  0  0  0  0  0  0
   -6.3293    1.3573    2.6760 H   0  0  0  0  0  0  0  0  0  0  0  0
   -6.3938   -1.8797    0.7841 H   0  0  0  0  0  0  0  0  0  0  0  0
   -7.1805   -1.3447   -0.7093 H   0  0  0  0  0  0  0  0  0  0  0  0
   -8.1066   -1.4670    0.7490 H   0  0  0  0  0  0  0  0  0  0  0  0
    4.6739    0.2350    0.8858 H   0  0  0  0  0  0  0  0  0  0  0  0
    5.8232   -1.4302   -2.6222 H   0  0  0  0  0  0  0  0  0  0  0  0
    7.7031    0.5621   -1.2105 H   0  0  0  0  0  0  0  0  0  0  0  0
    6.9711    0.7243   -2.8089 H   0  0  0  0  0  0  0  0  0  0  0  0
    9.0018   -0.9997   -1.9484 H   0  0  0  0  0  0  0  0  0  0  0  0
    7.5721   -2.3721   -0.6491 H   0  0  0  0  0  0  0  0  0  0  0  0
    5.9992   -3.6071   -1.6180 H   0  0  0  0  0  0  0  0  0  0  0  0
    5.9104   -2.0406    1.4504 H   0  0  0  0  0  0  0  0  0  0  0  0
    7.1773   -1.3367    2.8638 H   0  0  0  0  0  0  0  0  0  0  0  0
    8.8565    2.1545    3.4612 H   0  0  0  0  0  0  0  0  0  0  0  0
    7.6330    2.5604    2.2136 H   0  0  0  0  0  0  0  0  0  0  0  0
    8.8652    1.2295    0.5232 H   0  0  0  0  0  0  0  0  0  0  0  0
   10.7051    2.7272    2.1073 H   0  0  0  0  0  0  0  0  0  0  0  0
   10.6237    0.4816    2.8839 H   0  0  0  0  0  0  0  0  0  0  0  0
   10.7310   -0.3045    0.1350 H   0  0  0  0  0  0  0  0  0  0  0  0
    9.1925   -1.7024    1.3240 H   0  0  0  0  0  0  0  0  0  0  0  0
    9.4053   -1.1197    4.1064 H   0  0  0  0  0  0  0  0  0  0  0  0
  1  2  1  0  0  0  0
  1 52  1  0  0  0  0
  1 53  1  0  0  0  0
  1 54  1  0  0  0  0
  2  3  1  0  0  0  0
  2  4  1  0  0  0  0
  2 55  1  0  0  0  0
  3 56  1  0  0  0  0
  3 57  1  0  0  0  0
  3 58  1  0  0  0  0
  4  5  1  0  0  0  0
  4 33  1  0  0  0  0
  4 59  1  1  0  0  0
  5  6  1  0  0  0  0
  5 60  1  0  0  0  0
  5 61  1  0  0  0  0
  6  7  1  0  0  0  0
  6 62  1  0  0  0  0
  6 63  1  0  0  0  0
  7  8  1  0  0  0  0
  7  9  1  0  0  0  0
  7 64  1  6  0  0  0
  8 65  1  0  0  0  0
  8 66  1  0  0  0  0
  8 67  1  0  0  0  0
  9 10  1  0  0  0  0
  9 68  1  1  0  0  0
 10 11  1  0  0  0  0
 10 69  1  0  0  0  0
 10 70  1  0  0  0  0
 11 12  1  0  0  0  0
 11 71  1  6  0  0  0
 12 72  1  0  0  0  0
 13 11  1  0  0  0  0
 13 14  1  0  0  0  0
 13 73  1  1  0  0  0
 14 15  1  6  0  0  0
 14 16  1  0  0  0  0
 14  9  1  0  0  0  0
 15 74  1  0  0  0  0
 15 75  1  0  0  0  0
 15 76  1  0  0  0  0
 16 17  1  0  0  0  0
 16 77  1  0  0  0  0
 16 78  1  0  0  0  0
 17 79  1  0  0  0  0
 17 80  1  0  0  0  0
 18 17  1  0  0  0  0
 18 19  1  0  0  0  0
 18 81  1  1  0  0  0
 19 20  1  6  0  0  0
 19 21  1  0  0  0  0
 19 13  1  0  0  0  0
 20 82  1  0  0  0  0
 21 22  1  0  0  0  0
 21 83  1  0  0  0  0
 21 84  1  0  0  0  0
 22 23  1  0  0  0  0
 22 24  1  0  0  0  0
 22 85  1  6  0  0  0
 23 86  1  0  0  0  0
 24 25  1  1  0  0  0
 24 26  1  0  0  0  0
 25 87  1  0  0  0  0
 26 27  1  0  0  0  0
 26 88  1  0  0  0  0
 26 89  1  0  0  0  0
 27 28  1  0  0  0  0
 27 29  1  0  0  0  0
 27 90  1  1  0  0  0
 28 91  1  0  0  0  0
 29 30  1  0  0  0  0
 29 92  1  0  0  0  0
 29 93  1  0  0  0  0
 30 31  1  0  0  0  0
 30 94  1  0  0  0  0
 30 95  1  0  0  0  0
 31 32  1  6  0  0  0
 31 18  1  0  0  0  0
 31 24  1  0  0  0  0
 32 96  1  0  0  0  0
 32 97  1  0  0  0  0
 32 98  1  0  0  0  0
 34 33  1  0  0  0  0
 34 35  1  0  0  0  0
 34 99  1  1  0  0  0
 35 36  1  0  0  0  0
 36 37  1  0  0  0  0
 36 39  1  0  0  0  0
 36100  1  6  0  0  0
 37 38  1  0  0  0  0
 37101  1  0  0  0  0
 37102  1  0  0  0  0
 38103  1  0  0  0  0
 39 40  1  0  0  0  0
 39 41  1  0  0  0  0
 39104  1  6  0  0  0
 40105  1  0  0  0  0
 41 42  1  0  0  0  0
 41 34  1  0  0  0  0
 41106  1  1  0  0  0
 43 42  1  0  0  0  0
 43 44  1  0  0  0  0
 43107  1  1  0  0  0
 44 45  1  0  0  0  0
 45 46  1  0  0  0  0
 45108  1  0  0  0  0
 45109  1  0  0  0  0
 46 47  1  0  0  0  0
 46 48  1  0  0  0  0
 46110  1  6  0  0  0
 47111  1  0  0  0  0
 48 49  1  0  0  0  0
 48 50  1  0  0  0  0
 48112  1  1  0  0  0
 49113  1  0  0  0  0
 50 51  1  0  0  0  0
 50 43  1  0  0  0  0
 50114  1  6  0  0  0
 51115  1  0  0  0  0
M  END
>  <IDENTIFIER>
CNP0433073.1

>  <Energy>
1316.3

$$$$
