
 OpenBabel09062515333D

 49 51  0  0  0  0  0  0  0  0999 V2000
   -4.6500    2.0647    0.8743 C   0  0  0  0  0  0  0  0  0  0  0  0
   -3.3261    1.9197    0.7542 C   0  0  0  0  0  0  0  0  0  0  0  0
   -2.3277    2.9409    0.9470 C   0  0  0  0  0  0  0  0  0  0  0  0
   -2.5510    4.1009    1.2547 O   0  0  0  0  0  0  0  0  0  0  0  0
   -1.0975    2.4653    0.7094 O   0  0  0  0  0  0  0  0  0  0  0  0
   -1.0990    1.0961    0.4850 C   0  0  1  0  0  0  0  0  0  0  0  0
   -2.5865    0.7069    0.3053 C   0  0  1  0  0  0  0  0  0  0  0  0
   -2.9534   -0.5844    1.0278 C   0  0  0  0  0  0  0  0  0  0  0  0
   -1.9552   -1.7363    0.8023 C   0  0  0  0  0  0  0  0  0  0  0  0
   -1.3482   -1.8723   -0.6339 C   0  0  1  0  0  0  0  0  0  0  0  0
   -0.9045   -3.3545   -0.8147 C   0  0  0  0  0  0  0  0  0  0  0  0
   -2.3532   -1.6215   -1.5926 O   0  0  0  0  0  0  0  0  0  0  0  0
   -0.1048   -0.8885   -0.9323 C   0  0  2  0  0  0  0  0  0  0  0  0
    0.1585   -1.0605   -2.3130 O   0  0  0  0  0  0  0  0  0  0  0  0
    1.2534   -1.1335   -0.1223 C   0  0  2  0  0  0  0  0  0  0  0  0
    1.1639   -1.9977    0.9869 O   0  0  0  0  0  0  0  0  0  0  0  0
    1.8272    0.2592    0.2574 C   0  0  1  0  0  0  0  0  0  0  0  0
    3.2136    0.2836    0.2354 O   0  0  0  0  0  0  0  0  0  0  0  0
    4.0212    0.6285    1.2714 C   0  0  0  0  0  0  0  0  0  0  0  0
    5.5019    0.6482    1.0692 C   0  0  0  0  0  0  0  0  0  0  0  0
    3.5592    0.9334    2.3617 O   0  0  0  0  0  0  0  0  0  0  0  0
    1.1963    1.2187   -0.7544 C   0  0  2  0  0  0  0  0  0  0  0  0
    1.9146    1.1751   -2.1312 C   0  0  0  0  0  0  0  0  0  0  0  0
    1.2402    2.5552   -0.3114 O   0  0  0  0  0  0  0  0  0  0  0  0
   -0.2802    0.6775   -0.7852 C   0  0  2  0  0  0  0  0  0  0  0  0
   -5.0767    3.0151    1.1787 H   0  0  0  0  0  0  0  0  0  0  0  0
   -5.3168    1.2336    0.6676 H   0  0  0  0  0  0  0  0  0  0  0  0
   -0.6952    0.6518    1.4178 H   0  0  0  0  0  0  0  0  0  0  0  0
   -2.8422    0.6143   -0.7722 H   0  0  0  0  0  0  0  0  0  0  0  0
   -3.9595   -0.8760    0.6528 H   0  0  0  0  0  0  0  0  0  0  0  0
   -3.0369   -0.4293    2.1263 H   0  0  0  0  0  0  0  0  0  0  0  0
   -2.5272   -2.6498    1.0795 H   0  0  0  0  0  0  0  0  0  0  0  0
   -1.1406   -1.6690    1.5387 H   0  0  0  0  0  0  0  0  0  0  0  0
   -1.7667   -4.0366   -0.6513 H   0  0  0  0  0  0  0  0  0  0  0  0
   -0.1187   -3.6597   -0.1002 H   0  0  0  0  0  0  0  0  0  0  0  0
   -0.5489   -3.5610   -1.8429 H   0  0  0  0  0  0  0  0  0  0  0  0
   -3.1145   -2.2370   -1.4209 H   0  0  0  0  0  0  0  0  0  0  0  0
    0.6725   -1.8932   -2.4675 H   0  0  0  0  0  0  0  0  0  0  0  0
    1.9839   -1.6041   -0.8146 H   0  0  0  0  0  0  0  0  0  0  0  0
    1.0456   -1.4727    1.8189 H   0  0  0  0  0  0  0  0  0  0  0  0
    1.4369    0.5635    1.2507 H   0  0  0  0  0  0  0  0  0  0  0  0
    5.7519    0.3510    0.0287 H   0  0  0  0  0  0  0  0  0  0  0  0
    5.9871   -0.0598    1.7729 H   0  0  0  0  0  0  0  0  0  0  0  0
    5.8900    1.6723    1.2521 H   0  0  0  0  0  0  0  0  0  0  0  0
    2.9321    1.6101   -2.0338 H   0  0  0  0  0  0  0  0  0  0  0  0
    1.3542    1.7878   -2.8686 H   0  0  0  0  0  0  0  0  0  0  0  0
    2.0724    0.1637   -2.5420 H   0  0  0  0  0  0  0  0  0  0  0  0
    2.1751    2.7603   -0.0463 H   0  0  0  0  0  0  0  0  0  0  0  0
   -0.8210    1.1261   -1.6495 H   0  0  0  0  0  0  0  0  0  0  0  0
  1  2  2  0  0  0  0
  1 26  1  0  0  0  0
  1 27  1  0  0  0  0
  2  3  1  0  0  0  0
  3  4  2  0  0  0  0
  3  5  1  0  0  0  0
  6  5  1  0  0  0  0
  6  7  1  0  0  0  0
  6 28  1  1  0  0  0
  7  8  1  0  0  0  0
  7  2  1  0  0  0  0
  7 29  1  6  0  0  0
  8  9  1  0  0  0  0
  8 30  1  0  0  0  0
  8 31  1  0  0  0  0
  9 10  1  0  0  0  0
  9 32  1  0  0  0  0
  9 33  1  0  0  0  0
 10 11  1  0  0  0  0
 10 12  1  6  0  0  0
 10 13  1  0  0  0  0
 11 34  1  0  0  0  0
 11 35  1  0  0  0  0
 11 36  1  0  0  0  0
 12 37  1  0  0  0  0
 13 14  1  6  0  0  0
 13 15  1  0  0  0  0
 14 38  1  0  0  0  0
 15 16  1  0  0  0  0
 15 17  1  0  0  0  0
 15 39  1  6  0  0  0
 16 40  1  0  0  0  0
 17 18  1  0  0  0  0
 17 22  1  0  0  0  0
 17 41  1  1  0  0  0
 18 19  1  0  0  0  0
 19 20  1  0  0  0  0
 19 21  2  0  0  0  0
 20 42  1  0  0  0  0
 20 43  1  0  0  0  0
 20 44  1  0  0  0  0
 22 23  1  0  0  0  0
 22 24  1  1  0  0  0
 23 45  1  0  0  0  0
 23 46  1  0  0  0  0
 23 47  1  0  0  0  0
 24 48  1  0  0  0  0
 25 22  1  0  0  0  0
 25 13  1  0  0  0  0
 25  6  1  0  0  0  0
 25 49  1  6  0  0  0
M  END
>  <IDENTIFIER>
CNP0115362.1

>  <Energy>
763.542

$$$$
