
 OpenBabel09132509523D

 52 53  0  0  0  0  0  0  0  0999 V2000
    1.9188    0.7617   -1.9815 C   0  0  0  0  0  0  0  0  0  0  0  0
    1.1533    0.8607   -0.8775 C   0  0  0  0  0  0  0  0  0  0  0  0
    1.7642    0.9352    0.5228 C   0  0  0  0  0  0  0  0  0  0  0  0
    3.1412    0.8004    0.5598 O   0  0  0  0  0  0  0  0  0  0  0  0
    3.8190   -0.3617    0.3612 C   0  0  0  0  0  0  0  0  0  0  0  0
    3.2005   -1.3738    0.0695 O   0  0  0  0  0  0  0  0  0  0  0  0
    5.3078   -0.3762    0.5429 C   0  0  0  0  0  0  0  0  0  0  0  0
    5.9907    0.9178    0.9305 C   0  0  0  0  0  0  0  0  0  0  0  0
    6.1165   -1.4603    0.4008 C   0  0  0  0  0  0  0  0  0  0  0  0
    5.7436   -2.8734    0.0322 C   0  0  0  0  0  0  0  0  0  0  0  0
   -0.3672    0.9158   -1.0310 C   0  0  2  0  0  0  0  0  0  0  0  0
   -0.9374    2.2321   -0.4537 C   0  0  0  0  0  0  0  0  0  0  0  0
   -2.4748    2.2611   -0.5449 C   0  0  0  0  0  0  0  0  0  0  0  0
   -3.1192    1.0351    0.1615 C   0  0  1  0  0  0  0  0  0  0  0  0
   -2.8228    1.0850    1.6948 C   0  0  0  0  0  0  0  0  0  0  0  0
   -4.6457    1.0472   -0.0602 C   0  0  0  0  0  0  0  0  0  0  0  0
   -5.3251   -0.1560    0.6177 C   0  0  0  0  0  0  0  0  0  0  0  0
   -4.5635   -1.4496    0.4287 C   0  0  0  0  0  0  0  0  0  0  0  0
   -3.3136   -1.5202   -0.0911 C   0  0  0  0  0  0  0  0  0  0  0  0
   -2.6821   -2.8771   -0.2950 C   0  0  0  0  0  0  0  0  0  0  0  0
   -2.5696   -0.2570   -0.5324 C   0  0  2  0  0  0  0  0  0  0  0  0
   -1.0292   -0.3314   -0.3909 C   0  0  0  0  0  0  0  0  0  0  0  0
    3.0007    0.7333   -1.9338 H   0  0  0  0  0  0  0  0  0  0  0  0
    1.4726    0.7136   -2.9702 H   0  0  0  0  0  0  0  0  0  0  0  0
    1.3238    0.1644    1.1877 H   0  0  0  0  0  0  0  0  0  0  0  0
    1.5177    1.9256    0.9530 H   0  0  0  0  0  0  0  0  0  0  0  0
    5.2850    1.7661    1.0355 H   0  0  0  0  0  0  0  0  0  0  0  0
    6.7393    1.1941    0.1583 H   0  0  0  0  0  0  0  0  0  0  0  0
    6.5087    0.7894    1.9058 H   0  0  0  0  0  0  0  0  0  0  0  0
    7.1820   -1.3201    0.5721 H   0  0  0  0  0  0  0  0  0  0  0  0
    4.6770   -3.0608   -0.1547 H   0  0  0  0  0  0  0  0  0  0  0  0
    6.0602   -3.5495    0.8536 H   0  0  0  0  0  0  0  0  0  0  0  0
    6.2949   -3.1565   -0.8881 H   0  0  0  0  0  0  0  0  0  0  0  0
   -0.6387    0.8947   -2.1120 H   0  0  0  0  0  0  0  0  0  0  0  0
   -0.5189    3.0966   -1.0137 H   0  0  0  0  0  0  0  0  0  0  0  0
   -0.6404    2.3613    0.6025 H   0  0  0  0  0  0  0  0  0  0  0  0
   -2.7569    2.2556   -1.6218 H   0  0  0  0  0  0  0  0  0  0  0  0
   -2.8544    3.2088   -0.1041 H   0  0  0  0  0  0  0  0  0  0  0  0
   -3.2663    2.0021    2.1377 H   0  0  0  0  0  0  0  0  0  0  0  0
   -1.7455    1.0920    1.9381 H   0  0  0  0  0  0  0  0  0  0  0  0
   -3.2324    0.2063    2.2301 H   0  0  0  0  0  0  0  0  0  0  0  0
   -4.8333    0.9823   -1.1557 H   0  0  0  0  0  0  0  0  0  0  0  0
   -5.1169    1.9866    0.3035 H   0  0  0  0  0  0  0  0  0  0  0  0
   -6.3503   -0.2465    0.2007 H   0  0  0  0  0  0  0  0  0  0  0  0
   -5.4278    0.0090    1.7111 H   0  0  0  0  0  0  0  0  0  0  0  0
   -5.0643   -2.3581    0.7511 H   0  0  0  0  0  0  0  0  0  0  0  0
   -3.3484   -3.7050    0.0292 H   0  0  0  0  0  0  0  0  0  0  0  0
   -1.7416   -2.9531    0.2881 H   0  0  0  0  0  0  0  0  0  0  0  0
   -2.4592   -3.0186   -1.3736 H   0  0  0  0  0  0  0  0  0  0  0  0
   -2.7696   -0.1930   -1.6270 H   0  0  0  0  0  0  0  0  0  0  0  0
   -0.6391   -1.2248   -0.9246 H   0  0  0  0  0  0  0  0  0  0  0  0
   -0.7627   -0.4394    0.6776 H   0  0  0  0  0  0  0  0  0  0  0  0
  1  2  2  0  0  0  0
  1 23  1  0  0  0  0
  1 24  1  0  0  0  0
  2  3  1  0  0  0  0
  3  4  1  0  0  0  0
  3 25  1  0  0  0  0
  3 26  1  0  0  0  0
  4  5  1  0  0  0  0
  5  6  2  0  0  0  0
  5  7  1  0  0  0  0
  7  8  1  0  0  0  0
  7  9  2  0  0  0  0
  8 27  1  0  0  0  0
  8 28  1  0  0  0  0
  8 29  1  0  0  0  0
  9 10  1  0  0  0  0
  9 30  1  0  0  0  0
 10 31  1  0  0  0  0
 10 32  1  0  0  0  0
 10 33  1  0  0  0  0
 11  2  1  0  0  0  0
 11 12  1  0  0  0  0
 11 34  1  6  0  0  0
 12 13  1  0  0  0  0
 12 35  1  0  0  0  0
 12 36  1  0  0  0  0
 13 14  1  0  0  0  0
 13 37  1  0  0  0  0
 13 38  1  0  0  0  0
 14 15  1  1  0  0  0
 14 16  1  0  0  0  0
 15 39  1  0  0  0  0
 15 40  1  0  0  0  0
 15 41  1  0  0  0  0
 16 17  1  0  0  0  0
 16 42  1  0  0  0  0
 16 43  1  0  0  0  0
 17 18  1  0  0  0  0
 17 44  1  0  0  0  0
 17 45  1  0  0  0  0
 18 19  2  0  0  0  0
 18 46  1  0  0  0  0
 19 20  1  0  0  0  0
 19 21  1  0  0  0  0
 20 47  1  0  0  0  0
 20 48  1  0  0  0  0
 20 49  1  0  0  0  0
 21 22  1  0  0  0  0
 21 14  1  0  0  0  0
 21 50  1  6  0  0  0
 22 11  1  0  0  0  0
 22 51  1  0  0  0  0
 22 52  1  0  0  0  0
M  END
>  <IDENTIFIER>
CNP0246615.1

>  <Energy>
281.57

$$$$
