
 OpenBabel09052508082D

163162  0  0  0  0  0  0  0  0999 V2000
   -4.5000   -7.7942    0.0000 C   0  0  0  0  0  0  0  0  0  0  0  0
   -3.7500   -6.4952    0.0000 C   0  0  0  0  0  0  0  0  0  0  0  0
   -3.0000   -5.1962    0.0000 C   0  0  0  0  0  0  0  0  0  0  0  0
   -2.9333   -3.6539    0.0190 C   0  0  0  0  0  0  0  0  0  0  0  0
   -1.3907   -3.2028   -0.0444 C   0  0  0  0  0  0  0  0  0  0  0  0
   -1.2370   -1.6784   -0.0284 C   0  0  0  0  0  0  0  0  0  0  0  0
    0.0728   -0.8593   -0.1551 C   0  0  0  0  0  0  0  0  0  0  0  0
    1.4535   -0.8616   -0.2742 C   0  0  0  0  0  0  0  0  0  0  0  0
    2.7612   -1.6885   -0.3527 C   0  0  0  0  0  0  0  0  0  0  0  0
    2.9123   -3.1977   -0.1496 C   0  0  0  0  0  0  0  0  0  0  0  0
    4.4349   -3.6872   -0.3209 C   0  0  0  0  0  0  0  0  0  0  0  0
    4.5000   -5.1962    0.0000 C   0  0  0  0  0  0  0  0  0  0  0  0
    5.2500   -6.4952    0.0000 C   0  0  0  0  0  0  0  0  0  0  0  0
    6.0000   -7.7942    0.0000 C   0  0  0  0  0  0  0  0  0  0  0  0
    6.7500   -9.0933    0.0000 C   0  0  0  0  0  0  0  0  0  0  0  0
    7.5000  -10.3923    0.0000 C   0  0  0  0  0  0  0  0  0  0  0  0
    8.2500  -11.6913    0.0000 C   0  0  0  0  0  0  0  0  0  0  0  0
    7.9730  -13.2188    0.3886 C   0  0  0  0  0  0  0  0  0  0  0  0
    6.8923  -13.4973    0.8838 O   0  0  0  0  0  0  0  0  0  0  0  0
    8.9526  -14.2504    0.2059 O   0  0  0  0  0  0  0  0  0  0  0  0
    8.9778  -15.5817    0.7835 C   0  0  0  0  0  0  0  0  0  0  0  0
    9.7500  -16.8875    0.0000 C   0  0  1  0  0  0  0  0  0  0  0  0
    8.4510  -17.6375    0.0000 C   0  0  0  0  0  0  0  0  0  0  0  0
    7.0404  -17.4632   -0.2559 O   0  0  0  0  0  0  0  0  0  0  0  0
    6.1042  -18.5579   -0.2808 C   0  0  0  0  0  0  0  0  0  0  0  0
    6.5099  -19.6882   -0.5003 O   0  0  0  0  0  0  0  0  0  0  0  0
    4.5538  -18.3875   -0.0000 C   0  0  0  0  0  0  0  0  0  0  0  0
    3.2548  -19.1375    0.0000 C   0  0  0  0  0  2  0  0  0  0  0  0
    1.9558  -19.8875   -0.0000 C   0  0  0  0  0  0  0  0  0  0  0  0
    0.6567  -20.6375   -0.0000 C   0  0  0  0  0  0  0  0  0  0  0  0
   -0.6423  -21.3875    0.0000 C   0  0  0  0  0  2  0  0  0  0  0  0
   -1.9413  -22.1375   -0.0000 C   0  0  0  0  0  0  0  0  0  0  0  0
   -2.1166  -23.5081   -0.7196 C   0  0  0  0  0  0  0  0  0  0  0  0
   -3.5376  -24.0896   -0.4197 C   0  0  0  0  0  0  0  0  0  0  0  0
   -4.0366  -25.3132    0.0197 C   0  0  0  0  0  0  0  0  0  0  0  0
   -3.3870  -26.6877    0.3453 C   0  0  0  0  0  0  0  0  0  0  0  0
   -1.9413  -26.6375    0.0000 C   0  0  0  0  0  0  0  0  0  0  0  0
   -0.6423  -27.3875   -0.0000 C   0  0  0  0  0  2  0  0  0  0  0  0
    0.6567  -28.1375    0.0000 C   0  0  0  0  0  0  0  0  0  0  0  0
    1.7673  -27.2673    0.5902 C   0  0  0  0  0  0  0  0  0  0  0  0
    3.1050  -28.0012    0.5771 C   0  0  0  0  0  0  0  0  0  0  0  0
   11.0490  -16.1375    0.0000 O   0  0  0  0  0  0  0  0  0  0  0  0
   12.4234  -16.3042    0.0775 C   0  0  0  0  0  0  0  0  0  0  0  0
   12.8715  -17.3689    0.4728 O   0  0  0  0  0  0  0  0  0  0  0  0
   13.4200  -15.1150   -0.3387 C   0  0  0  0  0  0  0  0  0  0  0  0
   14.9462  -15.3875    0.0000 C   0  0  0  0  0  0  0  0  0  0  0  0
   16.2452  -14.6375    0.0000 C   0  0  0  0  0  0  0  0  0  0  0  0
   17.5442  -13.8875    0.0000 C   0  0  0  0  0  0  0  0  0  0  0  0
   18.8433  -13.1375    0.0000 C   0  0  0  0  0  0  0  0  0  0  0  0
   20.1423  -12.3875    0.0000 C   0  0  0  0  0  2  0  0  0  0  0  0
   21.4413  -11.6375    0.0000 C   0  0  0  0  0  0  0  0  0  0  0  0
   23.0866  -11.2928   -0.0001 C   0  0  0  0  0  0  0  0  0  0  0  0
   23.6885   -9.7015    0.0000 C   0  0  0  0  0  0  0  0  0  0  0  0
   25.3385   -9.3875    0.0000 C   0  0  0  0  0  0  0  0  0  0  0  0
   26.6375   -8.6375    0.0000 C   0  0  0  0  0  0  0  0  0  0  0  0
   27.9365   -7.8875    0.0000 C   0  0  0  0  0  0  0  0  0  0  0  0
   27.9365   -6.3875    0.0000 C   0  0  0  0  0  0  0  0  0  0  0  0
   26.6375   -5.6375    0.0000 C   0  0  0  0  0  2  0  0  0  0  0  0
   25.3385   -4.8875    0.0000 C   0  0  0  0  0  0  0  0  0  0  0  0
   23.6944   -4.5424    0.0493 C   0  0  0  0  0  0  0  0  0  0  0  0
   23.0901   -2.9552   -0.0560 C   0  0  0  0  0  0  0  0  0  0  0  0
   21.4413   -2.6375    0.0000 C   0  0  0  0  0  0  0  0  0  0  0  0
   20.1423   -1.8875    0.0000 C   0  0  0  0  0  0  0  0  0  0  0  0
   18.8433   -1.1375    0.0000 C   0  0  0  0  0  0  0  0  0  0  0  0
   17.5442   -0.3875    0.0000 C   0  0  0  0  0  0  0  0  0  0  0  0
   -5.6101   -7.6639    0.0181 H   0  0  0  0  0  0  0  0  0  0  0  0
   -4.2053   -8.4009    0.8851 H   0  0  0  0  0  0  0  0  0  0  0  0
   -4.2319   -8.3845   -0.9044 H   0  0  0  0  0  0  0  0  0  0  0  0
   -4.3256   -6.1587   -0.8987 H   0  0  0  0  0  0  0  0  0  0  0  0
   -4.2868   -6.1796    0.9295 H   0  0  0  0  0  0  0  0  0  0  0  0
   -2.3226   -5.4117    0.8628 H   0  0  0  0  0  0  0  0  0  0  0  0
   -2.3686   -5.3907   -0.9019 H   0  0  0  0  0  0  0  0  0  0  0  0
   -3.4825   -3.2497   -0.8583 H   0  0  0  0  0  0  0  0  0  0  0  0
   -3.4075   -3.2736    0.9491 H   0  0  0  0  0  0  0  0  0  0  0  0
   -0.9294   -3.5848   -0.9806 H   0  0  0  0  0  0  0  0  0  0  0  0
   -0.8307   -3.6188    0.8209 H   0  0  0  0  0  0  0  0  0  0  0  0
   -1.7215   -1.3309    0.9104 H   0  0  0  0  0  0  0  0  0  0  0  0
   -1.8672   -1.3216   -0.8729 H   0  0  0  0  0  0  0  0  0  0  0  0
   -0.2683    0.1780   -0.1551 H   0  0  0  0  0  0  0  0  0  0  0  0
    1.7926    0.1731   -0.3555 H   0  0  0  0  0  0  0  0  0  0  0  0
    3.2040   -1.4524   -1.3444 H   0  0  0  0  0  0  0  0  0  0  0  0
    3.4287   -1.2400    0.4169 H   0  0  0  0  0  0  0  0  0  0  0  0
    2.5492   -3.4379    0.8734 H   0  0  0  0  0  0  0  0  0  0  0  0
    2.2630   -3.7190   -0.8858 H   0  0  0  0  0  0  0  0  0  0  0  0
    5.1138   -3.1386    0.3670 H   0  0  0  0  0  0  0  0  0  0  0  0
    4.7575   -3.5088   -1.3687 H   0  0  0  0  0  0  0  0  0  0  0  0
    3.6221   -5.5393   -0.6053 H   0  0  0  0  0  0  0  0  0  0  0  0
    4.0945   -5.2020    1.0439 H   0  0  0  0  0  0  0  0  0  0  0  0
    6.0168   -5.8797    0.5724 H   0  0  0  0  0  0  0  0  0  0  0  0
    5.4008   -6.4094   -1.1109 H   0  0  0  0  0  0  0  0  0  0  0  0
    5.9168   -7.8178    1.1295 H   0  0  0  0  0  0  0  0  0  0  0  0
    7.0108   -7.3216   -0.2456 H   0  0  0  0  0  0  0  0  0  0  0  0
    6.8252   -9.0696   -1.1299 H   0  0  0  0  0  0  0  0  0  0  0  0
    5.7450   -9.5697    0.2600 H   0  0  0  0  0  0  0  0  0  0  0  0
    7.3849  -10.4729    1.1121 H   0  0  0  0  0  0  0  0  0  0  0  0
    6.7314  -11.0061   -0.5705 H   0  0  0  0  0  0  0  0  0  0  0  0
    9.1747  -11.4703    0.5845 H   0  0  0  0  0  0  0  0  0  0  0  0
    8.6305  -11.7754   -1.0473 H   0  0  0  0  0  0  0  0  0  0  0  0
    7.9570  -15.7480    1.2126 H   0  0  0  0  0  0  0  0  0  0  0  0
    9.5203  -15.4843    1.7504 H   0  0  0  0  0  0  0  0  0  0  0  0
    9.5804  -16.7183   -1.0891 H   0  0  0  0  0  0  0  0  0  0  0  0
    8.7240  -18.5408   -0.6012 H   0  0  0  0  0  0  0  0  0  0  0  0
    8.4631  -18.0732    1.0271 H   0  0  0  0  0  0  0  0  0  0  0  0
    4.2956  -17.5436   -0.6726 H   0  0  0  0  0  0  0  0  0  0  0  0
    4.5586  -17.9544    1.0216 H   0  0  0  0  0  0  0  0  0  0  0  0
    2.3163  -20.4075    0.9217 H   0  0  0  0  0  0  0  0  0  0  0  0
    2.3342  -20.4769   -0.8689 H   0  0  0  0  0  0  0  0  0  0  0  0
    0.2962  -20.1176    0.9217 H   0  0  0  0  0  0  0  0  0  0  0  0
    0.2783  -20.0482   -0.8689 H   0  0  0  0  0  0  0  0  0  0  0  0
   -2.1595  -22.3098    1.0756 H   0  0  0  0  0  0  0  0  0  0  0  0
   -2.7206  -21.4437   -0.3814 H   0  0  0  0  0  0  0  0  0  0  0  0
   -1.2768  -24.1592   -0.4499 H   0  0  0  0  0  0  0  0  0  0  0  0
   -2.0370  -23.3170   -1.8105 H   0  0  0  0  0  0  0  0  0  0  0  0
   -4.3157  -23.3518   -0.5999 H   0  0  0  0  0  0  0  0  0  0  0  0
   -5.1154  -25.3382    0.1479 H   0  0  0  0  0  0  0  0  0  0  0  0
   -3.5354  -26.9384    1.4179 H   0  0  0  0  0  0  0  0  0  0  0  0
   -3.8688  -27.4715   -0.2768 H   0  0  0  0  0  0  0  0  0  0  0  0
   -1.9438  -26.2964   -1.0589 H   0  0  0  0  0  0  0  0  0  0  0  0
   -1.6072  -25.8338    0.6828 H   0  0  0  0  0  0  0  0  0  0  0  0
    0.9071  -28.4042   -1.0489 H   0  0  0  0  0  0  0  0  0  0  0  0
    0.5361  -29.0695    0.5922 H   0  0  0  0  0  0  0  0  0  0  0  0
    1.8659  -26.3346   -0.0083 H   0  0  0  0  0  0  0  0  0  0  0  0
    1.5135  -26.9939    1.6378 H   0  0  0  0  0  0  0  0  0  0  0  0
    3.0428  -28.9279    1.1862 H   0  0  0  0  0  0  0  0  0  0  0  0
    3.8933  -27.3457    1.0036 H   0  0  0  0  0  0  0  0  0  0  0  0
    3.3889  -28.2665   -0.4639 H   0  0  0  0  0  0  0  0  0  0  0  0
   13.1172  -14.2052    0.2228 H   0  0  0  0  0  0  0  0  0  0  0  0
   13.3027  -14.9072   -1.4225 H   0  0  0  0  0  0  0  0  0  0  0  0
   15.1334  -16.4089   -0.4288 H   0  0  0  0  0  0  0  0  0  0  0  0
   14.8027  -15.5618    1.0965 H   0  0  0  0  0  0  0  0  0  0  0  0
   16.7776  -15.4593    0.5554 H   0  0  0  0  0  0  0  0  0  0  0  0
   16.3461  -14.8676   -1.0963 H   0  0  0  0  0  0  0  0  0  0  0  0
   17.2966  -13.4920    1.0244 H   0  0  0  0  0  0  0  0  0  0  0  0
   17.1250  -13.0880   -0.6773 H   0  0  0  0  0  0  0  0  0  0  0  0
   19.2978  -13.8285    0.7524 H   0  0  0  0  0  0  0  0  0  0  0  0
   19.1219  -13.5448   -1.0028 H   0  0  0  0  0  0  0  0  0  0  0  0
   21.1949  -11.0149    0.8853 H   0  0  0  0  0  0  0  0  0  0  0  0
   21.1947  -11.0147   -0.8851 H   0  0  0  0  0  0  0  0  0  0  0  0
   23.5153  -11.7936   -0.8935 H   0  0  0  0  0  0  0  0  0  0  0  0
   23.5155  -11.7938    0.8931 H   0  0  0  0  0  0  0  0  0  0  0  0
   23.2648   -9.1970   -0.8937 H   0  0  0  0  0  0  0  0  0  0  0  0
   23.2649   -9.1972    0.8939 H   0  0  0  0  0  0  0  0  0  0  0  0
   25.5557  -10.0431    0.8785 H   0  0  0  0  0  0  0  0  0  0  0  0
   25.5556  -10.0429   -0.8786 H   0  0  0  0  0  0  0  0  0  0  0  0
   26.3238   -8.1051   -0.9300 H   0  0  0  0  0  0  0  0  0  0  0  0
   26.3238   -8.1052    0.9300 H   0  0  0  0  0  0  0  0  0  0  0  0
   28.8751   -8.4312   -0.0000 H   0  0  0  0  0  0  0  0  0  0  0  0
   28.8746   -5.8436   -0.0000 H   0  0  0  0  0  0  0  0  0  0  0  0
   25.5413   -4.3405   -0.9443 H   0  0  0  0  0  0  0  0  0  0  0  0
   25.6251   -4.1943    0.8182 H   0  0  0  0  0  0  0  0  0  0  0  0
   23.3100   -4.9664    1.0006 H   0  0  0  0  0  0  0  0  0  0  0  0
   23.2251   -5.1160   -0.7775 H   0  0  0  0  0  0  0  0  0  0  0  0
   23.5567   -2.3783    0.7699 H   0  0  0  0  0  0  0  0  0  0  0  0
   23.4682   -2.5297   -1.0092 H   0  0  0  0  0  0  0  0  0  0  0  0
   21.1847   -3.3735   -0.8021 H   0  0  0  0  0  0  0  0  0  0  0  0
   21.2698   -3.2229    0.9392 H   0  0  0  0  0  0  0  0  0  0  0  0
   20.3859   -1.4844   -1.0199 H   0  0  0  0  0  0  0  0  0  0  0  0
   20.6417   -1.2677    0.8112 H   0  0  0  0  0  0  0  0  0  0  0  0
   19.3048   -0.0986    0.0135 H   0  0  0  0  0  0  0  0  0  0  0  0
   18.6287   -1.5027    1.0412 H   0  0  0  0  0  0  0  0  0  0  0  0
   17.5711   -0.0810   -1.0766 H   0  0  0  0  0  0  0  0  0  0  0  0
   16.8711   -1.2806    0.0177 H   0  0  0  0  0  0  0  0  0  0  0  0
   16.6175    0.1475    0.0000 H   0  0  0  0  0  0  0  0  0  0  0  0
  1  2  1  0  0  0  0
  1 66  1  0  0  0  0
  1 67  1  0  0  0  0
  1 68  1  0  0  0  0
  2  3  1  0  0  0  0
  2 69  1  0  0  0  0
  2 70  1  0  0  0  0
  3  4  1  0  0  0  0
  3 71  1  0  0  0  0
  3 72  1  0  0  0  0
  4  5  1  0  0  0  0
  4 73  1  0  0  0  0
  4 74  1  0  0  0  0
  5  6  1  0  0  0  0
  5 75  1  0  0  0  0
  5 76  1  0  0  0  0
  6  7  1  0  0  0  0
  6 77  1  0  0  0  0
  6 78  1  0  0  0  0
  7  8  2  0  0  0  0
  7 79  1  0  0  0  0
  8  9  1  0  0  0  0
  8 80  1  0  0  0  0
  9 10  1  0  0  0  0
  9 81  1  0  0  0  0
  9 82  1  0  0  0  0
 10 11  1  0  0  0  0
 10 83  1  0  0  0  0
 10 84  1  0  0  0  0
 11 12  1  0  0  0  0
 11 85  1  0  0  0  0
 11 86  1  0  0  0  0
 12 13  1  0  0  0  0
 12 87  1  0  0  0  0
 12 88  1  0  0  0  0
 13 14  1  0  0  0  0
 13 89  1  0  0  0  0
 13 90  1  0  0  0  0
 14 15  1  0  0  0  0
 14 91  1  0  0  0  0
 14 92  1  0  0  0  0
 15 16  1  0  0  0  0
 15 93  1  0  0  0  0
 15 94  1  0  0  0  0
 16 17  1  0  0  0  0
 16 95  1  0  0  0  0
 16 96  1  0  0  0  0
 17 18  1  0  0  0  0
 17 97  1  0  0  0  0
 17 98  1  0  0  0  0
 18 19  2  0  0  0  0
 18 20  1  0  0  0  0
 20 21  1  0  0  0  0
 21 99  1  0  0  0  0
 21100  1  0  0  0  0
 22 21  1  0  0  0  0
 22 23  1  0  0  0  0
 22 42  1  0  0  0  0
 22101  1  1  0  0  0
 23 24  1  0  0  0  0
 23102  1  0  0  0  0
 23103  1  0  0  0  0
 24 25  1  0  0  0  0
 25 26  2  0  0  0  0
 25 27  1  0  0  0  0
 27 28  1  0  0  0  0
 27104  1  0  0  0  0
 27105  1  0  0  0  0
 28 29  1  0  0  0  0
 29 30  1  0  0  0  0
 29106  1  0  0  0  0
 29107  1  0  0  0  0
 30 31  1  0  0  0  0
 30108  1  0  0  0  0
 30109  1  0  0  0  0
 31 32  1  0  0  0  0
 32 33  1  0  0  0  0
 32110  1  0  0  0  0
 32111  1  0  0  0  0
 33 34  1  0  0  0  0
 33112  1  0  0  0  0
 33113  1  0  0  0  0
 34 35  2  0  0  0  0
 34114  1  0  0  0  0
 35 36  1  0  0  0  0
 35115  1  0  0  0  0
 36 37  1  0  0  0  0
 36116  1  0  0  0  0
 36117  1  0  0  0  0
 37 38  1  0  0  0  0
 37118  1  0  0  0  0
 37119  1  0  0  0  0
 38 39  1  0  0  0  0
 39 40  1  0  0  0  0
 39120  1  0  0  0  0
 39121  1  0  0  0  0
 40 41  1  0  0  0  0
 40122  1  0  0  0  0
 40123  1  0  0  0  0
 41124  1  0  0  0  0
 41125  1  0  0  0  0
 41126  1  0  0  0  0
 42 43  1  0  0  0  0
 43 44  2  0  0  0  0
 43 45  1  0  0  0  0
 45 46  1  0  0  0  0
 45127  1  0  0  0  0
 45128  1  0  0  0  0
 46 47  1  0  0  0  0
 46129  1  0  0  0  0
 46130  1  0  0  0  0
 47 48  1  0  0  0  0
 47131  1  0  0  0  0
 47132  1  0  0  0  0
 48 49  1  0  0  0  0
 48133  1  0  0  0  0
 48134  1  0  0  0  0
 49 50  1  0  0  0  0
 49135  1  0  0  0  0
 49136  1  0  0  0  0
 50 51  1  0  0  0  0
 51 52  1  0  0  0  0
 51137  1  0  0  0  0
 51138  1  0  0  0  0
 52 53  1  0  0  0  0
 52139  1  0  0  0  0
 52140  1  0  0  0  0
 53 54  1  0  0  0  0
 53141  1  0  0  0  0
 53142  1  0  0  0  0
 54 55  1  0  0  0  0
 54143  1  0  0  0  0
 54144  1  0  0  0  0
 55 56  1  0  0  0  0
 55145  1  0  0  0  0
 55146  1  0  0  0  0
 56 57  2  0  0  0  0
 56147  1  0  0  0  0
 57 58  1  0  0  0  0
 57148  1  0  0  0  0
 58 59  1  0  0  0  0
 59 60  1  0  0  0  0
 59149  1  0  0  0  0
 59150  1  0  0  0  0
 60 61  1  0  0  0  0
 60151  1  0  0  0  0
 60152  1  0  0  0  0
 61 62  1  0  0  0  0
 61153  1  0  0  0  0
 61154  1  0  0  0  0
 62 63  1  0  0  0  0
 62155  1  0  0  0  0
 62156  1  0  0  0  0
 63 64  1  0  0  0  0
 63157  1  0  0  0  0
 63158  1  0  0  0  0
 64 65  1  0  0  0  0
 64159  1  0  0  0  0
 64160  1  0  0  0  0
 65161  1  0  0  0  0
 65162  1  0  0  0  0
 65163  1  0  0  0  0
M  END
>  <IDENTIFIER>
CNP0523143.1

>  <Energy>
11026.9

$$$$
