
 OpenBabel09052516163D

 30 29  0  0  0  0  0  0  0  0999 V2000
   -2.8710   -1.1301   -0.0598 C   0  0  0  0  0  0  0  0  0  0  0  0
   -3.1090    0.1692    0.2015 C   0  0  0  0  0  0  0  0  0  0  0  0
   -4.1905    0.5419    1.1821 C   0  0  0  0  0  0  0  0  0  0  0  0
   -2.3445    1.3166   -0.4420 C   0  0  0  0  0  0  0  0  0  0  0  0
   -1.2077    0.9366   -1.4130 C   0  0  0  0  0  0  0  0  0  0  0  0
   -0.2178    0.1829   -0.8028 O   0  0  0  0  0  0  0  0  0  0  0  0
    0.5861    0.6024    0.2092 C   0  0  0  0  0  0  0  0  0  0  0  0
    0.5040    1.7408    0.6496 O   0  0  0  0  0  0  0  0  0  0  0  0
    1.5921   -0.3460    0.7998 C   0  0  0  0  0  0  0  0  0  0  0  0
    2.6495   -0.7929   -0.2313 C   0  0  0  0  0  0  0  0  0  0  0  0
    3.4549    0.4049   -0.7605 C   0  0  0  0  0  0  0  0  0  0  0  0
    3.6010   -1.8119    0.4089 C   0  0  0  0  0  0  0  0  0  0  0  0
   -3.4480   -1.9095    0.4287 H   0  0  0  0  0  0  0  0  0  0  0  0
   -2.1121   -1.4561   -0.7592 H   0  0  0  0  0  0  0  0  0  0  0  0
   -4.7004   -0.3489    1.6081 H   0  0  0  0  0  0  0  0  0  0  0  0
   -4.9521    1.1708    0.6755 H   0  0  0  0  0  0  0  0  0  0  0  0
   -3.7459    1.1195    2.0199 H   0  0  0  0  0  0  0  0  0  0  0  0
   -1.9278    1.9476    0.3688 H   0  0  0  0  0  0  0  0  0  0  0  0
   -3.0751    1.9404   -1.0006 H   0  0  0  0  0  0  0  0  0  0  0  0
   -0.7575    1.8601   -1.8379 H   0  0  0  0  0  0  0  0  0  0  0  0
   -1.6332    0.3538   -2.2572 H   0  0  0  0  0  0  0  0  0  0  0  0
    1.0412   -1.2318    1.1835 H   0  0  0  0  0  0  0  0  0  0  0  0
    2.1060    0.1404    1.6593 H   0  0  0  0  0  0  0  0  0  0  0  0
    2.1399   -1.2870   -1.0885 H   0  0  0  0  0  0  0  0  0  0  0  0
    3.9771    0.9237    0.0721 H   0  0  0  0  0  0  0  0  0  0  0  0
    2.7884    1.1313   -1.2713 H   0  0  0  0  0  0  0  0  0  0  0  0
    4.2118    0.0628   -1.4985 H   0  0  0  0  0  0  0  0  0  0  0  0
    4.1339   -1.3619    1.2746 H   0  0  0  0  0  0  0  0  0  0  0  0
    4.3536   -2.1553   -0.3327 H   0  0  0  0  0  0  0  0  0  0  0  0
    3.0332   -2.6991    0.7614 H   0  0  0  0  0  0  0  0  0  0  0  0
  1  2  2  0  0  0  0
  1 13  1  0  0  0  0
  1 14  1  0  0  0  0
  2  3  1  0  0  0  0
  2  4  1  0  0  0  0
  3 15  1  0  0  0  0
  3 16  1  0  0  0  0
  3 17  1  0  0  0  0
  4  5  1  0  0  0  0
  4 18  1  0  0  0  0
  4 19  1  0  0  0  0
  5  6  1  0  0  0  0
  5 20  1  0  0  0  0
  5 21  1  0  0  0  0
  6  7  1  0  0  0  0
  7  8  2  0  0  0  0
  7  9  1  0  0  0  0
  9 10  1  0  0  0  0
  9 22  1  0  0  0  0
  9 23  1  0  0  0  0
 10 11  1  0  0  0  0
 10 12  1  0  0  0  0
 10 24  1  0  0  0  0
 11 25  1  0  0  0  0
 11 26  1  0  0  0  0
 11 27  1  0  0  0  0
 12 28  1  0  0  0  0
 12 29  1  0  0  0  0
 12 30  1  0  0  0  0
M  END
>  <IDENTIFIER>
CNP0147789.0

>  <Energy>
69.7226

$$$$
