
 OpenBabel09092519083D

114119  0  0  0  0  0  0  0  0999 V2000
    0.6317    2.2938   -2.7505 C   0  0  0  0  0  0  0  0  0  0  0  0
   -0.8931    2.3592   -2.8043 C   0  0  0  0  0  0  0  0  0  0  0  0
   -1.4816    3.2830   -1.7083 C   0  0  1  0  0  0  0  0  0  0  0  0
   -3.0174    3.3976   -1.8354 C   0  0  0  0  0  0  0  0  0  0  0  0
   -3.7420    2.1191   -1.3941 C   0  0  0  0  0  0  0  0  0  0  0  0
   -3.9940    2.0761    0.1312 C   0  0  0  0  0  0  0  0  0  0  0  0
   -4.3457    0.6621    0.6290 C   0  0  1  0  0  0  0  0  0  0  0  0
   -5.0033   -0.0655   -0.3991 O   0  0  0  0  0  0  0  0  0  0  0  0
   -6.3413   -0.4394   -0.1080 C   0  0  1  0  0  0  0  0  0  0  0  0
   -7.2424    0.1155   -1.2207 C   0  0  0  0  0  0  0  0  0  0  0  0
   -8.3604   -0.8672   -1.5828 C   0  0  0  0  0  0  0  0  0  0  0  0
   -8.9106   -1.5736   -0.3269 C   0  0  1  0  0  0  0  0  0  0  0  0
  -10.0240   -2.5098   -0.7013 N   0  0  0  0  0  0  0  0  0  0  0  0
  -10.5310   -3.3087    0.4282 C   0  0  0  0  0  0  0  0  0  0  0  0
  -11.1668   -1.8161   -1.3312 C   0  0  0  0  0  0  0  0  0  0  0  0
   -7.6861   -2.3373    0.3276 C   0  0  2  0  0  0  0  0  0  0  0  0
   -7.7520   -2.4118    1.8686 C   0  0  0  0  0  0  0  0  0  0  0  0
   -6.4025   -1.8487   -0.0729 O   0  0  0  0  0  0  0  0  0  0  0  0
   -3.0965   -0.1074    1.1600 C   0  0  1  0  0  0  0  0  0  0  0  0
   -3.4961   -1.5292    1.5876 C   0  0  0  0  0  0  0  0  0  0  0  0
   -1.8571   -0.1881    0.2584 C   0  0  0  0  0  0  0  0  0  0  0  0
   -1.9317   -0.8084   -0.7939 O   0  0  0  0  0  0  0  0  0  0  0  0
   -0.5019    0.2775    0.7484 C   0  0  0  0  0  0  0  0  0  0  0  0
    0.6353   -0.3523    0.3844 C   0  0  0  0  0  0  0  0  0  0  0  0
    1.7273   -0.0395    1.3747 C   0  0  1  0  0  0  0  0  0  0  0  0
    0.8786    0.3813    2.5668 C   0  0  1  0  0  0  0  0  0  0  0  0
    1.7383    0.9653    3.6378 C   0  0  0  0  0  0  0  0  0  0  0  0
    2.8828    0.3357    3.9474 C   0  0  0  0  0  0  0  0  0  0  0  0
    3.3950   -0.8904    3.1865 C   0  0  2  0  0  0  0  0  0  0  0  0
    4.8669   -0.7148    2.7758 C   0  0  0  0  0  0  0  0  0  0  0  0
    4.8224   -0.4025    1.2939 C   0  0  1  0  0  0  0  0  0  0  0  0
    6.0928   -0.6403    0.7124 O   0  0  0  0  0  0  0  0  0  0  0  0
    6.5760    0.4257   -0.1005 C   0  0  2  0  0  0  0  0  0  0  0  0
    6.5835    0.0239   -1.4675 O   0  0  0  0  0  0  0  0  0  0  0  0
    7.3910   -1.1380   -1.6340 C   0  0  1  0  0  0  0  0  0  0  0  0
    7.2287   -1.6615   -3.0568 C   0  0  0  0  0  0  0  0  0  0  0  0
    8.8911   -0.8703   -1.2819 C   0  0  2  0  0  0  0  0  0  0  0  0
    9.3315   -1.8320   -0.3356 O   0  0  0  0  0  0  0  0  0  0  0  0
   10.3090   -2.6775   -0.8952 C   0  0  0  0  0  0  0  0  0  0  0  0
    9.0683    0.5513   -0.7078 C   0  0  1  0  0  0  0  0  0  0  0  0
    8.8990    1.4759   -1.7778 O   0  0  0  0  0  0  0  0  0  0  0  0
   10.1048    2.1577   -2.0495 C   0  0  0  0  0  0  0  0  0  0  0  0
    7.9990    0.8717    0.3603 C   0  0  2  0  0  0  0  0  0  0  0  0
    8.3237    0.3645    1.6334 O   0  0  0  0  0  0  0  0  0  0  0  0
    3.7744   -1.4210    0.8196 C   0  0  0  0  0  0  0  0  0  0  0  0
    2.6381   -1.2178    1.8361 C   0  0  2  0  0  0  0  0  0  0  0  0
   -0.2237    1.2162    1.9192 C   0  0  1  0  0  0  0  0  0  0  0  0
    0.3263    2.6443    1.5464 C   0  0  0  0  0  0  0  0  0  0  0  0
   -0.3446    3.4172    0.4431 C   0  0  0  0  0  0  0  0  0  0  0  0
   -0.0114    4.5810    0.2671 O   0  0  0  0  0  0  0  0  0  0  0  0
   -1.1306    2.7881   -0.4608 O   0  0  0  0  0  0  0  0  0  0  0  0
    1.0009    1.6443   -3.5731 H   0  0  0  0  0  0  0  0  0  0  0  0
    0.9698    1.8617   -1.7854 H   0  0  0  0  0  0  0  0  0  0  0  0
    1.0675    3.3071   -2.8752 H   0  0  0  0  0  0  0  0  0  0  0  0
   -1.2730    1.3226   -2.7130 H   0  0  0  0  0  0  0  0  0  0  0  0
   -1.1851    2.7490   -3.8043 H   0  0  0  0  0  0  0  0  0  0  0  0
   -1.0585    4.2964   -1.8926 H   0  0  0  0  0  0  0  0  0  0  0  0
   -3.2412    3.6051   -2.9048 H   0  0  0  0  0  0  0  0  0  0  0  0
   -3.4122    4.2561   -1.2490 H   0  0  0  0  0  0  0  0  0  0  0  0
   -3.1949    1.2339   -1.7594 H   0  0  0  0  0  0  0  0  0  0  0  0
   -4.7454    2.0825   -1.8732 H   0  0  0  0  0  0  0  0  0  0  0  0
   -4.8494    2.7646    0.3105 H   0  0  0  0  0  0  0  0  0  0  0  0
   -3.1601    2.4626    0.7509 H   0  0  0  0  0  0  0  0  0  0  0  0
   -4.9640    0.7971    1.5473 H   0  0  0  0  0  0  0  0  0  0  0  0
   -6.7252   -0.0461    0.8610 H   0  0  0  0  0  0  0  0  0  0  0  0
   -6.6789    0.3061   -2.1600 H   0  0  0  0  0  0  0  0  0  0  0  0
   -7.6449    1.0916   -0.8670 H   0  0  0  0  0  0  0  0  0  0  0  0
   -7.9459   -1.6598   -2.2453 H   0  0  0  0  0  0  0  0  0  0  0  0
   -9.1097   -0.2920   -2.1599 H   0  0  0  0  0  0  0  0  0  0  0  0
   -9.2756   -0.7723    0.3570 H   0  0  0  0  0  0  0  0  0  0  0  0
   -9.7694   -4.0390    0.7623 H   0  0  0  0  0  0  0  0  0  0  0  0
  -11.3873   -3.9427    0.1096 H   0  0  0  0  0  0  0  0  0  0  0  0
  -10.8614   -2.6558    1.2653 H   0  0  0  0  0  0  0  0  0  0  0  0
  -10.8973   -1.4208   -2.3288 H   0  0  0  0  0  0  0  0  0  0  0  0
  -11.5501   -1.0001   -0.6814 H   0  0  0  0  0  0  0  0  0  0  0  0
  -11.9940   -2.5292   -1.5417 H   0  0  0  0  0  0  0  0  0  0  0  0
   -7.7066   -3.3704   -0.0800 H   0  0  0  0  0  0  0  0  0  0  0  0
   -7.7136   -1.3992    2.3188 H   0  0  0  0  0  0  0  0  0  0  0  0
   -6.8862   -2.9938    2.2485 H   0  0  0  0  0  0  0  0  0  0  0  0
   -8.6693   -2.8923    2.2485 H   0  0  0  0  0  0  0  0  0  0  0  0
   -2.8185    0.4057    2.0912 H   0  0  0  0  0  0  0  0  0  0  0  0
   -3.8035   -2.1359    0.7092 H   0  0  0  0  0  0  0  0  0  0  0  0
   -4.3387   -1.4958    2.3110 H   0  0  0  0  0  0  0  0  0  0  0  0
   -2.6376   -2.0358    2.0787 H   0  0  0  0  0  0  0  0  0  0  0  0
    0.6648   -1.1725   -0.3223 H   0  0  0  0  0  0  0  0  0  0  0  0
    2.3267    0.8046    0.9935 H   0  0  0  0  0  0  0  0  0  0  0  0
    0.4037   -0.5415    2.9896 H   0  0  0  0  0  0  0  0  0  0  0  0
    1.4428    1.8651    4.1671 H   0  0  0  0  0  0  0  0  0  0  0  0
    3.4825    0.7238    4.7655 H   0  0  0  0  0  0  0  0  0  0  0  0
    3.3730   -1.7450    3.8985 H   0  0  0  0  0  0  0  0  0  0  0  0
    5.3526   -1.7159    2.8642 H   0  0  0  0  0  0  0  0  0  0  0  0
    5.4645   -0.0199    3.4046 H   0  0  0  0  0  0  0  0  0  0  0  0
    4.4508    0.6370    1.1835 H   0  0  0  0  0  0  0  0  0  0  0  0
    5.9480    1.3419   -0.0389 H   0  0  0  0  0  0  0  0  0  0  0  0
    7.0021   -1.9616   -0.9909 H   0  0  0  0  0  0  0  0  0  0  0  0
    7.5803   -0.9044   -3.7909 H   0  0  0  0  0  0  0  0  0  0  0  0
    6.1577   -1.8786   -3.2555 H   0  0  0  0  0  0  0  0  0  0  0  0
    7.8085   -2.5994   -3.1911 H   0  0  0  0  0  0  0  0  0  0  0  0
    9.5164   -0.8652   -2.2138 H   0  0  0  0  0  0  0  0  0  0  0  0
   10.5971   -3.4328   -0.1363 H   0  0  0  0  0  0  0  0  0  0  0  0
   11.2256   -2.1024   -1.1547 H   0  0  0  0  0  0  0  0  0  0  0  0
    9.9090   -3.2276   -1.7756 H   0  0  0  0  0  0  0  0  0  0  0  0
   10.0795    0.6416   -0.2366 H   0  0  0  0  0  0  0  0  0  0  0  0
    9.9492    2.8272   -2.9177 H   0  0  0  0  0  0  0  0  0  0  0  0
   10.9168    1.4455   -2.3229 H   0  0  0  0  0  0  0  0  0  0  0  0
   10.4021    2.7943   -1.1854 H   0  0  0  0  0  0  0  0  0  0  0  0
    8.0204    1.9797    0.4667 H   0  0  0  0  0  0  0  0  0  0  0  0
    8.4256   -0.6177    1.5613 H   0  0  0  0  0  0  0  0  0  0  0  0
    4.1981   -2.4424    0.9594 H   0  0  0  0  0  0  0  0  0  0  0  0
    3.4667   -1.3227   -0.2431 H   0  0  0  0  0  0  0  0  0  0  0  0
    1.9850   -2.1108    1.9572 H   0  0  0  0  0  0  0  0  0  0  0  0
   -1.0840    1.3776    2.5894 H   0  0  0  0  0  0  0  0  0  0  0  0
    1.3855    2.6343    1.2354 H   0  0  0  0  0  0  0  0  0  0  0  0
    0.3001    3.2494    2.4781 H   0  0  0  0  0  0  0  0  0  0  0  0
  1  2  1  0  0  0  0
  1 52  1  0  0  0  0
  1 53  1  0  0  0  0
  1 54  1  0  0  0  0
  2 55  1  0  0  0  0
  2 56  1  0  0  0  0
  3  2  1  0  0  0  0
  3  4  1  0  0  0  0
  3 57  1  6  0  0  0
  4  5  1  0  0  0  0
  4 58  1  0  0  0  0
  4 59  1  0  0  0  0
  5  6  1  0  0  0  0
  5 60  1  0  0  0  0
  5 61  1  0  0  0  0
  6  7  1  0  0  0  0
  6 62  1  0  0  0  0
  6 63  1  0  0  0  0
  7  8  1  0  0  0  0
  7 19  1  0  0  0  0
  7 64  1  1  0  0  0
  9  8  1  0  0  0  0
  9 10  1  0  0  0  0
  9 65  1  1  0  0  0
 10 11  1  0  0  0  0
 10 66  1  0  0  0  0
 10 67  1  0  0  0  0
 11 12  1  0  0  0  0
 11 68  1  0  0  0  0
 11 69  1  0  0  0  0
 12 13  1  0  0  0  0
 12 16  1  0  0  0  0
 12 70  1  1  0  0  0
 13 14  1  0  0  0  0
 13 15  1  0  0  0  0
 14 71  1  0  0  0  0
 14 72  1  0  0  0  0
 14 73  1  0  0  0  0
 15 74  1  0  0  0  0
 15 75  1  0  0  0  0
 15 76  1  0  0  0  0
 16 17  1  0  0  0  0
 16 18  1  0  0  0  0
 16 77  1  6  0  0  0
 17 78  1  0  0  0  0
 17 79  1  0  0  0  0
 17 80  1  0  0  0  0
 18  9  1  0  0  0  0
 19 20  1  0  0  0  0
 19 21  1  0  0  0  0
 19 81  1  1  0  0  0
 20 82  1  0  0  0  0
 20 83  1  0  0  0  0
 20 84  1  0  0  0  0
 21 22  2  0  0  0  0
 21 23  1  0  0  0  0
 23 24  2  0  0  0  0
 24 85  1  0  0  0  0
 25 24  1  0  0  0  0
 25 26  1  0  0  0  0
 25 86  1  6  0  0  0
 26 27  1  0  0  0  0
 26 47  1  0  0  0  0
 26 87  1  1  0  0  0
 27 28  2  0  0  0  0
 27 88  1  0  0  0  0
 28 29  1  0  0  0  0
 28 89  1  0  0  0  0
 29 30  1  0  0  0  0
 29 90  1  1  0  0  0
 30 31  1  0  0  0  0
 30 91  1  0  0  0  0
 30 92  1  0  0  0  0
 31 32  1  0  0  0  0
 31 45  1  0  0  0  0
 31 93  1  6  0  0  0
 33 32  1  0  0  0  0
 33 34  1  0  0  0  0
 33 94  1  1  0  0  0
 34 35  1  0  0  0  0
 35 36  1  0  0  0  0
 35 37  1  0  0  0  0
 35 95  1  1  0  0  0
 36 96  1  0  0  0  0
 36 97  1  0  0  0  0
 36 98  1  0  0  0  0
 37 38  1  0  0  0  0
 37 40  1  0  0  0  0
 37 99  1  6  0  0  0
 38 39  1  0  0  0  0
 39100  1  0  0  0  0
 39101  1  0  0  0  0
 39102  1  0  0  0  0
 40 41  1  0  0  0  0
 40 43  1  0  0  0  0
 40103  1  1  0  0  0
 41 42  1  0  0  0  0
 42104  1  0  0  0  0
 42105  1  0  0  0  0
 42106  1  0  0  0  0
 43 44  1  0  0  0  0
 43 33  1  0  0  0  0
 43107  1  1  0  0  0
 44108  1  0  0  0  0
 45109  1  0  0  0  0
 45110  1  0  0  0  0
 46 45  1  0  0  0  0
 46 25  1  0  0  0  0
 46 29  1  0  0  0  0
 46111  1  1  0  0  0
 47 48  1  0  0  0  0
 47 23  1  0  0  0  0
 47112  1  1  0  0  0
 48 49  1  0  0  0  0
 48113  1  0  0  0  0
 48114  1  0  0  0  0
 49 50  2  0  0  0  0
 49 51  1  0  0  0  0
 51  3  1  0  0  0  0
M  END
>  <IDENTIFIER>
CNP0450087.0

>  <Energy>
1676.72

$$$$
