
 OpenBabel09112501563D

 41 42  0  0  0  0  0  0  0  0999 V2000
   -0.4050   -1.8151    2.2307 C   0  0  0  0  0  0  0  0  0  0  0  0
   -0.8745   -1.2518    0.8987 C   0  0  0  0  0  0  0  0  0  0  0  0
   -2.0051   -1.7890    0.3843 C   0  0  0  0  0  0  0  0  0  0  0  0
   -2.5671   -1.2729   -0.8913 C   0  0  0  0  0  0  0  0  0  0  0  0
   -2.5841    0.2739   -0.9367 C   0  0  1  0  0  0  0  0  0  0  0  0
   -4.4003    0.9444   -0.6502 Br  0  0  0  0  0  0  0  0  0  0  0  0
   -1.4540    0.9922   -0.0621 C   0  0  0  0  0  0  0  0  0  0  0  0
   -2.0347    1.4245    1.3243 C   0  0  0  0  0  0  0  0  0  0  0  0
   -1.0786    2.3027   -0.8017 C   0  0  0  0  0  0  0  0  0  0  0  0
   -0.2158   -0.0130    0.1874 C   0  0  1  0  0  0  0  0  0  0  0  0
    0.8926    0.6590    1.1108 C   0  0  0  0  0  0  0  0  0  0  0  0
    2.2542   -0.0251    0.9624 C   0  0  0  0  0  0  0  0  0  0  0  0
    2.8498    0.2059   -0.4576 C   0  0  2  0  0  0  0  0  0  0  0  0
    3.8220   -0.9546   -0.7506 C   0  0  0  0  0  0  0  0  0  0  0  0
    3.8065    1.7245   -0.4700 Cl  0  0  0  0  0  0  0  0  0  0  0  0
    1.7127    0.3648   -1.5240 C   0  0  1  0  0  0  0  0  0  0  0  0
    2.2938    0.0439   -3.3595 Br  0  0  0  0  0  0  0  0  0  0  0  0
    0.4778   -0.4771   -1.1662 C   0  0  0  0  0  0  0  0  0  0  0  0
   -1.0476   -2.6507    2.5819 H   0  0  0  0  0  0  0  0  0  0  0  0
   -0.4435   -1.0419    3.0225 H   0  0  0  0  0  0  0  0  0  0  0  0
    0.6140   -2.2322    2.1540 H   0  0  0  0  0  0  0  0  0  0  0  0
   -2.5400   -2.5857    0.8945 H   0  0  0  0  0  0  0  0  0  0  0  0
   -3.5451   -1.7251   -1.1603 H   0  0  0  0  0  0  0  0  0  0  0  0
   -1.8786   -1.6541   -1.6673 H   0  0  0  0  0  0  0  0  0  0  0  0
   -2.4228    0.4903   -2.0166 H   0  0  0  0  0  0  0  0  0  0  0  0
   -2.8652    2.1509    1.2148 H   0  0  0  0  0  0  0  0  0  0  0  0
   -1.2765    1.9527    1.9359 H   0  0  0  0  0  0  0  0  0  0  0  0
   -2.4207    0.5644    1.9086 H   0  0  0  0  0  0  0  0  0  0  0  0
   -1.9783    2.9436   -0.9261 H   0  0  0  0  0  0  0  0  0  0  0  0
   -0.6994    2.0923   -1.8216 H   0  0  0  0  0  0  0  0  0  0  0  0
   -0.3309    2.9086   -0.2554 H   0  0  0  0  0  0  0  0  0  0  0  0
    0.5763    0.6871    2.1700 H   0  0  0  0  0  0  0  0  0  0  0  0
    1.0792    1.7139    0.8364 H   0  0  0  0  0  0  0  0  0  0  0  0
    2.0929   -1.1042    1.1293 H   0  0  0  0  0  0  0  0  0  0  0  0
    2.9820    0.3108    1.7326 H   0  0  0  0  0  0  0  0  0  0  0  0
    4.5978   -1.0137    0.0433 H   0  0  0  0  0  0  0  0  0  0  0  0
    4.3518   -0.8060   -1.7136 H   0  0  0  0  0  0  0  0  0  0  0  0
    3.2817   -1.9242   -0.7896 H   0  0  0  0  0  0  0  0  0  0  0  0
    1.3735    1.4168   -1.5201 H   0  0  0  0  0  0  0  0  0  0  0  0
    0.8404   -1.5242   -1.0730 H   0  0  0  0  0  0  0  0  0  0  0  0
   -0.2205   -0.4355   -2.0186 H   0  0  0  0  0  0  0  0  0  0  0  0
  1  2  1  0  0  0  0
  1 19  1  0  0  0  0
  1 20  1  0  0  0  0
  1 21  1  0  0  0  0
  2  3  2  0  0  0  0
  3  4  1  0  0  0  0
  3 22  1  0  0  0  0
  4  5  1  0  0  0  0
  4 23  1  0  0  0  0
  4 24  1  0  0  0  0
  5  6  1  0  0  0  0
  5  7  1  0  0  0  0
  5 25  1  6  0  0  0
  7  8  1  0  0  0  0
  7  9  1  0  0  0  0
  8 26  1  0  0  0  0
  8 27  1  0  0  0  0
  8 28  1  0  0  0  0
  9 29  1  0  0  0  0
  9 30  1  0  0  0  0
  9 31  1  0  0  0  0
 10  7  1  0  0  0  0
 10 11  1  0  0  0  0
 10  2  1  1  0  0  0
 11 12  1  0  0  0  0
 11 32  1  0  0  0  0
 11 33  1  0  0  0  0
 12 13  1  0  0  0  0
 12 34  1  0  0  0  0
 12 35  1  0  0  0  0
 13 14  1  0  0  0  0
 13 15  1  1  0  0  0
 13 16  1  0  0  0  0
 14 36  1  0  0  0  0
 14 37  1  0  0  0  0
 14 38  1  0  0  0  0
 16 17  1  0  0  0  0
 16 18  1  0  0  0  0
 16 39  1  1  0  0  0
 18 10  1  0  0  0  0
 18 40  1  0  0  0  0
 18 41  1  0  0  0  0
M  END
>  <IDENTIFIER>
CNP0126187.4

>  <Energy>
522.074

$$$$
