
 OpenBabel09052513483D

 38 38  0  0  0  0  0  0  0  0999 V2000
    4.8584    0.7691    0.4258 C   0  0  0  0  0  0  0  0  0  0  0  0
    3.4104    0.2999    0.5552 C   0  0  2  0  0  0  0  0  0  0  0  0
    3.0700   -0.7621   -0.5138 C   0  0  0  0  0  0  0  0  0  0  0  0
    1.5899   -1.0928   -0.5003 C   0  0  0  0  0  0  0  0  0  0  0  0
    0.8353   -0.9575   -1.6087 C   0  0  0  0  0  0  0  0  0  0  0  0
   -0.6302   -1.1818   -1.6293 C   0  0  0  0  0  0  0  0  0  0  0  0
   -1.2295   -1.0794   -2.6899 O   0  0  0  0  0  0  0  0  0  0  0  0
   -1.3072   -1.4300   -0.4770 O   0  0  0  0  0  0  0  0  0  0  0  0
   -2.6879   -1.4935   -0.3423 C   0  0  1  0  0  0  0  0  0  0  0  0
   -3.0340   -2.1353    1.0101 C   0  0  0  0  0  0  0  0  0  0  0  0
   -3.4047   -0.1179   -0.5631 C   0  0  0  0  0  0  0  0  0  0  0  0
   -2.7936    1.1719    0.0764 C   0  0  1  0  0  0  0  0  0  0  0  0
   -2.5961    1.0171    1.4531 O   0  0  0  0  0  0  0  0  0  0  0  0
   -1.5604    1.6391   -0.6988 C   0  0  0  0  0  0  0  0  0  0  0  0
   -1.7127    1.8441   -1.8946 O   0  0  0  0  0  0  0  0  0  0  0  0
   -0.1671    1.7602   -0.1940 C   0  0  0  0  0  0  0  0  0  0  0  0
    0.2460    1.8390    1.0817 C   0  0  0  0  0  0  0  0  0  0  0  0
    1.6842    1.7488    1.3990 C   0  0  0  0  0  0  0  0  0  0  0  0
    2.0473    1.7947    2.5656 O   0  0  0  0  0  0  0  0  0  0  0  0
    2.5518    1.3784    0.4201 O   0  0  0  0  0  0  0  0  0  0  0  0
    5.5536   -0.0896    0.5405 H   0  0  0  0  0  0  0  0  0  0  0  0
    5.0838    1.5169    1.2153 H   0  0  0  0  0  0  0  0  0  0  0  0
    5.0251    1.2394   -0.5673 H   0  0  0  0  0  0  0  0  0  0  0  0
    3.2814   -0.1767    1.5555 H   0  0  0  0  0  0  0  0  0  0  0  0
    3.6603   -1.6815   -0.3106 H   0  0  0  0  0  0  0  0  0  0  0  0
    3.3585   -0.3824   -1.5191 H   0  0  0  0  0  0  0  0  0  0  0  0
    1.1384   -1.4198    0.4323 H   0  0  0  0  0  0  0  0  0  0  0  0
    1.3041   -0.6420   -2.5369 H   0  0  0  0  0  0  0  0  0  0  0  0
   -3.0993   -2.2075   -1.0916 H   0  0  0  0  0  0  0  0  0  0  0  0
   -2.6756   -1.5684    1.8849 H   0  0  0  0  0  0  0  0  0  0  0  0
   -2.5749   -3.1456    1.0628 H   0  0  0  0  0  0  0  0  0  0  0  0
   -4.1346   -2.2572    1.1011 H   0  0  0  0  0  0  0  0  0  0  0  0
   -4.4554   -0.2326   -0.2180 H   0  0  0  0  0  0  0  0  0  0  0  0
   -3.4731    0.0664   -1.6570 H   0  0  0  0  0  0  0  0  0  0  0  0
   -3.5379    1.9872   -0.0536 H   0  0  0  0  0  0  0  0  0  0  0  0
   -1.8769    0.3491    1.5673 H   0  0  0  0  0  0  0  0  0  0  0  0
    0.5898    1.7507   -0.9739 H   0  0  0  0  0  0  0  0  0  0  0  0
   -0.4399    1.9105    1.9124 H   0  0  0  0  0  0  0  0  0  0  0  0
  1 21  1  0  0  0  0
  1 22  1  0  0  0  0
  1 23  1  0  0  0  0
  2  1  1  0  0  0  0
  2  3  1  0  0  0  0
  2 24  1  1  0  0  0
  3  4  1  0  0  0  0
  3 25  1  0  0  0  0
  3 26  1  0  0  0  0
  4  5  2  0  0  0  0
  4 27  1  0  0  0  0
  5  6  1  0  0  0  0
  5 28  1  0  0  0  0
  6  7  2  0  0  0  0
  6  8  1  0  0  0  0
  8  9  1  0  0  0  0
  9 10  1  0  0  0  0
  9 11  1  0  0  0  0
  9 29  1  6  0  0  0
 10 30  1  0  0  0  0
 10 31  1  0  0  0  0
 10 32  1  0  0  0  0
 11 12  1  0  0  0  0
 11 33  1  0  0  0  0
 11 34  1  0  0  0  0
 12 13  1  0  0  0  0
 12 14  1  0  0  0  0
 12 35  1  6  0  0  0
 13 36  1  0  0  0  0
 14 15  2  0  0  0  0
 14 16  1  0  0  0  0
 16 17  2  0  0  0  0
 16 37  1  0  0  0  0
 17 18  1  0  0  0  0
 17 38  1  0  0  0  0
 18 19  2  0  0  0  0
 18 20  1  0  0  0  0
 20  2  1  0  0  0  0
M  END
>  <IDENTIFIER>
CNP0194965.2

>  <Energy>
285.094

$$$$
