
 OpenBabel09082518233D

117123  0  0  0  0  0  0  0  0999 V2000
   -4.9631   -0.3931   -3.4742 C   0  0  0  0  0  0  0  0  0  0  0  0
   -5.5506    0.9385   -3.3386 N   0  0  0  0  0  0  0  0  0  0  0  0
   -4.9234    1.7811   -2.3071 C   0  0  0  0  0  0  0  0  0  0  0  0
   -5.1382    1.3197   -0.8117 C   0  0  1  0  0  0  0  0  0  0  0  0
   -4.5531    0.0819   -0.5537 O   0  0  0  0  0  0  0  0  0  0  0  0
   -3.2543   -0.3374   -0.5970 C   0  0  0  0  0  0  0  0  0  0  0  0
   -2.1826    0.5241   -0.8320 C   0  0  0  0  0  0  0  0  0  0  0  0
   -0.8506    0.0669   -0.9230 C   0  0  0  0  0  0  0  0  0  0  0  0
   -0.6177   -1.3211   -0.7159 C   0  0  0  0  0  0  0  0  0  0  0  0
   -1.6896   -2.2144   -0.4464 C   0  0  0  0  0  0  0  0  0  0  0  0
   -3.0121   -1.6968   -0.4036 C   0  0  0  0  0  0  0  0  0  0  0  0
   -4.0909   -2.4805   -0.1581 O   0  0  0  0  0  0  0  0  0  0  0  0
   -1.5062   -3.6359   -0.3243 N   0  0  0  0  0  0  0  0  0  0  0  0
   -0.3510   -4.4130    0.0352 C   0  0  0  0  0  0  0  0  0  0  0  0
   -0.2452   -5.7101   -0.5582 N   0  0  0  0  0  0  0  0  0  0  0  0
    0.7894   -6.6720   -0.2511 C   0  0  0  0  0  0  0  0  0  0  0  0
    0.4653   -4.0933    0.9975 N   0  0  0  0  0  0  0  0  0  0  0  0
    0.3861   -2.9225    1.8412 C   0  0  0  0  0  0  0  0  0  0  0  0
    1.3038   -3.1263    3.4209 S   0  0  0  0  0  0  0  0  0  0  0  0
    3.0094   -4.2958    2.7985 S   0  0  0  0  0  0  0  0  0  0  0  0
    4.1316   -3.0391    2.0322 C   0  0  2  0  0  0  0  0  0  0  0  0
    5.5881   -3.3485    2.3309 C   0  0  0  0  0  0  0  0  0  0  0  0
    6.4726   -2.3626    2.5766 C   0  0  0  0  0  0  0  0  0  0  0  0
    6.0366   -0.9045    2.6286 C   0  0  2  0  0  0  0  0  0  0  0  0
    5.3615   -0.6647    3.9830 C   0  0  0  0  0  0  0  0  0  0  0  0
    3.9426   -1.2074    3.8153 C   0  0  0  0  0  0  0  0  0  0  0  0
    3.8067   -1.5389    2.3085 C   0  0  1  0  0  0  0  0  0  0  0  0
    4.8690   -0.6212    1.6186 C   0  0  2  0  0  0  0  0  0  0  0  0
    5.2163   -0.9693    0.1280 C   0  0  0  0  0  0  0  0  0  0  0  0
    6.3322   -0.1016   -0.4266 C   0  0  0  0  0  0  0  0  0  0  0  0
    7.6799   -0.3565   -0.1123 C   0  0  0  0  0  0  0  0  0  0  0  0
    8.6942    0.4592   -0.6187 C   0  0  0  0  0  0  0  0  0  0  0  0
    8.3799    1.5475   -1.4443 C   0  0  0  0  0  0  0  0  0  0  0  0
    9.3573    2.3419   -1.9300 O   0  0  0  0  0  0  0  0  0  0  0  0
    7.0450    1.8159   -1.7663 C   0  0  0  0  0  0  0  0  0  0  0  0
    6.7671    2.8963   -2.5516 O   0  0  0  0  0  0  0  0  0  0  0  0
    5.5037    3.3322   -2.8936 C   0  0  0  0  0  0  0  0  0  0  0  0
    6.0258    0.9809   -1.2649 C   0  0  0  0  0  0  0  0  0  0  0  0
    4.4467    0.8693    1.6268 C   0  0  0  0  0  0  0  0  0  0  0  0
    5.2459    1.6857    2.0623 O   0  0  0  0  0  0  0  0  0  0  0  0
    3.1866    1.4500    1.0577 C   0  0  0  0  0  0  0  0  0  0  0  0
    2.0825    0.8153    0.5997 C   0  0  0  0  0  0  0  0  0  0  0  0
    0.9001    1.6165    0.1024 C   0  0  0  0  0  0  0  0  0  0  0  0
    0.2889    1.0965   -1.2290 C   0  0  0  0  0  0  0  0  0  0  0  0
   -0.1956    2.3096   -2.0869 C   0  0  0  0  0  0  0  0  0  0  0  0
   -0.4592    1.6768   -3.4444 C   0  0  0  0  0  0  0  0  0  0  0  0
    0.7059    0.7006   -3.6300 C   0  0  0  0  0  0  0  0  0  0  0  0
    1.3350    0.5620   -2.2345 C   0  0  0  0  0  0  0  0  0  0  0  0
   -4.6334    2.4288    0.1606 C   0  0  0  0  0  0  0  0  0  0  0  0
   -5.8901    3.1211    0.7215 C   0  0  0  0  0  0  0  0  0  0  0  0
   -7.0322    2.6694   -0.1863 C   0  0  2  0  0  0  0  0  0  0  0  0
   -8.4776    2.8659    0.3448 C   0  0  0  0  0  0  0  0  0  0  0  0
   -8.8900    2.0480    1.5922 C   0  0  2  0  0  0  0  0  0  0  0  0
  -10.2559    2.2381    1.8557 O   0  0  0  0  0  0  0  0  0  0  0  0
   -8.1380    2.4400    2.7289 O   0  0  0  0  0  0  0  0  0  0  0  0
   -7.7276    1.3103    3.4684 C   0  0  0  0  0  0  0  0  0  0  0  0
   -6.6339    1.2222   -0.4551 C   0  0  0  0  0  0  0  0  0  0  0  0
   -5.3570   -0.8659   -4.3977 H   0  0  0  0  0  0  0  0  0  0  0  0
   -5.2454   -1.0408   -2.6198 H   0  0  0  0  0  0  0  0  0  0  0  0
   -3.8578   -0.3249   -3.5690 H   0  0  0  0  0  0  0  0  0  0  0  0
   -6.5883    0.8843   -3.2385 H   0  0  0  0  0  0  0  0  0  0  0  0
   -5.3213    2.8054   -2.4470 H   0  0  0  0  0  0  0  0  0  0  0  0
   -3.8464    1.8790   -2.5421 H   0  0  0  0  0  0  0  0  0  0  0  0
   -2.4017    1.5589   -0.9482 H   0  0  0  0  0  0  0  0  0  0  0  0
    0.3837   -1.7137   -0.8013 H   0  0  0  0  0  0  0  0  0  0  0  0
   -4.0676   -3.4169    0.0723 H   0  0  0  0  0  0  0  0  0  0  0  0
   -2.2827   -4.2067   -0.6845 H   0  0  0  0  0  0  0  0  0  0  0  0
   -0.9615   -5.9983   -1.2426 H   0  0  0  0  0  0  0  0  0  0  0  0
    1.5243   -6.2789    0.4790 H   0  0  0  0  0  0  0  0  0  0  0  0
    1.3225   -6.9403   -1.1870 H   0  0  0  0  0  0  0  0  0  0  0  0
    0.3223   -7.5890    0.1672 H   0  0  0  0  0  0  0  0  0  0  0  0
   -0.6728   -2.7716    2.1404 H   0  0  0  0  0  0  0  0  0  0  0  0
    0.7562   -2.0308    1.3247 H   0  0  0  0  0  0  0  0  0  0  0  0
    3.9818   -3.2339    0.9495 H   0  0  0  0  0  0  0  0  0  0  0  0
    5.9498   -4.3690    2.2514 H   0  0  0  0  0  0  0  0  0  0  0  0
    7.5230   -2.6039    2.7030 H   0  0  0  0  0  0  0  0  0  0  0  0
    6.9375   -0.2607    2.5349 H   0  0  0  0  0  0  0  0  0  0  0  0
    5.2744    0.4342    4.1281 H   0  0  0  0  0  0  0  0  0  0  0  0
    5.9078   -1.0379    4.8747 H   0  0  0  0  0  0  0  0  0  0  0  0
    3.2349   -0.3980    4.1023 H   0  0  0  0  0  0  0  0  0  0  0  0
    3.7442   -2.0891    4.4577 H   0  0  0  0  0  0  0  0  0  0  0  0
    2.7829   -1.4150    1.9858 H   0  0  0  0  0  0  0  0  0  0  0  0
    4.2933   -0.8197   -0.4719 H   0  0  0  0  0  0  0  0  0  0  0  0
    5.5203   -2.0221   -0.0393 H   0  0  0  0  0  0  0  0  0  0  0  0
    7.9515   -1.1916    0.5187 H   0  0  0  0  0  0  0  0  0  0  0  0
    9.7264    0.2451   -0.3693 H   0  0  0  0  0  0  0  0  0  0  0  0
   10.2900    2.1965   -1.7236 H   0  0  0  0  0  0  0  0  0  0  0  0
    5.5921    4.2433   -3.5199 H   0  0  0  0  0  0  0  0  0  0  0  0
    4.9269    3.5872   -1.9784 H   0  0  0  0  0  0  0  0  0  0  0  0
    4.9704    2.5499   -3.4740 H   0  0  0  0  0  0  0  0  0  0  0  0
    4.9874    1.1744   -1.5016 H   0  0  0  0  0  0  0  0  0  0  0  0
    3.1671    2.5370    1.0534 H   0  0  0  0  0  0  0  0  0  0  0  0
    1.9807   -0.2472    0.5751 H   0  0  0  0  0  0  0  0  0  0  0  0
    1.2376    2.6690   -0.0174 H   0  0  0  0  0  0  0  0  0  0  0  0
    0.1009    1.6558    0.8756 H   0  0  0  0  0  0  0  0  0  0  0  0
    0.6417    3.0351   -2.2185 H   0  0  0  0  0  0  0  0  0  0  0  0
   -1.0327    2.9169   -1.6934 H   0  0  0  0  0  0  0  0  0  0  0  0
   -0.6106    2.3822   -4.2877 H   0  0  0  0  0  0  0  0  0  0  0  0
   -1.3906    1.0780   -3.3452 H   0  0  0  0  0  0  0  0  0  0  0  0
    1.4854    1.0975   -4.3182 H   0  0  0  0  0  0  0  0  0  0  0  0
    0.3085   -0.2554   -4.0326 H   0  0  0  0  0  0  0  0  0  0  0  0
    2.1781    1.2940   -2.2082 H   0  0  0  0  0  0  0  0  0  0  0  0
    1.8036   -0.4226   -2.0302 H   0  0  0  0  0  0  0  0  0  0  0  0
   -3.9870    3.1552   -0.3779 H   0  0  0  0  0  0  0  0  0  0  0  0
   -4.0515    2.0220    1.0184 H   0  0  0  0  0  0  0  0  0  0  0  0
   -5.7943    4.2192    0.8611 H   0  0  0  0  0  0  0  0  0  0  0  0
   -6.0434    2.6746    1.7187 H   0  0  0  0  0  0  0  0  0  0  0  0
   -6.9698    3.2482   -1.1313 H   0  0  0  0  0  0  0  0  0  0  0  0
   -9.1646    2.5646   -0.4771 H   0  0  0  0  0  0  0  0  0  0  0  0
   -8.6431    3.9479    0.5390 H   0  0  0  0  0  0  0  0  0  0  0  0
   -8.7639    0.9716    1.3291 H   0  0  0  0  0  0  0  0  0  0  0  0
  -10.3721    3.1836    2.1354 H   0  0  0  0  0  0  0  0  0  0  0  0
   -7.2327    1.6604    4.3970 H   0  0  0  0  0  0  0  0  0  0  0  0
   -6.9767    0.7167    2.9021 H   0  0  0  0  0  0  0  0  0  0  0  0
   -8.5949    0.6829    3.7704 H   0  0  0  0  0  0  0  0  0  0  0  0
   -7.2669    0.6883   -1.1898 H   0  0  0  0  0  0  0  0  0  0  0  0
   -6.7129    0.6580    0.5004 H   0  0  0  0  0  0  0  0  0  0  0  0
  1  2  1  0  0  0  0
  1 58  1  0  0  0  0
  1 59  1  0  0  0  0
  1 60  1  0  0  0  0
  2  3  1  0  0  0  0
  2 61  1  0  0  0  0
  3 62  1  0  0  0  0
  3 63  1  0  0  0  0
  4  3  1  0  0  0  0
  4  5  1  1  0  0  0
  4 49  1  0  0  0  0
  5  6  1  0  0  0  0
  6  7  2  0  0  0  0
  7  8  1  0  0  0  0
  7 64  1  0  0  0  0
  8  9  2  0  0  0  0
  9 10  1  0  0  0  0
  9 65  1  0  0  0  0
 10 11  2  0  0  0  0
 10 13  1  0  0  0  0
 11 12  1  0  0  0  0
 11  6  1  0  0  0  0
 12 66  1  0  0  0  0
 13 14  1  0  0  0  0
 13 67  1  0  0  0  0
 14 15  1  0  0  0  0
 14 17  2  0  0  0  0
 15 16  1  0  0  0  0
 15 68  1  0  0  0  0
 16 69  1  0  0  0  0
 16 70  1  0  0  0  0
 16 71  1  0  0  0  0
 17 18  1  0  0  0  0
 18 19  1  0  0  0  0
 18 72  1  0  0  0  0
 18 73  1  0  0  0  0
 19 20  1  0  0  0  0
 21 20  1  0  0  0  0
 21 22  1  0  0  0  0
 21 74  1  6  0  0  0
 22 23  2  0  0  0  0
 22 75  1  0  0  0  0
 23 24  1  0  0  0  0
 23 76  1  0  0  0  0
 24 25  1  0  0  0  0
 24 77  1  6  0  0  0
 25 26  1  0  0  0  0
 25 78  1  0  0  0  0
 25 79  1  0  0  0  0
 26 80  1  0  0  0  0
 26 81  1  0  0  0  0
 27 26  1  0  0  0  0
 27 28  1  0  0  0  0
 27 21  1  0  0  0  0
 27 82  1  6  0  0  0
 28 29  1  6  0  0  0
 28 39  1  0  0  0  0
 28 24  1  0  0  0  0
 29 30  1  0  0  0  0
 29 83  1  0  0  0  0
 29 84  1  0  0  0  0
 30 31  2  0  0  0  0
 31 32  1  0  0  0  0
 31 85  1  0  0  0  0
 32 33  2  0  0  0  0
 32 86  1  0  0  0  0
 33 34  1  0  0  0  0
 33 35  1  0  0  0  0
 34 87  1  0  0  0  0
 35 36  1  0  0  0  0
 35 38  2  0  0  0  0
 36 37  1  0  0  0  0
 37 88  1  0  0  0  0
 37 89  1  0  0  0  0
 37 90  1  0  0  0  0
 38 30  1  0  0  0  0
 38 91  1  0  0  0  0
 39 40  2  0  0  0  0
 39 41  1  0  0  0  0
 41 42  2  0  0  0  0
 41 92  1  0  0  0  0
 42 43  1  0  0  0  0
 42 93  1  0  0  0  0
 43 44  1  0  0  0  0
 43 94  1  0  0  0  0
 43 95  1  0  0  0  0
 44 45  1  0  0  0  0
 44  8  1  0  0  0  0
 45 46  1  0  0  0  0
 45 96  1  0  0  0  0
 45 97  1  0  0  0  0
 46 47  1  0  0  0  0
 46 98  1  0  0  0  0
 46 99  1  0  0  0  0
 47 48  1  0  0  0  0
 47100  1  0  0  0  0
 47101  1  0  0  0  0
 48 44  1  0  0  0  0
 48102  1  0  0  0  0
 48103  1  0  0  0  0
 49 50  1  0  0  0  0
 49104  1  0  0  0  0
 49105  1  0  0  0  0
 50 51  1  0  0  0  0
 50106  1  0  0  0  0
 50107  1  0  0  0  0
 51 52  1  0  0  0  0
 51 57  1  0  0  0  0
 51108  1  6  0  0  0
 52 53  1  0  0  0  0
 52109  1  0  0  0  0
 52110  1  0  0  0  0
 53 54  1  0  0  0  0
 53 55  1  0  0  0  0
 53111  1  6  0  0  0
 54112  1  0  0  0  0
 55 56  1  0  0  0  0
 56113  1  0  0  0  0
 56114  1  0  0  0  0
 56115  1  0  0  0  0
 57  4  1  0  0  0  0
 57116  1  0  0  0  0
 57117  1  0  0  0  0
M  END
>  <IDENTIFIER>
CNP0376423.2

>  <Energy>
1593.59

$$$$
