
 OpenBabel09112508393D

 83 85  0  0  0  0  0  0  0  0999 V2000
   -0.6695   -1.4627   -1.0445 C   0  0  0  0  0  0  0  0  0  0  0  0
   -1.6530   -0.5568   -1.1945 C   0  0  0  0  0  0  0  0  0  0  0  0
   -2.7053   -0.7727   -2.2393 C   0  0  0  0  0  0  0  0  0  0  0  0
   -4.0505   -0.9477   -1.5357 C   0  0  0  0  0  0  0  0  0  0  0  0
   -4.3688    0.2526   -0.5924 C   0  0  2  0  0  0  0  0  0  0  0  0
   -3.2095    0.4829    0.4811 C   0  0  2  0  0  0  0  0  0  0  0  0
   -3.0324   -0.7015    1.4777 C   0  0  0  0  0  0  0  0  0  0  0  0
   -3.5616    1.7794    1.2779 C   0  0  0  0  0  0  0  0  0  0  0  0
   -4.9567    1.7395    1.9133 C   0  0  0  0  0  0  0  0  0  0  0  0
   -6.0295    1.5376    0.8375 C   0  0  0  0  0  0  0  0  0  0  0  0
   -5.8329    0.2269    0.0166 C   0  0  1  0  0  0  0  0  0  0  0  0
   -6.8954    0.2470   -1.1101 C   0  0  0  0  0  0  0  0  0  0  0  0
   -6.1142   -1.0219    0.8547 C   0  0  0  0  0  0  0  0  0  0  0  0
   -6.4611   -0.9264    2.0251 O   0  0  0  0  0  0  0  0  0  0  0  0
   -6.0188   -2.2463    0.2771 O   0  0  0  0  0  0  0  0  0  0  0  0
   -6.1702   -3.4364    0.9544 C   0  0  0  0  0  0  0  0  0  0  0  0
   -1.8555    0.6791   -0.3154 C   0  0  1  0  0  0  0  0  0  0  0  0
   -0.6066    1.1044    0.5302 C   0  0  0  0  0  0  0  0  0  0  0  0
    0.4806    1.7984   -0.3244 C   0  0  0  0  0  0  0  0  0  0  0  0
    1.1879    0.9386   -1.3340 C   0  0  0  0  0  0  0  0  0  0  0  0
    2.1682   -0.0252   -1.1329 C   0  0  0  0  0  0  0  0  0  0  0  0
    2.7793   -0.4752    0.1778 C   0  0  0  0  0  0  0  0  0  0  0  0
    4.1648    0.0373    0.3947 N   0  0  0  0  0  0  0  0  0  0  0  0
    4.1184    1.4968    0.6837 C   0  0  0  0  0  0  0  0  0  0  0  0
    5.2144    2.0129    1.6464 C   0  0  0  0  0  0  0  0  0  0  0  0
    6.6548    2.1225    1.1228 C   0  0  0  0  0  0  0  0  0  0  0  0
    6.7539    2.9924   -0.1327 C   0  0  0  0  0  0  0  0  0  0  0  0
    5.0875   -0.2866   -0.7256 C   0  0  0  0  0  0  0  0  0  0  0  0
    5.3128   -1.7980   -0.9121 C   0  0  0  0  0  0  0  0  0  0  0  0
    5.9401   -2.4353    0.3346 C   0  0  0  0  0  0  0  0  0  0  0  0
    6.2266   -3.9174    0.1066 C   0  0  0  0  0  0  0  0  0  0  0  0
    2.5354   -0.5127   -2.2987 O   0  0  0  0  0  0  0  0  0  0  0  0
    1.8575    0.0852   -3.2509 C   0  0  0  0  0  0  0  0  0  0  0  0
    1.0064    1.0161   -2.6989 C   0  0  0  0  0  0  0  0  0  0  0  0
   -0.6092   -2.3319   -1.6904 H   0  0  0  0  0  0  0  0  0  0  0  0
    0.0741   -1.3839   -0.2666 H   0  0  0  0  0  0  0  0  0  0  0  0
   -2.5056   -1.6722   -2.8626 H   0  0  0  0  0  0  0  0  0  0  0  0
   -2.7312    0.1105   -2.9140 H   0  0  0  0  0  0  0  0  0  0  0  0
   -4.0144   -1.8952   -0.9643 H   0  0  0  0  0  0  0  0  0  0  0  0
   -4.8134   -1.0513   -2.3310 H   0  0  0  0  0  0  0  0  0  0  0  0
   -4.3533    1.1537   -1.2503 H   0  0  0  0  0  0  0  0  0  0  0  0
   -3.9183   -0.8913    2.1011 H   0  0  0  0  0  0  0  0  0  0  0  0
   -2.2067   -0.4850    2.1866 H   0  0  0  0  0  0  0  0  0  0  0  0
   -2.7867   -1.6491    0.9594 H   0  0  0  0  0  0  0  0  0  0  0  0
   -3.5307    2.6513    0.5865 H   0  0  0  0  0  0  0  0  0  0  0  0
   -2.8376    1.9652    2.0962 H   0  0  0  0  0  0  0  0  0  0  0  0
   -5.1445    2.7059    2.4295 H   0  0  0  0  0  0  0  0  0  0  0  0
   -5.0113    0.9504    2.6869 H   0  0  0  0  0  0  0  0  0  0  0  0
   -5.9740    2.4122    0.1500 H   0  0  0  0  0  0  0  0  0  0  0  0
   -7.0369    1.5555    1.3091 H   0  0  0  0  0  0  0  0  0  0  0  0
   -7.9176    0.3092   -0.6769 H   0  0  0  0  0  0  0  0  0  0  0  0
   -6.8697   -0.6697   -1.7324 H   0  0  0  0  0  0  0  0  0  0  0  0
   -6.7506    1.1253   -1.7760 H   0  0  0  0  0  0  0  0  0  0  0  0
   -6.0371   -4.2768    0.2424 H   0  0  0  0  0  0  0  0  0  0  0  0
   -7.1843   -3.4986    1.4015 H   0  0  0  0  0  0  0  0  0  0  0  0
   -5.3989   -3.5192    1.7501 H   0  0  0  0  0  0  0  0  0  0  0  0
   -2.0283    1.5417   -0.9983 H   0  0  0  0  0  0  0  0  0  0  0  0
   -0.2094    0.2854    1.1620 H   0  0  0  0  0  0  0  0  0  0  0  0
   -0.9070    1.9099    1.2230 H   0  0  0  0  0  0  0  0  0  0  0  0
    1.2396    2.2697    0.3279 H   0  0  0  0  0  0  0  0  0  0  0  0
   -0.0146    2.6357   -0.8635 H   0  0  0  0  0  0  0  0  0  0  0  0
    2.7503   -1.5831    0.2300 H   0  0  0  0  0  0  0  0  0  0  0  0
    2.1340   -0.1528    1.0209 H   0  0  0  0  0  0  0  0  0  0  0  0
    3.1967    1.7184    1.2616 H   0  0  0  0  0  0  0  0  0  0  0  0
    4.0477    2.0997   -0.2477 H   0  0  0  0  0  0  0  0  0  0  0  0
    5.2070    1.3968    2.5721 H   0  0  0  0  0  0  0  0  0  0  0  0
    4.9163    3.0458    1.9365 H   0  0  0  0  0  0  0  0  0  0  0  0
    7.1023    1.1271    0.9521 H   0  0  0  0  0  0  0  0  0  0  0  0
    7.2680    2.5957    1.9198 H   0  0  0  0  0  0  0  0  0  0  0  0
    6.1971    2.5406   -0.9791 H   0  0  0  0  0  0  0  0  0  0  0  0
    7.8168    3.0915   -0.4351 H   0  0  0  0  0  0  0  0  0  0  0  0
    6.3446    4.0058    0.0679 H   0  0  0  0  0  0  0  0  0  0  0  0
    6.0808    0.1452   -0.5592 H   0  0  0  0  0  0  0  0  0  0  0  0
    4.7408    0.1671   -1.6754 H   0  0  0  0  0  0  0  0  0  0  0  0
    6.0066   -1.9336   -1.7710 H   0  0  0  0  0  0  0  0  0  0  0  0
    4.3633   -2.3097   -1.1697 H   0  0  0  0  0  0  0  0  0  0  0  0
    5.2524   -2.3287    1.2012 H   0  0  0  0  0  0  0  0  0  0  0  0
    6.8971   -1.9216    0.5725 H   0  0  0  0  0  0  0  0  0  0  0  0
    5.2858   -4.4638   -0.1129 H   0  0  0  0  0  0  0  0  0  0  0  0
    6.6891   -4.3510    1.0184 H   0  0  0  0  0  0  0  0  0  0  0  0
    6.9315   -4.0461   -0.7429 H   0  0  0  0  0  0  0  0  0  0  0  0
    1.9684   -0.1284   -4.3052 H   0  0  0  0  0  0  0  0  0  0  0  0
    0.3276    1.6685   -3.2317 H   0  0  0  0  0  0  0  0  0  0  0  0
  1  2  2  0  0  0  0
  1 35  1  0  0  0  0
  1 36  1  0  0  0  0
  2  3  1  0  0  0  0
  3  4  1  0  0  0  0
  3 37  1  0  0  0  0
  3 38  1  0  0  0  0
  4 39  1  0  0  0  0
  4 40  1  0  0  0  0
  5  4  1  0  0  0  0
  5  6  1  0  0  0  0
  5 41  1  6  0  0  0
  6  7  1  1  0  0  0
  6  8  1  0  0  0  0
  6 17  1  0  0  0  0
  7 42  1  0  0  0  0
  7 43  1  0  0  0  0
  7 44  1  0  0  0  0
  8  9  1  0  0  0  0
  8 45  1  0  0  0  0
  8 46  1  0  0  0  0
  9 10  1  0  0  0  0
  9 47  1  0  0  0  0
  9 48  1  0  0  0  0
 10 11  1  0  0  0  0
 10 49  1  0  0  0  0
 10 50  1  0  0  0  0
 11 12  1  0  0  0  0
 11 13  1  1  0  0  0
 11  5  1  0  0  0  0
 12 51  1  0  0  0  0
 12 52  1  0  0  0  0
 12 53  1  0  0  0  0
 13 14  2  0  0  0  0
 13 15  1  0  0  0  0
 15 16  1  0  0  0  0
 16 54  1  0  0  0  0
 16 55  1  0  0  0  0
 16 56  1  0  0  0  0
 17 18  1  0  0  0  0
 17  2  1  0  0  0  0
 17 57  1  6  0  0  0
 18 19  1  0  0  0  0
 18 58  1  0  0  0  0
 18 59  1  0  0  0  0
 19 20  1  0  0  0  0
 19 60  1  0  0  0  0
 19 61  1  0  0  0  0
 20 21  2  0  0  0  0
 21 22  1  0  0  0  0
 21 32  1  0  0  0  0
 22 23  1  0  0  0  0
 22 62  1  0  0  0  0
 22 63  1  0  0  0  0
 23 24  1  0  0  0  0
 23 28  1  0  0  0  0
 24 25  1  0  0  0  0
 24 64  1  0  0  0  0
 24 65  1  0  0  0  0
 25 26  1  0  0  0  0
 25 66  1  0  0  0  0
 25 67  1  0  0  0  0
 26 27  1  0  0  0  0
 26 68  1  0  0  0  0
 26 69  1  0  0  0  0
 27 70  1  0  0  0  0
 27 71  1  0  0  0  0
 27 72  1  0  0  0  0
 28 29  1  0  0  0  0
 28 73  1  0  0  0  0
 28 74  1  0  0  0  0
 29 30  1  0  0  0  0
 29 75  1  0  0  0  0
 29 76  1  0  0  0  0
 30 31  1  0  0  0  0
 30 77  1  0  0  0  0
 30 78  1  0  0  0  0
 31 79  1  0  0  0  0
 31 80  1  0  0  0  0
 31 81  1  0  0  0  0
 32 33  1  0  0  0  0
 33 34  2  0  0  0  0
 33 82  1  0  0  0  0
 34 20  1  0  0  0  0
 34 83  1  0  0  0  0
M  END
>  <IDENTIFIER>
CNP0346133.2

>  <Energy>
578.187

$$$$
