
 OpenBabel09072508492D

153152  0  0  0  0  0  0  0  0999 V2000
   -3.0000   -5.1962    0.0000 C   0  0  0  0  0  0  0  0  0  0  0  0
   -2.2500   -3.8971    0.0000 C   0  0  0  0  0  0  0  0  0  0  0  0
   -0.6789   -3.6539   -0.0750 C   0  0  0  0  0  0  0  0  0  0  0  0
   -0.5007   -2.0886   -0.0676 C   0  0  0  0  0  0  0  0  0  0  0  0
    0.6408   -1.0514   -0.1562 C   0  0  0  0  0  0  0  0  0  0  0  0
    1.9888   -0.8250   -0.2422 C   0  0  0  0  0  0  0  0  0  0  0  0
    3.3008   -1.5868   -0.2869 C   0  0  0  0  0  0  0  0  0  0  0  0
    3.2746   -3.0790   -0.1433 C   0  0  0  0  0  0  0  0  0  0  0  0
    4.7217   -3.7086   -0.1940 C   0  0  0  0  0  0  0  0  0  0  0  0
    4.5000   -5.1962    0.0000 C   0  0  0  0  0  0  0  0  0  0  0  0
    5.2500   -6.4952    0.0000 C   0  0  0  0  0  0  0  0  0  0  0  0
    6.0000   -7.7942    0.0000 C   0  0  0  0  0  0  0  0  0  0  0  0
    6.1206   -9.2879   -0.7341 C   0  0  0  0  0  0  0  0  0  0  0  0
    7.0659  -10.4567   -0.0355 C   0  0  0  0  0  0  0  0  0  0  0  0
    7.5889  -10.1533    1.0252 O   0  0  0  0  0  0  0  0  0  0  0  0
    7.2926  -11.7969   -0.5226 O   0  0  0  0  0  0  0  0  0  0  0  0
    7.7917  -13.0100    0.1639 C   0  0  0  0  0  0  0  0  0  0  0  0
    9.0131  -13.9444   -0.4879 C   0  0  1  0  0  0  0  0  0  0  0  0
   10.2692  -13.0091   -0.4756 C   0  0  0  0  0  0  0  0  0  0  0  0
   11.3519  -13.4592   -1.2240 O   0  0  0  0  0  0  0  0  0  0  0  0
   12.5616  -12.8038   -1.2405 C   0  0  0  0  0  0  0  0  0  0  0  0
   12.9602  -12.3087   -2.2829 O   0  0  0  0  0  0  0  0  0  0  0  0
   13.4462  -12.7894    0.0000 C   0  0  0  0  0  0  0  0  0  0  0  0
   14.7452  -12.0394    0.0000 C   0  0  0  0  0  0  0  0  0  0  0  0
   16.0442  -11.2894    0.0000 C   0  0  0  0  0  0  0  0  0  0  0  0
   17.3433  -10.5394    0.0000 C   0  0  0  0  0  0  0  0  0  0  0  0
   18.6423   -9.7894    0.0000 C   0  0  0  0  0  2  0  0  0  0  0  0
   19.9413   -9.0394    0.0000 C   0  0  0  0  0  0  0  0  0  0  0  0
   21.4651   -8.9610    0.2085 C   0  0  0  0  0  0  0  0  0  0  0  0
   21.9240   -7.4300    0.0600 C   0  0  0  0  0  0  0  0  0  0  0  0
   23.4431   -7.2785    0.1812 C   0  0  0  0  0  0  0  0  0  0  0  0
   24.2704   -5.9769    0.0518 C   0  0  0  0  0  0  0  0  0  0  0  0
   24.2695   -4.6004   -0.0971 C   0  0  0  0  0  0  0  0  0  0  0  0
   23.4406   -3.2993   -0.2222 C   0  0  0  0  0  0  0  0  0  0  0  0
   21.9232   -3.1477   -0.0820 C   0  0  0  0  0  0  0  0  0  0  0  0
   21.4601   -1.6192   -0.2416 C   0  0  0  0  0  0  0  0  0  0  0  0
   19.9413   -1.5394    0.0000 C   0  0  0  0  0  0  0  0  0  0  0  0
   18.6423   -0.7894    0.0000 C   0  0  0  0  0  2  0  0  0  0  0  0
   17.3433   -0.0394    0.0000 C   0  0  0  0  0  0  0  0  0  0  0  0
   16.1693   -1.0169    0.0724 C   0  0  0  0  0  0  0  0  0  0  0  0
   14.8362   -0.2745    0.0736 C   0  0  0  0  0  0  0  0  0  0  0  0
    9.3738  -15.2248    0.1718 O   0  0  0  0  0  0  0  0  0  0  0  0
    9.2284  -16.6152   -0.2005 C   0  0  0  0  0  0  0  0  0  0  0  0
    8.3384  -16.8920   -0.9890 O   0  0  0  0  0  0  0  0  0  0  0  0
   10.1506  -17.8881    0.3325 C   0  0  0  0  0  0  0  0  0  0  0  0
    9.7500  -19.4856    0.0000 C   0  0  0  0  0  0  0  0  0  0  0  0
   10.5000  -20.7846    0.0000 C   0  0  0  0  0  2  0  0  0  0  0  0
   11.2500  -22.0836    0.0000 C   0  0  0  0  0  0  0  0  0  0  0  0
   10.9716  -23.5305    0.0000 C   0  0  0  0  0  0  0  0  0  0  0  0
   12.2314  -24.5966    0.0000 C   0  0  0  0  0  0  0  0  0  0  0  0
   12.0000  -25.9808    0.0000 C   0  0  0  0  0  0  0  0  0  0  0  0
   10.5000  -25.9808    0.0000 C   0  0  0  0  0  2  0  0  0  0  0  0
    9.0000  -25.9808    0.0000 C   0  0  0  0  0  0  0  0  0  0  0  0
    8.5566  -27.3236   -0.0000 C   0  0  0  0  0  0  0  0  0  0  0  0
    9.6148  -28.5135   -0.0000 C   0  0  0  0  0  0  0  0  0  0  0  0
    9.7771  -30.0638   -0.0000 C   0  0  0  0  0  0  0  0  0  0  0  0
    9.0000  -31.1769    0.0000 C   0  0  0  0  0  0  0  0  0  0  0  0
    7.5000  -31.1769    0.0000 C   0  0  0  0  0  2  0  0  0  0  0  0
    6.0000  -31.1769    0.0000 C   0  0  0  0  0  0  0  0  0  0  0  0
    5.2500  -32.4760    0.0000 C   0  0  0  0  0  0  0  0  0  0  0  0
    6.0000  -33.7750    0.0000 C   0  0  0  0  0  2  0  0  0  0  0  0
    6.7500  -35.0740    0.0000 C   0  0  0  0  0  0  0  0  0  0  0  0
    7.5000  -36.3731    0.0000 C   0  0  0  0  0  0  0  0  0  0  0  0
    8.2500  -37.6721    0.0000 C   0  0  0  0  0  2  0  0  0  0  0  0
    9.0000  -38.9711    0.0000 C   0  0  0  0  0  0  0  0  0  0  0  0
   -4.0280   -4.7645   -0.0217 H   0  0  0  0  0  0  0  0  0  0  0  0
   -2.6638   -5.5180   -1.0103 H   0  0  0  0  0  0  0  0  0  0  0  0
   -3.5350   -6.1229    0.0000 H   0  0  0  0  0  0  0  0  0  0  0  0
   -2.5871   -3.3898    0.9330 H   0  0  0  0  0  0  0  0  0  0  0  0
   -2.6755   -3.3170   -0.8563 H   0  0  0  0  0  0  0  0  0  0  0  0
   -0.1664   -4.1118    0.7971 H   0  0  0  0  0  0  0  0  0  0  0  0
   -0.2687   -4.0794   -1.0151 H   0  0  0  0  0  0  0  0  0  0  0  0
   -1.1264   -1.7615   -0.9276 H   0  0  0  0  0  0  0  0  0  0  0  0
   -1.0161   -1.7678    0.8649 H   0  0  0  0  0  0  0  0  0  0  0  0
    0.1397   -0.0812   -0.1512 H   0  0  0  0  0  0  0  0  0  0  0  0
    2.2270    0.2377   -0.2970 H   0  0  0  0  0  0  0  0  0  0  0  0
    3.8003   -1.3329   -1.2472 H   0  0  0  0  0  0  0  0  0  0  0  0
    3.9300   -1.1905    0.5403 H   0  0  0  0  0  0  0  0  0  0  0  0
    2.7869   -3.3132    0.8295 H   0  0  0  0  0  0  0  0  0  0  0  0
    2.6438   -3.4887   -0.9636 H   0  0  0  0  0  0  0  0  0  0  0  0
    5.3670   -3.3093    0.6178 H   0  0  0  0  0  0  0  0  0  0  0  0
    5.1948   -3.5133   -1.1802 H   0  0  0  0  0  0  0  0  0  0  0  0
    3.7351   -5.4368   -0.7800 H   0  0  0  0  0  0  0  0  0  0  0  0
    3.9387   -5.2631    0.9656 H   0  0  0  0  0  0  0  0  0  0  0  0
    5.8960   -6.0602    0.8095 H   0  0  0  0  0  0  0  0  0  0  0  0
    5.6669   -6.2662   -1.0115 H   0  0  0  0  0  0  0  0  0  0  0  0
    5.7586   -8.1539    1.0284 H   0  0  0  0  0  0  0  0  0  0  0  0
    7.0901   -7.5242    0.0092 H   0  0  0  0  0  0  0  0  0  0  0  0
    5.0950   -9.7085   -0.7964 H   0  0  0  0  0  0  0  0  0  0  0  0
    6.4818   -9.1218   -1.7703 H   0  0  0  0  0  0  0  0  0  0  0  0
    8.0637  -12.7517    1.2094 H   0  0  0  0  0  0  0  0  0  0  0  0
    6.9233  -13.6974    0.2320 H   0  0  0  0  0  0  0  0  0  0  0  0
    8.7125  -14.1596   -1.5356 H   0  0  0  0  0  0  0  0  0  0  0  0
    9.9813  -12.0163   -0.8874 H   0  0  0  0  0  0  0  0  0  0  0  0
   10.5708  -12.8642    0.5841 H   0  0  0  0  0  0  0  0  0  0  0  0
   13.6073  -13.8731    0.2370 H   0  0  0  0  0  0  0  0  0  0  0  0
   12.8382  -12.3599    0.8271 H   0  0  0  0  0  0  0  0  0  0  0  0
   15.0210  -12.5148    0.9819 H   0  0  0  0  0  0  0  0  0  0  0  0
   15.1310  -12.7085   -0.8134 H   0  0  0  0  0  0  0  0  0  0  0  0
   15.7282  -10.7466   -0.9349 H   0  0  0  0  0  0  0  0  0  0  0  0
   15.6736  -10.6141    0.8238 H   0  0  0  0  0  0  0  0  0  0  0  0
   17.7430  -11.1417   -0.8529 H   0  0  0  0  0  0  0  0  0  0  0  0
   17.6873  -11.0524    0.9317 H   0  0  0  0  0  0  0  0  0  0  0  0
   19.6119   -8.2645    0.7254 H   0  0  0  0  0  0  0  0  0  0  0  0
   19.8410   -8.5750   -1.0048 H   0  0  0  0  0  0  0  0  0  0  0  0
   21.9681   -9.5958   -0.5528 H   0  0  0  0  0  0  0  0  0  0  0  0
   21.7282   -9.3333    1.2215 H   0  0  0  0  0  0  0  0  0  0  0  0
   21.6215   -7.0414   -0.9368 H   0  0  0  0  0  0  0  0  0  0  0  0
   21.4399   -6.8085    0.8439 H   0  0  0  0  0  0  0  0  0  0  0  0
   23.7292   -7.7218    1.1597 H   0  0  0  0  0  0  0  0  0  0  0  0
   23.8508   -7.9454   -0.6111 H   0  0  0  0  0  0  0  0  0  0  0  0
   25.3067   -6.3177    0.0975 H   0  0  0  0  0  0  0  0  0  0  0  0
   25.3053   -4.2592   -0.1505 H   0  0  0  0  0  0  0  0  0  0  0  0
   23.8572   -2.6285    0.5622 H   0  0  0  0  0  0  0  0  0  0  0  0
   23.7155   -2.8604   -1.2058 H   0  0  0  0  0  0  0  0  0  0  0  0
   21.4282   -3.7780   -0.8519 H   0  0  0  0  0  0  0  0  0  0  0  0
   21.6357   -3.5258    0.9232 H   0  0  0  0  0  0  0  0  0  0  0  0
   21.7011   -1.2628   -1.2657 H   0  0  0  0  0  0  0  0  0  0  0  0
   21.9781   -0.9718    0.4988 H   0  0  0  0  0  0  0  0  0  0  0  0
   19.8612   -1.9808    1.0169 H   0  0  0  0  0  0  0  0  0  0  0  0
   19.5978   -2.3314   -0.7000 H   0  0  0  0  0  0  0  0  0  0  0  0
   17.2812    0.5644   -0.9303 H   0  0  0  0  0  0  0  0  0  0  0  0
   17.3268    0.6435    0.8760 H   0  0  0  0  0  0  0  0  0  0  0  0
   16.1990   -1.7017   -0.8035 H   0  0  0  0  0  0  0  0  0  0  0  0
   16.2446   -1.6227    1.0022 H   0  0  0  0  0  0  0  0  0  0  0  0
   14.7723    0.4023    0.9523 H   0  0  0  0  0  0  0  0  0  0  0  0
   14.0028   -1.0063    0.1266 H   0  0  0  0  0  0  0  0  0  0  0  0
   14.7267    0.3231   -0.8565 H   0  0  0  0  0  0  0  0  0  0  0  0
   11.1640  -17.7064   -0.0816 H   0  0  0  0  0  0  0  0  0  0  0  0
   10.2313  -17.8163    1.4370 H   0  0  0  0  0  0  0  0  0  0  0  0
    8.7955  -19.6802    0.5315 H   0  0  0  0  0  0  0  0  0  0  0  0
    9.4695  -19.4282   -1.0720 H   0  0  0  0  0  0  0  0  0  0  0  0
   11.9187  -21.9536   -0.8781 H   0  0  0  0  0  0  0  0  0  0  0  0
   11.9188  -21.9535    0.8780 H   0  0  0  0  0  0  0  0  0  0  0  0
   10.3528  -23.6916   -0.9124 H   0  0  0  0  0  0  0  0  0  0  0  0
   10.3529  -23.6916    0.9125 H   0  0  0  0  0  0  0  0  0  0  0  0
   13.2507  -24.2247   -0.0000 H   0  0  0  0  0  0  0  0  0  0  0  0
   12.7159  -26.7953   -0.0000 H   0  0  0  0  0  0  0  0  0  0  0  0
    8.3530  -25.1104    0.0000 H   0  0  0  0  0  0  0  0  0  0  0  0
    7.4951  -27.5461    0.0000 H   0  0  0  0  0  0  0  0  0  0  0  0
   10.2119  -28.2852   -0.9101 H   0  0  0  0  0  0  0  0  0  0  0  0
   10.2119  -28.2852    0.9101 H   0  0  0  0  0  0  0  0  0  0  0  0
   10.8350  -30.3225   -0.0000 H   0  0  0  0  0  0  0  0  0  0  0  0
    9.4838  -32.1495   -0.0000 H   0  0  0  0  0  0  0  0  0  0  0  0
    5.4599  -30.2364   -0.0000 H   0  0  0  0  0  0  0  0  0  0  0  0
    4.1655  -32.4779   -0.0000 H   0  0  0  0  0  0  0  0  0  0  0  0
    7.3058  -34.7046    0.8958 H   0  0  0  0  0  0  0  0  0  0  0  0
    7.3064  -34.7042   -0.8953 H   0  0  0  0  0  0  0  0  0  0  0  0
    6.9439  -36.7422    0.8956 H   0  0  0  0  0  0  0  0  0  0  0  0
    6.9448  -36.7418   -0.8964 H   0  0  0  0  0  0  0  0  0  0  0  0
    8.2487  -39.4970   -0.6242 H   0  0  0  0  0  0  0  0  0  0  0  0
    9.8175  -38.5914   -0.6467 H   0  0  0  0  0  0  0  0  0  0  0  0
    9.5350  -39.8977    0.0000 H   0  0  0  0  0  0  0  0  0  0  0  0
  1  2  1  0  0  0  0
  1 66  1  0  0  0  0
  1 67  1  0  0  0  0
  1 68  1  0  0  0  0
  2  3  1  0  0  0  0
  2 69  1  0  0  0  0
  2 70  1  0  0  0  0
  3  4  1  0  0  0  0
  3 71  1  0  0  0  0
  3 72  1  0  0  0  0
  4  5  1  0  0  0  0
  4 73  1  0  0  0  0
  4 74  1  0  0  0  0
  5  6  2  0  0  0  0
  5 75  1  0  0  0  0
  6  7  1  0  0  0  0
  6 76  1  0  0  0  0
  7  8  1  0  0  0  0
  7 77  1  0  0  0  0
  7 78  1  0  0  0  0
  8  9  1  0  0  0  0
  8 79  1  0  0  0  0
  8 80  1  0  0  0  0
  9 10  1  0  0  0  0
  9 81  1  0  0  0  0
  9 82  1  0  0  0  0
 10 11  1  0  0  0  0
 10 83  1  0  0  0  0
 10 84  1  0  0  0  0
 11 12  1  0  0  0  0
 11 85  1  0  0  0  0
 11 86  1  0  0  0  0
 12 13  1  0  0  0  0
 12 87  1  0  0  0  0
 12 88  1  0  0  0  0
 13 14  1  0  0  0  0
 13 89  1  0  0  0  0
 13 90  1  0  0  0  0
 14 15  2  0  0  0  0
 14 16  1  0  0  0  0
 16 17  1  0  0  0  0
 17 91  1  0  0  0  0
 17 92  1  0  0  0  0
 18 17  1  0  0  0  0
 18 19  1  0  0  0  0
 18 42  1  0  0  0  0
 18 93  1  6  0  0  0
 19 20  1  0  0  0  0
 19 94  1  0  0  0  0
 19 95  1  0  0  0  0
 20 21  1  0  0  0  0
 21 22  2  0  0  0  0
 21 23  1  0  0  0  0
 23 24  1  0  0  0  0
 23 96  1  0  0  0  0
 23 97  1  0  0  0  0
 24 25  1  0  0  0  0
 24 98  1  0  0  0  0
 24 99  1  0  0  0  0
 25 26  1  0  0  0  0
 25100  1  0  0  0  0
 25101  1  0  0  0  0
 26 27  1  0  0  0  0
 26102  1  0  0  0  0
 26103  1  0  0  0  0
 27 28  1  0  0  0  0
 28 29  1  0  0  0  0
 28104  1  0  0  0  0
 28105  1  0  0  0  0
 29 30  1  0  0  0  0
 29106  1  0  0  0  0
 29107  1  0  0  0  0
 30 31  1  0  0  0  0
 30108  1  0  0  0  0
 30109  1  0  0  0  0
 31 32  1  0  0  0  0
 31110  1  0  0  0  0
 31111  1  0  0  0  0
 32 33  2  0  0  0  0
 32112  1  0  0  0  0
 33 34  1  0  0  0  0
 33113  1  0  0  0  0
 34 35  1  0  0  0  0
 34114  1  0  0  0  0
 34115  1  0  0  0  0
 35 36  1  0  0  0  0
 35116  1  0  0  0  0
 35117  1  0  0  0  0
 36 37  1  0  0  0  0
 36118  1  0  0  0  0
 36119  1  0  0  0  0
 37 38  1  0  0  0  0
 37120  1  0  0  0  0
 37121  1  0  0  0  0
 38 39  1  0  0  0  0
 39 40  1  0  0  0  0
 39122  1  0  0  0  0
 39123  1  0  0  0  0
 40 41  1  0  0  0  0
 40124  1  0  0  0  0
 40125  1  0  0  0  0
 41126  1  0  0  0  0
 41127  1  0  0  0  0
 41128  1  0  0  0  0
 42 43  1  0  0  0  0
 43 44  2  0  0  0  0
 43 45  1  0  0  0  0
 45 46  1  0  0  0  0
 45129  1  0  0  0  0
 45130  1  0  0  0  0
 46 47  1  0  0  0  0
 46131  1  0  0  0  0
 46132  1  0  0  0  0
 47 48  1  0  0  0  0
 48 49  1  0  0  0  0
 48133  1  0  0  0  0
 48134  1  0  0  0  0
 49 50  1  0  0  0  0
 49135  1  0  0  0  0
 49136  1  0  0  0  0
 50 51  2  0  0  0  0
 50137  1  0  0  0  0
 51 52  1  0  0  0  0
 51138  1  0  0  0  0
 52 53  1  0  0  0  0
 53 54  2  0  0  0  0
 53139  1  0  0  0  0
 54 55  1  0  0  0  0
 54140  1  0  0  0  0
 55 56  1  0  0  0  0
 55141  1  0  0  0  0
 55142  1  0  0  0  0
 56 57  2  0  0  0  0
 56143  1  0  0  0  0
 57 58  1  0  0  0  0
 57144  1  0  0  0  0
 58 59  1  0  0  0  0
 59 60  2  0  0  0  0
 59145  1  0  0  0  0
 60 61  1  0  0  0  0
 60146  1  0  0  0  0
 61 62  1  0  0  0  0
 62 63  1  0  0  0  0
 62147  1  0  0  0  0
 62148  1  0  0  0  0
 63 64  1  0  0  0  0
 63149  1  0  0  0  0
 63150  1  0  0  0  0
 64 65  1  0  0  0  0
 65151  1  0  0  0  0
 65152  1  0  0  0  0
 65153  1  0  0  0  0
M  END
>  <IDENTIFIER>
CNP0559425.1

>  <Energy>
7513.41

$$$$
