
 OpenBabel09132509273D

136135  0  0  0  0  0  0  0  0999 V2000
   15.5881    6.2295    0.2666 C   0  0  0  0  0  0  0  0  0  0  0  0
   14.6308    5.0447    0.3523 C   0  0  0  0  0  0  0  0  0  0  0  0
   13.4922    5.1866   -0.6748 C   0  0  0  0  0  0  0  0  0  0  0  0
   12.4193    4.0838   -0.5965 C   0  0  0  0  0  0  0  0  0  0  0  0
   12.7187    2.7463   -1.3059 C   0  0  0  0  0  0  0  0  0  0  0  0
   13.9232    1.9574   -0.7726 C   0  0  0  0  0  0  0  0  0  0  0  0
   14.0677    0.5593   -1.4084 C   0  0  0  0  0  0  0  0  0  0  0  0
   12.8857   -0.3949   -1.1633 C   0  0  0  0  0  0  0  0  0  0  0  0
   12.6404   -0.6589    0.3311 C   0  0  0  0  0  0  0  0  0  0  0  0
   11.4974   -1.6512    0.5756 C   0  0  0  0  0  0  0  0  0  0  0  0
   10.1185   -1.1945    0.0687 C   0  0  0  0  0  0  0  0  0  0  0  0
    9.6193    0.1075    0.7342 C   0  0  0  0  0  0  0  0  0  0  0  0
    8.1862    0.5020    0.3057 C   0  0  0  0  0  0  0  0  0  0  0  0
    7.1377   -0.6093    0.5008 C   0  0  0  0  0  0  0  0  0  0  0  0
    7.0196   -1.0939    1.9597 C   0  0  0  0  0  0  0  0  0  0  0  0
    6.2953   -2.4384    2.0625 C   0  0  0  0  0  0  0  0  0  0  0  0
    4.8482   -2.4221    1.5705 C   0  0  0  0  0  0  0  0  0  0  0  0
    4.2972   -3.8519    1.6148 C   0  0  0  0  0  0  0  0  0  0  0  0
    2.8336   -3.9595    1.1944 C   0  0  0  0  0  0  0  0  0  0  0  0
    2.5692   -3.4670   -0.2404 C   0  0  0  0  0  0  0  0  0  0  0  0
    1.1562   -3.8251   -0.7153 C   0  0  0  0  0  0  0  0  0  0  0  0
    0.0340   -3.3072    0.1925 C   0  0  0  0  0  0  0  0  0  0  0  0
   -0.0940   -1.7814    0.3937 C   0  0  0  0  0  0  0  0  0  0  0  0
   -0.5535   -0.9482   -0.8287 C   0  0  1  0  0  0  0  0  0  0  0  0
    0.5252   -0.6513   -1.6850 O   0  0  0  0  0  0  0  0  0  0  0  0
   -1.7319   -1.5756   -1.5676 C   0  0  0  0  0  0  0  0  0  0  0  0
   -1.6583   -1.7440   -2.7762 O   0  0  0  0  0  0  0  0  0  0  0  0
   -2.8544   -1.9597   -0.8867 N   0  0  0  0  0  0  0  0  0  0  0  0
   -3.9859   -2.6232   -1.5289 C   0  0  1  0  0  0  0  0  0  0  0  0
   -3.5464   -4.0150   -2.0884 C   0  0  0  0  0  0  0  0  0  0  0  0
   -3.3099   -4.9725   -1.0844 O   0  0  0  0  0  0  0  0  0  0  0  0
   -5.1921   -2.8165   -0.5503 C   0  0  2  0  0  0  0  0  0  0  0  0
   -6.1491   -3.6327   -1.1767 O   0  0  0  0  0  0  0  0  0  0  0  0
   -5.8763   -1.5068   -0.0352 C   0  0  2  0  0  0  0  0  0  0  0  0
   -4.9269   -0.5917    0.4535 O   0  0  0  0  0  0  0  0  0  0  0  0
   -6.9331   -1.7649    1.0834 C   0  0  0  0  0  0  0  0  0  0  0  0
   -8.1166   -2.6862    0.7294 C   0  0  0  0  0  0  0  0  0  0  0  0
   -9.0155   -2.1648   -0.4099 C   0  0  0  0  0  0  0  0  0  0  0  0
   -9.7553   -0.8458   -0.1110 C   0  0  0  0  0  0  0  0  0  0  0  0
  -10.6898   -0.9783    1.1020 C   0  0  0  0  0  0  0  0  0  0  0  0
  -11.4913    0.2694    1.5077 C   0  0  0  0  0  0  0  0  0  0  0  0
  -12.6658    0.6770    0.6011 C   0  0  0  0  0  0  0  0  0  0  0  0
  -12.2919    1.5047   -0.6418 C   0  0  0  0  0  0  0  0  0  0  0  0
  -13.5286    1.9404   -1.4552 C   0  0  0  0  0  0  0  0  0  0  0  0
  -14.5930    2.7320   -0.6701 C   0  0  0  0  0  0  0  0  0  0  0  0
  -14.0462    4.0291   -0.0502 C   0  0  0  0  0  0  0  0  0  0  0  0
  -15.0925    4.7725    0.8004 C   0  0  0  0  0  0  0  0  0  0  0  0
  -16.3699    5.1937    0.0541 C   0  0  0  0  0  0  0  0  0  0  0  0
  -16.0945    6.1283   -1.1216 C   0  0  0  0  0  0  0  0  0  0  0  0
   16.3895    6.1161    1.0269 H   0  0  0  0  0  0  0  0  0  0  0  0
   15.0473    7.1803    0.4600 H   0  0  0  0  0  0  0  0  0  0  0  0
   16.0554    6.2721   -0.7403 H   0  0  0  0  0  0  0  0  0  0  0  0
   14.1979    5.0101    1.3758 H   0  0  0  0  0  0  0  0  0  0  0  0
   15.2262    4.1325    0.2044 H   0  0  0  0  0  0  0  0  0  0  0  0
   13.8757    5.2708   -1.7148 H   0  0  0  0  0  0  0  0  0  0  0  0
   12.9792    6.1417   -0.4232 H   0  0  0  0  0  0  0  0  0  0  0  0
   11.5198    4.4812   -1.1169 H   0  0  0  0  0  0  0  0  0  0  0  0
   12.1315    3.9150    0.4647 H   0  0  0  0  0  0  0  0  0  0  0  0
   12.8559    2.9194   -2.3956 H   0  0  0  0  0  0  0  0  0  0  0  0
   11.7992    2.1431   -1.1687 H   0  0  0  0  0  0  0  0  0  0  0  0
   13.8595    1.8674    0.3312 H   0  0  0  0  0  0  0  0  0  0  0  0
   14.8487    2.5008   -1.0344 H   0  0  0  0  0  0  0  0  0  0  0  0
   14.9893    0.0878   -1.0021 H   0  0  0  0  0  0  0  0  0  0  0  0
   14.2022    0.6743   -2.5060 H   0  0  0  0  0  0  0  0  0  0  0  0
   13.1126   -1.3616   -1.6640 H   0  0  0  0  0  0  0  0  0  0  0  0
   11.9774    0.0162   -1.6432 H   0  0  0  0  0  0  0  0  0  0  0  0
   12.4125    0.2810    0.8695 H   0  0  0  0  0  0  0  0  0  0  0  0
   13.5667   -1.0862    0.7732 H   0  0  0  0  0  0  0  0  0  0  0  0
   11.4248   -1.8349    1.6704 H   0  0  0  0  0  0  0  0  0  0  0  0
   11.7505   -2.6184    0.0887 H   0  0  0  0  0  0  0  0  0  0  0  0
    9.4343   -2.0288    0.3220 H   0  0  0  0  0  0  0  0  0  0  0  0
   10.1149   -1.0799   -1.0348 H   0  0  0  0  0  0  0  0  0  0  0  0
   10.2888    0.9524    0.4718 H   0  0  0  0  0  0  0  0  0  0  0  0
    9.6630   -0.0069    1.8359 H   0  0  0  0  0  0  0  0  0  0  0  0
    8.1995    0.7647   -0.7749 H   0  0  0  0  0  0  0  0  0  0  0  0
    7.8813    1.4080    0.8728 H   0  0  0  0  0  0  0  0  0  0  0  0
    7.4093   -1.4578   -0.1591 H   0  0  0  0  0  0  0  0  0  0  0  0
    6.1497   -0.2423    0.1493 H   0  0  0  0  0  0  0  0  0  0  0  0
    6.5407   -0.3124    2.5885 H   0  0  0  0  0  0  0  0  0  0  0  0
    8.0236   -1.3028    2.3747 H   0  0  0  0  0  0  0  0  0  0  0  0
    6.3103   -2.7695    3.1243 H   0  0  0  0  0  0  0  0  0  0  0  0
    6.8742   -3.1790    1.4655 H   0  0  0  0  0  0  0  0  0  0  0  0
    4.8154   -2.0621    0.5229 H   0  0  0  0  0  0  0  0  0  0  0  0
    4.2415   -1.7452    2.2107 H   0  0  0  0  0  0  0  0  0  0  0  0
    4.3798   -4.2448    2.6522 H   0  0  0  0  0  0  0  0  0  0  0  0
    4.9083   -4.5007    0.9483 H   0  0  0  0  0  0  0  0  0  0  0  0
    2.2158   -3.3844    1.9156 H   0  0  0  0  0  0  0  0  0  0  0  0
    2.5561   -5.0343    1.2648 H   0  0  0  0  0  0  0  0  0  0  0  0
    3.2829   -3.9596   -0.9365 H   0  0  0  0  0  0  0  0  0  0  0  0
    2.7187   -2.3690   -0.3058 H   0  0  0  0  0  0  0  0  0  0  0  0
    1.0732   -4.9341   -0.7385 H   0  0  0  0  0  0  0  0  0  0  0  0
    1.0110   -3.4858   -1.7566 H   0  0  0  0  0  0  0  0  0  0  0  0
    0.1485   -3.7710    1.1937 H   0  0  0  0  0  0  0  0  0  0  0  0
   -0.9140   -3.6950   -0.2048 H   0  0  0  0  0  0  0  0  0  0  0  0
    0.8283   -1.3459    0.8339 H   0  0  0  0  0  0  0  0  0  0  0  0
   -0.8834   -1.6645    1.1669 H   0  0  0  0  0  0  0  0  0  0  0  0
   -0.8985    0.0283   -0.4261 H   0  0  0  0  0  0  0  0  0  0  0  0
    0.7154   -1.4348   -2.2547 H   0  0  0  0  0  0  0  0  0  0  0  0
   -2.8819   -1.7938    0.1268 H   0  0  0  0  0  0  0  0  0  0  0  0
   -4.3275   -1.9926   -2.3824 H   0  0  0  0  0  0  0  0  0  0  0  0
   -2.6592   -3.9460   -2.7477 H   0  0  0  0  0  0  0  0  0  0  0  0
   -4.3647   -4.4125   -2.7232 H   0  0  0  0  0  0  0  0  0  0  0  0
   -2.8838   -4.5272   -0.3112 H   0  0  0  0  0  0  0  0  0  0  0  0
   -4.8106   -3.3639    0.3395 H   0  0  0  0  0  0  0  0  0  0  0  0
   -6.4438   -3.1681   -2.0035 H   0  0  0  0  0  0  0  0  0  0  0  0
   -6.3733   -1.0093   -0.8940 H   0  0  0  0  0  0  0  0  0  0  0  0
   -4.5844   -0.9364    1.3199 H   0  0  0  0  0  0  0  0  0  0  0  0
   -7.3333   -0.7868    1.4256 H   0  0  0  0  0  0  0  0  0  0  0  0
   -6.4130   -2.2233    1.9529 H   0  0  0  0  0  0  0  0  0  0  0  0
   -8.7234   -2.8523    1.6403 H   0  0  0  0  0  0  0  0  0  0  0  0
   -7.7479   -3.6958    0.4738 H   0  0  0  0  0  0  0  0  0  0  0  0
   -9.7786   -2.9441   -0.6257 H   0  0  0  0  0  0  0  0  0  0  0  0
   -8.4148   -2.0350   -1.3329 H   0  0  0  0  0  0  0  0  0  0  0  0
  -10.3406   -0.6307   -1.0175 H   0  0  0  0  0  0  0  0  0  0  0  0
   -9.0326   -0.0178    0.0502 H   0  0  0  0  0  0  0  0  0  0  0  0
  -10.0621   -1.2072    1.9862 H   0  0  0  0  0  0  0  0  0  0  0  0
  -11.3934   -1.8250    0.9451 H   0  0  0  0  0  0  0  0  0  0  0  0
  -10.8263    1.1358    1.7154 H   0  0  0  0  0  0  0  0  0  0  0  0
  -11.9616   -0.0170    2.4755 H   0  0  0  0  0  0  0  0  0  0  0  0
  -13.2927    1.3341    1.2373 H   0  0  0  0  0  0  0  0  0  0  0  0
  -13.2700   -0.2161    0.3305 H   0  0  0  0  0  0  0  0  0  0  0  0
  -11.6550    0.9361   -1.3340 H   0  0  0  0  0  0  0  0  0  0  0  0
  -11.7155    2.3986   -0.3242 H   0  0  0  0  0  0  0  0  0  0  0  0
  -14.0188    1.0316   -1.8684 H   0  0  0  0  0  0  0  0  0  0  0  0
  -13.1806    2.5559   -2.3136 H   0  0  0  0  0  0  0  0  0  0  0  0
  -15.0299    2.0916    0.1239 H   0  0  0  0  0  0  0  0  0  0  0  0
  -15.4106    2.9762   -1.3797 H   0  0  0  0  0  0  0  0  0  0  0  0
  -13.6537    4.6897   -0.8514 H   0  0  0  0  0  0  0  0  0  0  0  0
  -13.2045    3.7913    0.6325 H   0  0  0  0  0  0  0  0  0  0  0  0
  -14.6105    5.6793    1.2272 H   0  0  0  0  0  0  0  0  0  0  0  0
  -15.3889    4.1185    1.6498 H   0  0  0  0  0  0  0  0  0  0  0  0
  -17.0299    5.7215    0.7761 H   0  0  0  0  0  0  0  0  0  0  0  0
  -16.9204    4.2995   -0.3056 H   0  0  0  0  0  0  0  0  0  0  0  0
  -15.5627    7.0388   -0.7733 H   0  0  0  0  0  0  0  0  0  0  0  0
  -17.0576    6.4298   -1.5840 H   0  0  0  0  0  0  0  0  0  0  0  0
  -15.4872    5.6191   -1.8976 H   0  0  0  0  0  0  0  0  0  0  0  0
  1  2  1  0  0  0  0
  1 50  1  0  0  0  0
  1 51  1  0  0  0  0
  1 52  1  0  0  0  0
  2  3  1  0  0  0  0
  2 53  1  0  0  0  0
  2 54  1  0  0  0  0
  3  4  1  0  0  0  0
  3 55  1  0  0  0  0
  3 56  1  0  0  0  0
  4  5  1  0  0  0  0
  4 57  1  0  0  0  0
  4 58  1  0  0  0  0
  5  6  1  0  0  0  0
  5 59  1  0  0  0  0
  5 60  1  0  0  0  0
  6  7  1  0  0  0  0
  6 61  1  0  0  0  0
  6 62  1  0  0  0  0
  7  8  1  0  0  0  0
  7 63  1  0  0  0  0
  7 64  1  0  0  0  0
  8  9  1  0  0  0  0
  8 65  1  0  0  0  0
  8 66  1  0  0  0  0
  9 10  1  0  0  0  0
  9 67  1  0  0  0  0
  9 68  1  0  0  0  0
 10 11  1  0  0  0  0
 10 69  1  0  0  0  0
 10 70  1  0  0  0  0
 11 12  1  0  0  0  0
 11 71  1  0  0  0  0
 11 72  1  0  0  0  0
 12 13  1  0  0  0  0
 12 73  1  0  0  0  0
 12 74  1  0  0  0  0
 13 14  1  0  0  0  0
 13 75  1  0  0  0  0
 13 76  1  0  0  0  0
 14 15  1  0  0  0  0
 14 77  1  0  0  0  0
 14 78  1  0  0  0  0
 15 16  1  0  0  0  0
 15 79  1  0  0  0  0
 15 80  1  0  0  0  0
 16 17  1  0  0  0  0
 16 81  1  0  0  0  0
 16 82  1  0  0  0  0
 17 18  1  0  0  0  0
 17 83  1  0  0  0  0
 17 84  1  0  0  0  0
 18 19  1  0  0  0  0
 18 85  1  0  0  0  0
 18 86  1  0  0  0  0
 19 20  1  0  0  0  0
 19 87  1  0  0  0  0
 19 88  1  0  0  0  0
 20 21  1  0  0  0  0
 20 89  1  0  0  0  0
 20 90  1  0  0  0  0
 21 22  1  0  0  0  0
 21 91  1  0  0  0  0
 21 92  1  0  0  0  0
 22 23  1  0  0  0  0
 22 93  1  0  0  0  0
 22 94  1  0  0  0  0
 23 24  1  0  0  0  0
 23 95  1  0  0  0  0
 23 96  1  0  0  0  0
 24 25  1  0  0  0  0
 24 26  1  0  0  0  0
 24 97  1  1  0  0  0
 25 98  1  0  0  0  0
 26 27  2  0  0  0  0
 26 28  1  0  0  0  0
 28 29  1  0  0  0  0
 28 99  1  0  0  0  0
 29 30  1  0  0  0  0
 29 32  1  0  0  0  0
 29100  1  6  0  0  0
 30 31  1  0  0  0  0
 30101  1  0  0  0  0
 30102  1  0  0  0  0
 31103  1  0  0  0  0
 32 33  1  0  0  0  0
 32 34  1  0  0  0  0
 32104  1  1  0  0  0
 33105  1  0  0  0  0
 34 35  1  0  0  0  0
 34 36  1  0  0  0  0
 34106  1  6  0  0  0
 35107  1  0  0  0  0
 36 37  1  0  0  0  0
 36108  1  0  0  0  0
 36109  1  0  0  0  0
 37 38  1  0  0  0  0
 37110  1  0  0  0  0
 37111  1  0  0  0  0
 38 39  1  0  0  0  0
 38112  1  0  0  0  0
 38113  1  0  0  0  0
 39 40  1  0  0  0  0
 39114  1  0  0  0  0
 39115  1  0  0  0  0
 40 41  1  0  0  0  0
 40116  1  0  0  0  0
 40117  1  0  0  0  0
 41 42  1  0  0  0  0
 41118  1  0  0  0  0
 41119  1  0  0  0  0
 42 43  1  0  0  0  0
 42120  1  0  0  0  0
 42121  1  0  0  0  0
 43 44  1  0  0  0  0
 43122  1  0  0  0  0
 43123  1  0  0  0  0
 44 45  1  0  0  0  0
 44124  1  0  0  0  0
 44125  1  0  0  0  0
 45 46  1  0  0  0  0
 45126  1  0  0  0  0
 45127  1  0  0  0  0
 46 47  1  0  0  0  0
 46128  1  0  0  0  0
 46129  1  0  0  0  0
 47 48  1  0  0  0  0
 47130  1  0  0  0  0
 47131  1  0  0  0  0
 48 49  1  0  0  0  0
 48132  1  0  0  0  0
 48133  1  0  0  0  0
 49134  1  0  0  0  0
 49135  1  0  0  0  0
 49136  1  0  0  0  0
M  END
>  <IDENTIFIER>
CNP0228254.2

>  <Energy>
576.533

$$$$
