
 OpenBabel09062509233D

 50 51  0  0  0  0  0  0  0  0999 V2000
    6.1862   -3.1834   -0.4735 C   0  0  0  0  0  0  0  0  0  0  0  0
    5.4786   -2.0621   -0.8497 O   0  0  0  0  0  0  0  0  0  0  0  0
    4.1416   -1.8783   -0.7010 C   0  0  0  0  0  0  0  0  0  0  0  0
    3.2818   -2.8742   -0.1963 C   0  0  0  0  0  0  0  0  0  0  0  0
    1.9115   -2.6211   -0.0538 C   0  0  0  0  0  0  0  0  0  0  0  0
    1.3737   -1.3661   -0.3869 C   0  0  0  0  0  0  0  0  0  0  0  0
   -0.0978   -1.1380   -0.2039 C   0  0  0  0  0  0  0  0  0  0  0  0
   -0.7033    0.0686    0.0160 C   0  0  0  0  0  0  0  0  0  0  0  0
    0.1237    1.2127    0.2894 N   0  0  0  0  0  0  0  0  0  0  0  0
   -0.1369    2.5083   -0.0657 C   0  0  0  0  0  0  0  0  0  0  0  0
   -1.1183    2.7672   -0.7478 O   0  0  0  0  0  0  0  0  0  0  0  0
    0.8024    3.6247    0.2955 C   0  0  0  0  0  0  0  0  0  0  0  0
    1.8985    3.4499    1.1750 C   0  0  0  0  0  0  0  0  0  0  0  0
    2.7484    4.5162    1.4797 C   0  0  0  0  0  0  0  0  0  0  0  0
    2.5297    5.7713    0.9182 C   0  0  0  0  0  0  0  0  0  0  0  0
    1.4545    5.9677    0.0509 C   0  0  0  0  0  0  0  0  0  0  0  0
    0.5957    4.9076   -0.2564 C   0  0  0  0  0  0  0  0  0  0  0  0
   -2.2097    0.1863    0.1260 C   0  0  0  0  0  0  0  0  0  0  0  0
   -2.6752    1.2274    0.5670 O   0  0  0  0  0  0  0  0  0  0  0  0
   -3.0657   -0.8299   -0.2107 N   0  0  0  0  0  0  0  0  0  0  0  0
   -4.5178   -0.7196   -0.0870 C   0  0  1  0  0  0  0  0  0  0  0  0
   -5.1835   -0.9085   -1.4559 C   0  0  0  0  0  0  0  0  0  0  0  0
   -5.0621   -1.6964    0.9839 C   0  0  0  0  0  0  0  0  0  0  0  0
   -4.8378   -3.1767    0.7574 C   0  0  0  0  0  0  0  0  0  0  0  0
   -4.2542   -3.5933   -0.2297 O   0  0  0  0  0  0  0  0  0  0  0  0
   -5.2923   -4.0629    1.6680 O   0  0  0  0  0  0  0  0  0  0  0  0
    2.2425   -0.3885   -0.9200 C   0  0  0  0  0  0  0  0  0  0  0  0
    3.6046   -0.6452   -1.0704 C   0  0  0  0  0  0  0  0  0  0  0  0
    7.2582   -3.0305   -0.7155 H   0  0  0  0  0  0  0  0  0  0  0  0
    5.8201   -4.0741   -1.0258 H   0  0  0  0  0  0  0  0  0  0  0  0
    6.0906   -3.3435    0.6218 H   0  0  0  0  0  0  0  0  0  0  0  0
    3.6620   -3.8453    0.0911 H   0  0  0  0  0  0  0  0  0  0  0  0
    1.2724   -3.4015    0.3407 H   0  0  0  0  0  0  0  0  0  0  0  0
   -0.6880   -2.0407   -0.2515 H   0  0  0  0  0  0  0  0  0  0  0  0
    1.0050    1.0114    0.7705 H   0  0  0  0  0  0  0  0  0  0  0  0
    2.1223    2.5095    1.6505 H   0  0  0  0  0  0  0  0  0  0  0  0
    3.5806    4.3664    2.1559 H   0  0  0  0  0  0  0  0  0  0  0  0
    3.1921    6.5940    1.1558 H   0  0  0  0  0  0  0  0  0  0  0  0
    1.2856    6.9440   -0.3851 H   0  0  0  0  0  0  0  0  0  0  0  0
   -0.2273    5.0933   -0.9348 H   0  0  0  0  0  0  0  0  0  0  0  0
   -2.7009   -1.7139   -0.5798 H   0  0  0  0  0  0  0  0  0  0  0  0
   -4.8063    0.2965    0.2612 H   0  0  0  0  0  0  0  0  0  0  0  0
   -4.9616   -1.9039   -1.8896 H   0  0  0  0  0  0  0  0  0  0  0  0
   -4.8113   -0.1349   -2.1609 H   0  0  0  0  0  0  0  0  0  0  0  0
   -6.2847   -0.7964   -1.3637 H   0  0  0  0  0  0  0  0  0  0  0  0
   -6.1570   -1.5309    1.0810 H   0  0  0  0  0  0  0  0  0  0  0  0
   -4.5929   -1.4306    1.9556 H   0  0  0  0  0  0  0  0  0  0  0  0
   -5.7590   -3.7748    2.4651 H   0  0  0  0  0  0  0  0  0  0  0  0
    1.8845    0.5766   -1.2468 H   0  0  0  0  0  0  0  0  0  0  0  0
    4.2486    0.1249   -1.4772 H   0  0  0  0  0  0  0  0  0  0  0  0
  1  2  1  0  0  0  0
  1 29  1  0  0  0  0
  1 30  1  0  0  0  0
  1 31  1  0  0  0  0
  2  3  1  0  0  0  0
  3  4  2  0  0  0  0
  4  5  1  0  0  0  0
  4 32  1  0  0  0  0
  5  6  2  0  0  0  0
  5 33  1  0  0  0  0
  6  7  1  0  0  0  0
  6 27  1  0  0  0  0
  7  8  2  0  0  0  0
  7 34  1  0  0  0  0
  8  9  1  0  0  0  0
  8 18  1  0  0  0  0
  9 10  1  0  0  0  0
  9 35  1  0  0  0  0
 10 11  2  0  0  0  0
 10 12  1  0  0  0  0
 12 13  2  0  0  0  0
 13 14  1  0  0  0  0
 13 36  1  0  0  0  0
 14 15  2  0  0  0  0
 14 37  1  0  0  0  0
 15 16  1  0  0  0  0
 15 38  1  0  0  0  0
 16 17  2  0  0  0  0
 16 39  1  0  0  0  0
 17 12  1  0  0  0  0
 17 40  1  0  0  0  0
 18 19  2  0  0  0  0
 18 20  1  0  0  0  0
 20 21  1  0  0  0  0
 20 41  1  0  0  0  0
 21 22  1  0  0  0  0
 21 23  1  0  0  0  0
 21 42  1  1  0  0  0
 22 43  1  0  0  0  0
 22 44  1  0  0  0  0
 22 45  1  0  0  0  0
 23 24  1  0  0  0  0
 23 46  1  0  0  0  0
 23 47  1  0  0  0  0
 24 25  2  0  0  0  0
 24 26  1  0  0  0  0
 26 48  1  0  0  0  0
 27 28  2  0  0  0  0
 27 49  1  0  0  0  0
 28  3  1  0  0  0  0
 28 50  1  0  0  0  0
M  END
>  <IDENTIFIER>
CNP0360589.2

>  <Energy>
387.591

$$$$
