
 OpenBabel09072521373D

 83 87  0  0  0  0  0  0  0  0999 V2000
   -4.2879    4.0988    0.3493 C   0  0  0  0  0  0  0  0  0  0  0  0
   -4.1376    2.7290    0.3228 O   0  0  0  0  0  0  0  0  0  0  0  0
   -3.5735    2.0446   -0.7065 C   0  0  0  0  0  0  0  0  0  0  0  0
   -3.0781    2.6574   -1.6435 O   0  0  0  0  0  0  0  0  0  0  0  0
   -3.6249    0.5110   -0.7086 C   0  0  2  0  0  0  0  0  0  0  0  0
   -5.1437    0.0825   -0.6951 C   0  0  0  0  0  0  0  0  0  0  0  0
   -5.6928    0.0034    0.7333 C   0  0  0  0  0  0  0  0  0  0  0  0
   -4.9835   -1.1317    1.5495 C   0  0  0  0  0  0  0  0  0  0  0  0
   -4.9990   -0.7337    3.0424 C   0  0  0  0  0  0  0  0  0  0  0  0
   -5.7576   -2.4632    1.4069 C   0  0  0  0  0  0  0  0  0  0  0  0
   -3.5152   -1.3727    1.0454 C   0  0  0  0  0  0  0  0  0  0  0  0
   -2.8548   -0.0636    0.5602 C   0  0  1  0  0  0  0  0  0  0  0  0
   -1.2799   -0.1110    0.3755 C   0  0  2  0  0  0  0  0  0  0  0  0
   -0.7016    1.2921    0.4792 C   0  0  0  0  0  0  0  0  0  0  0  0
   -1.3511    2.2196    0.9388 O   0  0  0  0  0  0  0  0  0  0  0  0
    0.7121    1.5243    0.2157 C   0  0  0  0  0  0  0  0  0  0  0  0
    1.5134    0.6380   -0.4211 C   0  0  0  0  0  0  0  0  0  0  0  0
    3.0759    0.8652   -0.3976 C   0  0  1  0  0  0  0  0  0  0  0  0
    3.5815    1.1295   -1.8474 C   0  0  0  0  0  0  0  0  0  0  0  0
    3.5155    2.1185    0.4452 C   0  0  0  0  0  0  0  0  0  0  0  0
    5.0408    2.2172    0.6698 C   0  0  0  0  0  0  0  0  0  0  0  0
    5.5581    0.9652    1.4011 C   0  0  2  0  0  0  0  0  0  0  0  0
    6.9293    1.0845    1.7010 O   0  0  0  0  0  0  0  0  0  0  0  0
    5.2320   -0.3740    0.6582 C   0  0  0  0  0  0  0  0  0  0  0  0
    5.6139   -1.5308    1.6247 C   0  0  0  0  0  0  0  0  0  0  0  0
    6.1047   -0.5687   -0.6107 C   0  0  0  0  0  0  0  0  0  0  0  0
    3.6696   -0.3971    0.3646 C   0  0  2  0  0  0  0  0  0  0  0  0
    3.1533   -1.7299   -0.2395 C   0  0  0  0  0  0  0  0  0  0  0  0
    1.6048   -1.8080   -0.2288 C   0  0  0  0  0  0  0  0  0  0  0  0
    0.8974   -0.6712   -1.0340 C   0  0  2  0  0  0  0  0  0  0  0  0
    1.2660   -0.8522   -2.5447 C   0  0  0  0  0  0  0  0  0  0  0  0
   -0.7466   -0.7611   -0.9481 C   0  0  1  0  0  0  0  0  0  0  0  0
   -1.1384   -2.2793   -1.0424 C   0  0  0  0  0  0  0  0  0  0  0  0
   -1.4669    0.0221   -2.1114 C   0  0  0  0  0  0  0  0  0  0  0  0
   -3.0140   -0.0484   -2.0340 C   0  0  0  0  0  0  0  0  0  0  0  0
   -4.7826    4.3913    1.2988 H   0  0  0  0  0  0  0  0  0  0  0  0
   -4.9276    4.4261   -0.4978 H   0  0  0  0  0  0  0  0  0  0  0  0
   -3.2975    4.5981    0.2886 H   0  0  0  0  0  0  0  0  0  0  0  0
   -5.2835   -0.9373   -1.1147 H   0  0  0  0  0  0  0  0  0  0  0  0
   -5.7411    0.7662   -1.3382 H   0  0  0  0  0  0  0  0  0  0  0  0
   -6.7950   -0.1410    0.7524 H   0  0  0  0  0  0  0  0  0  0  0  0
   -5.5105    0.9905    1.1997 H   0  0  0  0  0  0  0  0  0  0  0  0
   -6.0435   -0.5931    3.3967 H   0  0  0  0  0  0  0  0  0  0  0  0
   -4.4485    0.2145    3.2150 H   0  0  0  0  0  0  0  0  0  0  0  0
   -4.5249   -1.5233    3.6643 H   0  0  0  0  0  0  0  0  0  0  0  0
   -6.8010   -2.3548    1.7737 H   0  0  0  0  0  0  0  0  0  0  0  0
   -5.2640   -3.2667    1.9958 H   0  0  0  0  0  0  0  0  0  0  0  0
   -5.8021   -2.7885    0.3458 H   0  0  0  0  0  0  0  0  0  0  0  0
   -3.5785   -2.0568    0.1959 H   0  0  0  0  0  0  0  0  0  0  0  0
   -2.9244   -1.8825    1.8378 H   0  0  0  0  0  0  0  0  0  0  0  0
   -3.0380    0.5884    1.4410 H   0  0  0  0  0  0  0  0  0  0  0  0
   -0.8392   -0.6652    1.2324 H   0  0  0  0  0  0  0  0  0  0  0  0
    1.0838    2.4512    0.6268 H   0  0  0  0  0  0  0  0  0  0  0  0
    2.9122    1.8640   -2.3447 H   0  0  0  0  0  0  0  0  0  0  0  0
    3.6982    0.2419   -2.4676 H   0  0  0  0  0  0  0  0  0  0  0  0
    4.5695    1.5978   -1.9148 H   0  0  0  0  0  0  0  0  0  0  0  0
    3.0692    2.0561    1.4628 H   0  0  0  0  0  0  0  0  0  0  0  0
    3.1625    3.0578   -0.0354 H   0  0  0  0  0  0  0  0  0  0  0  0
    5.2469    3.1092    1.3008 H   0  0  0  0  0  0  0  0  0  0  0  0
    5.5986    2.3717   -0.2714 H   0  0  0  0  0  0  0  0  0  0  0  0
    5.0187    0.9506    2.3758 H   0  0  0  0  0  0  0  0  0  0  0  0
    7.4052    1.3499    0.8713 H   0  0  0  0  0  0  0  0  0  0  0  0
    6.6870   -1.4714    1.9083 H   0  0  0  0  0  0  0  0  0  0  0  0
    5.4774   -2.5293    1.1648 H   0  0  0  0  0  0  0  0  0  0  0  0
    5.0132   -1.4845    2.5587 H   0  0  0  0  0  0  0  0  0  0  0  0
    7.1802   -0.6268   -0.3399 H   0  0  0  0  0  0  0  0  0  0  0  0
    6.0282    0.2428   -1.3402 H   0  0  0  0  0  0  0  0  0  0  0  0
    5.8540   -1.5221   -1.1202 H   0  0  0  0  0  0  0  0  0  0  0  0
    3.2025   -0.3617    1.3778 H   0  0  0  0  0  0  0  0  0  0  0  0
    3.4882   -2.5879    0.3730 H   0  0  0  0  0  0  0  0  0  0  0  0
    3.5706   -1.8844   -1.2502 H   0  0  0  0  0  0  0  0  0  0  0  0
    1.2679   -1.7635    0.8304 H   0  0  0  0  0  0  0  0  0  0  0  0
    1.3446   -2.8086   -0.6323 H   0  0  0  0  0  0  0  0  0  0  0  0
    0.7466   -1.7082   -3.0083 H   0  0  0  0  0  0  0  0  0  0  0  0
    2.2965   -1.1242   -2.7572 H   0  0  0  0  0  0  0  0  0  0  0  0
    1.0176    0.0604   -3.1261 H   0  0  0  0  0  0  0  0  0  0  0  0
   -0.6967   -2.7773   -1.9226 H   0  0  0  0  0  0  0  0  0  0  0  0
   -2.1912   -2.5082   -1.1666 H   0  0  0  0  0  0  0  0  0  0  0  0
   -0.8210   -2.8270   -0.1315 H   0  0  0  0  0  0  0  0  0  0  0  0
   -1.1988   -0.4011   -3.1008 H   0  0  0  0  0  0  0  0  0  0  0  0
   -1.1441    1.0842   -2.1128 H   0  0  0  0  0  0  0  0  0  0  0  0
   -3.3152   -1.1002   -2.1741 H   0  0  0  0  0  0  0  0  0  0  0  0
   -3.4597    0.4791   -2.9059 H   0  0  0  0  0  0  0  0  0  0  0  0
  1  2  1  0  0  0  0
  1 36  1  0  0  0  0
  1 37  1  0  0  0  0
  1 38  1  0  0  0  0
  2  3  1  0  0  0  0
  3  4  2  0  0  0  0
  5  3  1  6  0  0  0
  5  6  1  0  0  0  0
  6  7  1  0  0  0  0
  6 39  1  0  0  0  0
  6 40  1  0  0  0  0
  7  8  1  0  0  0  0
  7 41  1  0  0  0  0
  7 42  1  0  0  0  0
  8  9  1  0  0  0  0
  8 10  1  0  0  0  0
  8 11  1  0  0  0  0
  9 43  1  0  0  0  0
  9 44  1  0  0  0  0
  9 45  1  0  0  0  0
 10 46  1  0  0  0  0
 10 47  1  0  0  0  0
 10 48  1  0  0  0  0
 11 49  1  0  0  0  0
 11 50  1  0  0  0  0
 12 11  1  0  0  0  0
 12 13  1  0  0  0  0
 12  5  1  0  0  0  0
 12 51  1  1  0  0  0
 13 14  1  0  0  0  0
 13 52  1  1  0  0  0
 14 15  2  0  0  0  0
 14 16  1  0  0  0  0
 16 17  2  0  0  0  0
 16 53  1  0  0  0  0
 17 18  1  0  0  0  0
 18 19  1  6  0  0  0
 18 20  1  0  0  0  0
 19 54  1  0  0  0  0
 19 55  1  0  0  0  0
 19 56  1  0  0  0  0
 20 21  1  0  0  0  0
 20 57  1  0  0  0  0
 20 58  1  0  0  0  0
 21 22  1  0  0  0  0
 21 59  1  0  0  0  0
 21 60  1  0  0  0  0
 22 23  1  0  0  0  0
 22 24  1  0  0  0  0
 22 61  1  1  0  0  0
 23 62  1  0  0  0  0
 24 25  1  0  0  0  0
 24 26  1  0  0  0  0
 24 27  1  0  0  0  0
 25 63  1  0  0  0  0
 25 64  1  0  0  0  0
 25 65  1  0  0  0  0
 26 66  1  0  0  0  0
 26 67  1  0  0  0  0
 26 68  1  0  0  0  0
 27 28  1  0  0  0  0
 27 18  1  0  0  0  0
 27 69  1  1  0  0  0
 28 29  1  0  0  0  0
 28 70  1  0  0  0  0
 28 71  1  0  0  0  0
 29 30  1  0  0  0  0
 29 72  1  0  0  0  0
 29 73  1  0  0  0  0
 30 31  1  6  0  0  0
 30 32  1  0  0  0  0
 30 17  1  0  0  0  0
 31 74  1  0  0  0  0
 31 75  1  0  0  0  0
 31 76  1  0  0  0  0
 32 33  1  6  0  0  0
 32 34  1  0  0  0  0
 32 13  1  0  0  0  0
 33 77  1  0  0  0  0
 33 78  1  0  0  0  0
 33 79  1  0  0  0  0
 34 35  1  0  0  0  0
 34 80  1  0  0  0  0
 34 81  1  0  0  0  0
 35  5  1  0  0  0  0
 35 82  1  0  0  0  0
 35 83  1  0  0  0  0
M  END
>  <IDENTIFIER>
CNP0165396.1

>  <Energy>
906.77

$$$$
