
 OpenBabel09112508193D

142149  0  0  0  0  0  0  0  0999 V2000
   -5.9226    2.9049    4.1745 C   0  0  0  0  0  0  0  0  0  0  0  0
   -5.4097    1.6714    3.9890 C   0  0  0  0  0  0  0  0  0  0  0  0
   -5.3198    0.7429    5.1839 C   0  0  0  0  0  0  0  0  0  0  0  0
   -4.9330    1.1921    2.6049 C   0  0  2  0  0  0  0  0  0  0  0  0
   -5.6828   -0.0486    2.1541 C   0  0  0  0  0  0  0  0  0  0  0  0
   -5.1528   -0.6161    0.7924 C   0  0  1  0  0  0  0  0  0  0  0  0
   -6.3927   -1.0963   -0.0260 C   0  0  0  0  0  0  0  0  0  0  0  0
   -7.0583   -2.0590    0.7238 O   0  0  0  0  0  0  0  0  0  0  0  0
   -8.2771   -1.9943    1.3088 C   0  0  0  0  0  0  0  0  0  0  0  0
   -8.9326   -0.9619    1.2720 O   0  0  0  0  0  0  0  0  0  0  0  0
   -8.7699   -3.1784    2.0610 C   0  0  0  0  0  0  0  0  0  0  0  0
   -9.9246   -3.1006    2.8600 C   0  0  0  0  0  0  0  0  0  0  0  0
  -10.3707   -4.2198    3.5721 C   0  0  0  0  0  0  0  0  0  0  0  0
   -9.6765   -5.4298    3.4868 C   0  0  0  0  0  0  0  0  0  0  0  0
   -8.5312   -5.5210    2.6946 C   0  0  0  0  0  0  0  0  0  0  0  0
   -8.0746   -4.4032    1.9884 C   0  0  0  0  0  0  0  0  0  0  0  0
   -3.7446    0.0801    0.2753 C   0  0  1  0  0  0  0  0  0  0  0  0
   -3.8379    1.4971   -0.0802 O   0  0  0  0  0  0  0  0  0  0  0  0
   -3.9622    2.3980    1.0447 C   0  0  2  0  0  0  0  0  0  0  0  0
   -3.7852    3.9109    0.7292 C   0  0  0  0  0  0  0  0  0  0  0  0
   -4.4624    4.6715   -0.4285 C   0  0  0  0  0  0  0  0  0  0  0  0
   -6.0000    4.5936   -0.6096 C   0  0  0  0  0  0  0  0  0  0  0  0
   -6.5518    3.2566   -1.1570 C   0  0  0  0  0  0  0  0  0  0  0  0
   -5.7832    2.8233   -2.4053 C   0  0  0  0  0  0  0  0  0  0  0  0
   -6.1779    1.4592   -2.9789 C   0  0  0  0  0  0  0  0  0  0  0  0
   -5.0899    0.9436   -3.9564 C   0  0  0  0  0  0  0  0  0  0  0  0
   -3.7250    0.5896   -3.2657 C   0  0  2  0  0  0  0  0  0  0  0  0
   -2.6131    0.5553   -4.3303 C   0  0  0  0  0  0  0  0  0  0  0  0
   -3.7932   -0.7039   -2.3577 C   0  0  1  0  0  0  0  0  0  0  0  0
   -3.3529   -2.0183   -3.0599 C   0  0  2  0  0  0  0  0  0  0  0  0
   -4.5406   -2.7830   -3.6634 C   0  0  0  0  0  0  0  0  0  0  0  0
   -2.6571   -2.7925   -2.0012 C   0  0  0  0  0  0  0  0  0  0  0  0
   -2.2401   -3.9247   -2.1982 O   0  0  0  0  0  0  0  0  0  0  0  0
   -2.4564   -2.0733   -0.6978 C   0  0  1  0  0  0  0  0  0  0  0  0
   -3.1541   -2.7743    0.2989 O   0  0  0  0  0  0  0  0  0  0  0  0
   -0.9341   -1.9644   -0.3378 C   0  0  2  0  0  0  0  0  0  0  0  0
   -0.3991   -3.2536   -0.1567 O   0  0  0  0  0  0  0  0  0  0  0  0
   -0.5154   -1.0371    0.8602 C   0  0  1  0  0  0  0  0  0  0  0  0
    0.9590   -1.1695    1.3010 C   0  0  0  0  0  0  0  0  0  0  0  0
    1.8118   -0.7145    0.3149 O   0  0  0  0  0  0  0  0  0  0  0  0
    3.1659   -0.7433    0.4329 C   0  0  0  0  0  0  0  0  0  0  0  0
    3.6929   -1.2784    1.3987 O   0  0  0  0  0  0  0  0  0  0  0  0
    4.0460   -0.1134   -0.6112 C   0  0  0  0  0  0  0  0  0  0  0  0
    3.2519    0.5524   -1.7315 C   0  0  0  0  0  0  0  0  0  0  0  0
    4.0846    1.1450   -2.8888 C   0  0  0  0  0  0  0  0  0  0  0  0
    4.9799    2.3667   -2.5676 C   0  0  0  0  0  0  0  0  0  0  0  0
    6.4987    2.1164   -2.4163 C   0  0  0  0  0  0  0  0  0  0  0  0
    6.9704    1.3584   -1.1719 C   0  0  0  0  0  0  0  0  0  0  0  0
    8.5038    1.2826   -1.1439 C   0  0  0  0  0  0  0  0  0  0  0  0
    9.0163    0.5475    0.1079 C   0  0  0  0  0  0  0  0  0  0  0  0
   10.5563    0.4970    0.1946 C   0  0  0  0  0  0  0  0  0  0  0  0
   11.1943   -0.3631   -0.9104 C   0  0  0  0  0  0  0  0  0  0  0  0
   12.7344   -0.3243   -1.0080 C   0  0  0  0  0  0  0  0  0  0  0  0
   13.5625   -0.9724    0.1191 C   0  0  0  0  0  0  0  0  0  0  0  0
   13.7039   -0.1330    1.3990 C   0  0  0  0  0  0  0  0  0  0  0  0
   14.6935   -0.7946    2.3682 C   0  0  0  0  0  0  0  0  0  0  0  0
   14.8689    0.0377    3.6351 C   0  0  0  0  0  0  0  0  0  0  0  0
   -0.6864    0.3108    0.3982 O   0  0  0  0  0  0  0  0  0  0  0  0
   -1.3260    0.0168    1.5850 C   0  0  1  0  0  0  0  0  0  0  0  0
   -2.8679   -0.0899    1.5912 C   0  0  1  0  0  0  0  0  0  0  0  0
   -3.3998    0.9810    2.5672 C   0  0  1  0  0  0  0  0  0  0  0  0
   -2.9696    2.1609    2.0163 O   0  0  0  0  0  0  0  0  0  0  0  0
   -3.0417   -0.6509   -0.9798 C   0  0  2  0  0  0  0  0  0  0  0  0
   -5.1993    2.1815    1.6447 O   0  0  0  0  0  0  0  0  0  0  0  0
   -6.2597    3.2292    5.1543 H   0  0  0  0  0  0  0  0  0  0  0  0
   -6.0193    3.6210    3.3660 H   0  0  0  0  0  0  0  0  0  0  0  0
   -5.6883    1.2226    6.1161 H   0  0  0  0  0  0  0  0  0  0  0  0
   -4.2736    0.4266    5.3604 H   0  0  0  0  0  0  0  0  0  0  0  0
   -5.9452   -0.1571    5.0182 H   0  0  0  0  0  0  0  0  0  0  0  0
   -6.7522    0.2531    2.0791 H   0  0  0  0  0  0  0  0  0  0  0  0
   -5.6278   -0.8509    2.9199 H   0  0  0  0  0  0  0  0  0  0  0  0
   -4.8199   -1.6142    1.0933 H   0  0  0  0  0  0  0  0  0  0  0  0
   -6.1419   -1.6625   -0.9241 H   0  0  0  0  0  0  0  0  0  0  0  0
   -7.0487   -0.2408   -0.2907 H   0  0  0  0  0  0  0  0  0  0  0  0
  -10.4760   -2.1724    2.9446 H   0  0  0  0  0  0  0  0  0  0  0  0
  -11.2547   -4.1503    4.1918 H   0  0  0  0  0  0  0  0  0  0  0  0
  -10.0257   -6.2954    4.0352 H   0  0  0  0  0  0  0  0  0  0  0  0
   -7.9955   -6.4605    2.6275 H   0  0  0  0  0  0  0  0  0  0  0  0
   -7.1831   -4.5019    1.3825 H   0  0  0  0  0  0  0  0  0  0  0  0
   -2.6964    4.0876    0.5663 H   0  0  0  0  0  0  0  0  0  0  0  0
   -4.0499    4.4477    1.6683 H   0  0  0  0  0  0  0  0  0  0  0  0
   -3.9323    4.4575   -1.3755 H   0  0  0  0  0  0  0  0  0  0  0  0
   -4.2184    5.7425   -0.2488 H   0  0  0  0  0  0  0  0  0  0  0  0
   -6.2555    5.3686   -1.3665 H   0  0  0  0  0  0  0  0  0  0  0  0
   -6.5126    4.8688    0.3361 H   0  0  0  0  0  0  0  0  0  0  0  0
   -7.6321    3.3737   -1.3901 H   0  0  0  0  0  0  0  0  0  0  0  0
   -6.4549    2.4672   -0.3908 H   0  0  0  0  0  0  0  0  0  0  0  0
   -4.7644    2.7335   -2.0656 H   0  0  0  0  0  0  0  0  0  0  0  0
   -5.8196    3.5994   -3.2032 H   0  0  0  0  0  0  0  0  0  0  0  0
   -7.1524    1.5716   -3.4989 H   0  0  0  0  0  0  0  0  0  0  0  0
   -6.3141    0.7257   -2.1683 H   0  0  0  0  0  0  0  0  0  0  0  0
   -4.9392    1.7477   -4.7115 H   0  0  0  0  0  0  0  0  0  0  0  0
   -5.4617    0.0527   -4.5001 H   0  0  0  0  0  0  0  0  0  0  0  0
   -3.3972    1.4135   -2.6223 H   0  0  0  0  0  0  0  0  0  0  0  0
   -2.8421   -0.1828   -5.1284 H   0  0  0  0  0  0  0  0  0  0  0  0
   -1.6317    0.3241   -3.8638 H   0  0  0  0  0  0  0  0  0  0  0  0
   -2.5306    1.5463   -4.8259 H   0  0  0  0  0  0  0  0  0  0  0  0
   -4.8106   -0.8253   -2.0667 H   0  0  0  0  0  0  0  0  0  0  0  0
   -2.5677   -1.8892   -3.8250 H   0  0  0  0  0  0  0  0  0  0  0  0
   -5.3026   -3.0072   -2.8854 H   0  0  0  0  0  0  0  0  0  0  0  0
   -4.1969   -3.7429   -4.1024 H   0  0  0  0  0  0  0  0  0  0  0  0
   -5.0140   -2.1889   -4.4695 H   0  0  0  0  0  0  0  0  0  0  0  0
   -2.9012   -3.7338    0.2713 H   0  0  0  0  0  0  0  0  0  0  0  0
   -0.4132   -1.5432   -1.2283 H   0  0  0  0  0  0  0  0  0  0  0  0
   -0.6788   -3.5717    0.7411 H   0  0  0  0  0  0  0  0  0  0  0  0
    1.1797   -2.2333    1.5316 H   0  0  0  0  0  0  0  0  0  0  0  0
    1.1535   -0.5942    2.2323 H   0  0  0  0  0  0  0  0  0  0  0  0
    4.6929   -0.9084   -1.0395 H   0  0  0  0  0  0  0  0  0  0  0  0
    4.6508    0.6574   -0.0990 H   0  0  0  0  0  0  0  0  0  0  0  0
    2.6148    1.3552   -1.2970 H   0  0  0  0  0  0  0  0  0  0  0  0
    2.5799   -0.2142   -2.1782 H   0  0  0  0  0  0  0  0  0  0  0  0
    3.2985    1.5228   -3.5814 H   0  0  0  0  0  0  0  0  0  0  0  0
    4.6503    0.3732   -3.4536 H   0  0  0  0  0  0  0  0  0  0  0  0
    4.5530    2.9824   -1.7471 H   0  0  0  0  0  0  0  0  0  0  0  0
    4.9382    3.0017   -3.4817 H   0  0  0  0  0  0  0  0  0  0  0  0
    6.9804    3.1194   -2.3900 H   0  0  0  0  0  0  0  0  0  0  0  0
    6.8658    1.5899   -3.3252 H   0  0  0  0  0  0  0  0  0  0  0  0
    6.5859    0.3233   -1.1987 H   0  0  0  0  0  0  0  0  0  0  0  0
    6.6143    1.8887   -0.2618 H   0  0  0  0  0  0  0  0  0  0  0  0
    8.9231    2.3128   -1.1488 H   0  0  0  0  0  0  0  0  0  0  0  0
    8.8312    0.7567   -2.0629 H   0  0  0  0  0  0  0  0  0  0  0  0
    8.6063   -0.4856    0.1435 H   0  0  0  0  0  0  0  0  0  0  0  0
    8.6465    1.0967    1.0021 H   0  0  0  0  0  0  0  0  0  0  0  0
   10.7937    0.0521    1.1754 H   0  0  0  0  0  0  0  0  0  0  0  0
   10.9562    1.5335    0.1529 H   0  0  0  0  0  0  0  0  0  0  0  0
   10.8496    0.0186   -1.8909 H   0  0  0  0  0  0  0  0  0  0  0  0
   10.8468   -1.4147   -0.8121 H   0  0  0  0  0  0  0  0  0  0  0  0
   13.0881    0.7139   -1.1907 H   0  0  0  0  0  0  0  0  0  0  0  0
   12.9704   -0.9127   -1.9230 H   0  0  0  0  0  0  0  0  0  0  0  0
   14.5925   -1.0808   -0.2892 H   0  0  0  0  0  0  0  0  0  0  0  0
   13.1783   -1.9915    0.3414 H   0  0  0  0  0  0  0  0  0  0  0  0
   12.7407   -0.0222    1.9196 H   0  0  0  0  0  0  0  0  0  0  0  0
   14.0855    0.8765    1.1296 H   0  0  0  0  0  0  0  0  0  0  0  0
   15.6849   -0.9020    1.8756 H   0  0  0  0  0  0  0  0  0  0  0  0
   14.3240   -1.8050    2.6485 H   0  0  0  0  0  0  0  0  0  0  0  0
   15.2590    1.0468    3.3825 H   0  0  0  0  0  0  0  0  0  0  0  0
   15.5928   -0.4638    4.3116 H   0  0  0  0  0  0  0  0  0  0  0  0
   13.8987    0.1424    4.1655 H   0  0  0  0  0  0  0  0  0  0  0  0
   -0.8165    0.3462    2.5154 H   0  0  0  0  0  0  0  0  0  0  0  0
   -3.0327   -1.0785    2.0740 H   0  0  0  0  0  0  0  0  0  0  0  0
   -2.9582    0.8204    3.5725 H   0  0  0  0  0  0  0  0  0  0  0  0
   -2.1680   -0.0485   -1.2923 H   0  0  0  0  0  0  0  0  0  0  0  0
  1  2  2  0  0  0  0
  1 65  1  0  0  0  0
  1 66  1  0  0  0  0
  2  3  1  0  0  0  0
  3 67  1  0  0  0  0
  3 68  1  0  0  0  0
  3 69  1  0  0  0  0
  4  2  1  1  0  0  0
  4  5  1  0  0  0  0
  5  6  1  0  0  0  0
  5 70  1  0  0  0  0
  5 71  1  0  0  0  0
  6  7  1  0  0  0  0
  6 17  1  0  0  0  0
  6 72  1  1  0  0  0
  7  8  1  0  0  0  0
  7 73  1  0  0  0  0
  7 74  1  0  0  0  0
  8  9  1  0  0  0  0
  9 10  2  0  0  0  0
  9 11  1  0  0  0  0
 11 12  2  0  0  0  0
 12 13  1  0  0  0  0
 12 75  1  0  0  0  0
 13 14  2  0  0  0  0
 13 76  1  0  0  0  0
 14 15  1  0  0  0  0
 14 77  1  0  0  0  0
 15 16  2  0  0  0  0
 15 78  1  0  0  0  0
 16 11  1  0  0  0  0
 16 79  1  0  0  0  0
 17 18  1  6  0  0  0
 19 18  1  6  0  0  0
 19 20  1  0  0  0  0
 19 64  1  0  0  0  0
 20 21  1  0  0  0  0
 20 80  1  0  0  0  0
 20 81  1  0  0  0  0
 21 22  1  0  0  0  0
 21 82  1  0  0  0  0
 21 83  1  0  0  0  0
 22 23  1  0  0  0  0
 22 84  1  0  0  0  0
 22 85  1  0  0  0  0
 23 24  1  0  0  0  0
 23 86  1  0  0  0  0
 23 87  1  0  0  0  0
 24 25  1  0  0  0  0
 24 88  1  0  0  0  0
 24 89  1  0  0  0  0
 25 26  1  0  0  0  0
 25 90  1  0  0  0  0
 25 91  1  0  0  0  0
 26 27  1  0  0  0  0
 26 92  1  0  0  0  0
 26 93  1  0  0  0  0
 27 28  1  0  0  0  0
 27 94  1  1  0  0  0
 28 95  1  0  0  0  0
 28 96  1  0  0  0  0
 28 97  1  0  0  0  0
 29 27  1  0  0  0  0
 29 30  1  0  0  0  0
 29 98  1  1  0  0  0
 30 31  1  0  0  0  0
 30 32  1  0  0  0  0
 30 99  1  6  0  0  0
 31100  1  0  0  0  0
 31101  1  0  0  0  0
 31102  1  0  0  0  0
 32 33  2  0  0  0  0
 32 34  1  0  0  0  0
 34 35  1  1  0  0  0
 34 36  1  0  0  0  0
 35103  1  0  0  0  0
 36 37  1  0  0  0  0
 36 38  1  0  0  0  0
 36104  1  6  0  0  0
 37105  1  0  0  0  0
 38 39  1  1  0  0  0
 38 58  1  0  0  0  0
 39 40  1  0  0  0  0
 39106  1  0  0  0  0
 39107  1  0  0  0  0
 40 41  1  0  0  0  0
 41 42  2  0  0  0  0
 41 43  1  0  0  0  0
 43 44  1  0  0  0  0
 43108  1  0  0  0  0
 43109  1  0  0  0  0
 44 45  1  0  0  0  0
 44110  1  0  0  0  0
 44111  1  0  0  0  0
 45 46  1  0  0  0  0
 45112  1  0  0  0  0
 45113  1  0  0  0  0
 46 47  1  0  0  0  0
 46114  1  0  0  0  0
 46115  1  0  0  0  0
 47 48  1  0  0  0  0
 47116  1  0  0  0  0
 47117  1  0  0  0  0
 48 49  1  0  0  0  0
 48118  1  0  0  0  0
 48119  1  0  0  0  0
 49 50  1  0  0  0  0
 49120  1  0  0  0  0
 49121  1  0  0  0  0
 50 51  1  0  0  0  0
 50122  1  0  0  0  0
 50123  1  0  0  0  0
 51 52  1  0  0  0  0
 51124  1  0  0  0  0
 51125  1  0  0  0  0
 52 53  1  0  0  0  0
 52126  1  0  0  0  0
 52127  1  0  0  0  0
 53 54  1  0  0  0  0
 53128  1  0  0  0  0
 53129  1  0  0  0  0
 54 55  1  0  0  0  0
 54130  1  0  0  0  0
 54131  1  0  0  0  0
 55 56  1  0  0  0  0
 55132  1  0  0  0  0
 55133  1  0  0  0  0
 56 57  1  0  0  0  0
 56134  1  0  0  0  0
 56135  1  0  0  0  0
 57136  1  0  0  0  0
 57137  1  0  0  0  0
 57138  1  0  0  0  0
 59 58  1  0  0  0  0
 59 38  1  0  0  0  0
 59139  1  1  0  0  0
 60 59  1  0  0  0  0
 60 61  1  0  0  0  0
 60 17  1  0  0  0  0
 60140  1  1  0  0  0
 61 62  1  0  0  0  0
 61  4  1  0  0  0  0
 61141  1  1  0  0  0
 62 19  1  0  0  0  0
 63 34  1  0  0  0  0
 63 17  1  0  0  0  0
 63 29  1  0  0  0  0
 63142  1  6  0  0  0
 64  4  1  0  0  0  0
M  END
>  <IDENTIFIER>
CNP0300720.2

>  <Energy>
3178.49

$$$$
