
 OpenBabel09102514043D

 59 61  0  0  0  0  0  0  0  0999 V2000
    4.1319    1.7099    3.2351 N   0  0  0  0  0  0  0  0  0  0  0  0
    4.1031    1.4507    2.1075 C   0  0  0  0  0  0  0  0  0  0  0  0
    4.0728    1.1231    0.6746 C   0  0  2  0  0  0  0  0  0  0  0  0
    2.8787    0.4210    0.3698 O   0  0  0  0  0  0  0  0  0  0  0  0
    1.8924    1.2105   -0.2770 C   0  0  2  0  0  0  0  0  0  0  0  0
    1.0228    1.8335    0.6707 O   0  0  0  0  0  0  0  0  0  0  0  0
    0.1794    0.9252    1.3886 C   0  0  2  0  0  0  0  0  0  0  0  0
    0.9213    0.2254    2.5487 C   0  0  0  0  0  0  0  0  0  0  0  0
    0.0225   -0.5008    3.3446 O   0  0  0  0  0  0  0  0  0  0  0  0
   -0.6259   -0.0294    0.4614 C   0  0  1  0  0  0  0  0  0  0  0  0
   -1.6087    0.7356   -0.2306 O   0  0  0  0  0  0  0  0  0  0  0  0
   -2.9251    0.3417    0.1248 C   0  0  2  0  0  0  0  0  0  0  0  0
   -3.2079   -0.8894   -0.5593 O   0  0  0  0  0  0  0  0  0  0  0  0
   -4.5707   -1.0276   -0.9022 C   0  0  2  0  0  0  0  0  0  0  0  0
   -4.8254   -2.4551   -1.4066 C   0  0  0  0  0  0  0  0  0  0  0  0
   -6.1823   -2.6561   -1.6974 O   0  0  0  0  0  0  0  0  0  0  0  0
   -4.9815    0.0378   -1.9676 C   0  0  1  0  0  0  0  0  0  0  0  0
   -6.3836    0.1677   -2.0018 O   0  0  0  0  0  0  0  0  0  0  0  0
   -4.2844    1.4117   -1.7027 C   0  0  2  0  0  0  0  0  0  0  0  0
   -3.1351    1.5783   -2.5054 O   0  0  0  0  0  0  0  0  0  0  0  0
   -3.8959    1.5200   -0.2211 C   0  0  1  0  0  0  0  0  0  0  0  0
   -5.0609    1.4556    0.5634 O   0  0  0  0  0  0  0  0  0  0  0  0
    0.2898   -0.7237   -0.5624 C   0  0  2  0  0  0  0  0  0  0  0  0
    1.1547   -1.6269    0.0779 O   0  0  0  0  0  0  0  0  0  0  0  0
    1.1166    0.3404   -1.2997 C   0  0  1  0  0  0  0  0  0  0  0  0
    0.2891    1.1150   -2.1418 O   0  0  0  0  0  0  0  0  0  0  0  0
    5.2361    0.2226    0.3331 C   0  0  0  0  0  0  0  0  0  0  0  0
    5.3363   -1.0578    0.9117 C   0  0  0  0  0  0  0  0  0  0  0  0
    6.4032   -1.9001    0.5859 C   0  0  0  0  0  0  0  0  0  0  0  0
    7.3800   -1.4749   -0.3172 C   0  0  0  0  0  0  0  0  0  0  0  0
    7.2912   -0.2067   -0.8971 C   0  0  0  0  0  0  0  0  0  0  0  0
    6.2245    0.6395   -0.5767 C   0  0  0  0  0  0  0  0  0  0  0  0
    4.1881    2.0809    0.1192 H   0  0  0  0  0  0  0  0  0  0  0  0
    2.3558    2.0052   -0.9049 H   0  0  0  0  0  0  0  0  0  0  0  0
   -0.5831    1.5506    1.9043 H   0  0  0  0  0  0  0  0  0  0  0  0
    1.4339    0.9900    3.1751 H   0  0  0  0  0  0  0  0  0  0  0  0
    1.7017   -0.4741    2.2035 H   0  0  0  0  0  0  0  0  0  0  0  0
   -0.4541    0.1594    3.9134 H   0  0  0  0  0  0  0  0  0  0  0  0
   -1.0910   -0.8334    1.0811 H   0  0  0  0  0  0  0  0  0  0  0  0
   -2.9884    0.2080    1.2312 H   0  0  0  0  0  0  0  0  0  0  0  0
   -5.1684   -0.9110    0.0301 H   0  0  0  0  0  0  0  0  0  0  0  0
   -4.4835   -3.1984   -0.6503 H   0  0  0  0  0  0  0  0  0  0  0  0
   -4.2321   -2.6407   -2.3275 H   0  0  0  0  0  0  0  0  0  0  0  0
   -6.6384   -2.8099   -0.8291 H   0  0  0  0  0  0  0  0  0  0  0  0
   -4.6718   -0.2803   -2.9875 H   0  0  0  0  0  0  0  0  0  0  0  0
   -6.6804    0.5141   -1.1214 H   0  0  0  0  0  0  0  0  0  0  0  0
   -4.9796    2.2283   -1.9966 H   0  0  0  0  0  0  0  0  0  0  0  0
   -2.6544    0.7134   -2.5741 H   0  0  0  0  0  0  0  0  0  0  0  0
   -3.4028    2.5001   -0.0208 H   0  0  0  0  0  0  0  0  0  0  0  0
   -4.8082    1.7443    1.4793 H   0  0  0  0  0  0  0  0  0  0  0  0
   -0.3154   -1.2892   -1.3092 H   0  0  0  0  0  0  0  0  0  0  0  0
    0.6137   -2.4247    0.3164 H   0  0  0  0  0  0  0  0  0  0  0  0
    1.8555   -0.1611   -1.9631 H   0  0  0  0  0  0  0  0  0  0  0  0
    0.0337    1.9555   -1.6814 H   0  0  0  0  0  0  0  0  0  0  0  0
    4.5844   -1.4035    1.6108 H   0  0  0  0  0  0  0  0  0  0  0  0
    6.4713   -2.8838    1.0326 H   0  0  0  0  0  0  0  0  0  0  0  0
    8.2051   -2.1288   -0.5688 H   0  0  0  0  0  0  0  0  0  0  0  0
    8.0489    0.1204   -1.5973 H   0  0  0  0  0  0  0  0  0  0  0  0
    6.1714    1.6172   -1.0389 H   0  0  0  0  0  0  0  0  0  0  0  0
  1  2  3  0  0  0  0
  3  2  1  0  0  0  0
  3  4  1  0  0  0  0
  3 27  1  0  0  0  0
  3 33  1  6  0  0  0
  5  4  1  0  0  0  0
  5  6  1  0  0  0  0
  5 34  1  6  0  0  0
  6  7  1  0  0  0  0
  7  8  1  0  0  0  0
  7 10  1  0  0  0  0
  7 35  1  1  0  0  0
  8  9  1  0  0  0  0
  8 36  1  0  0  0  0
  8 37  1  0  0  0  0
  9 38  1  0  0  0  0
 10 11  1  0  0  0  0
 10 23  1  0  0  0  0
 10 39  1  1  0  0  0
 12 11  1  0  0  0  0
 12 13  1  0  0  0  0
 12 40  1  1  0  0  0
 13 14  1  0  0  0  0
 14 15  1  0  0  0  0
 14 17  1  0  0  0  0
 14 41  1  1  0  0  0
 15 16  1  0  0  0  0
 15 42  1  0  0  0  0
 15 43  1  0  0  0  0
 16 44  1  0  0  0  0
 17 18  1  0  0  0  0
 17 19  1  0  0  0  0
 17 45  1  6  0  0  0
 18 46  1  0  0  0  0
 19 20  1  0  0  0  0
 19 21  1  0  0  0  0
 19 47  1  6  0  0  0
 20 48  1  0  0  0  0
 21 22  1  0  0  0  0
 21 12  1  0  0  0  0
 21 49  1  1  0  0  0
 22 50  1  0  0  0  0
 23 24  1  0  0  0  0
 23 25  1  0  0  0  0
 23 51  1  6  0  0  0
 24 52  1  0  0  0  0
 25 26  1  0  0  0  0
 25  5  1  0  0  0  0
 25 53  1  6  0  0  0
 26 54  1  0  0  0  0
 27 28  2  0  0  0  0
 28 29  1  0  0  0  0
 28 55  1  0  0  0  0
 29 30  2  0  0  0  0
 29 56  1  0  0  0  0
 30 31  1  0  0  0  0
 30 57  1  0  0  0  0
 31 32  2  0  0  0  0
 31 58  1  0  0  0  0
 32 27  1  0  0  0  0
 32 59  1  0  0  0  0
M  END
>  <IDENTIFIER>
CNP0529778.1

>  <Energy>
683.835

$$$$
