
 OpenBabel09112523453D

 45 46  0  0  0  0  0  0  0  0999 V2000
    7.9446    0.4501    0.2421 C   0  0  0  0  0  0  0  0  0  0  0  0
    6.5840    0.6681    0.1995 O   0  0  0  0  0  0  0  0  0  0  0  0
    5.7085   -0.1511   -0.4392 C   0  0  0  0  0  0  0  0  0  0  0  0
    6.1028   -1.1524   -1.0218 O   0  0  0  0  0  0  0  0  0  0  0  0
    4.2353    0.1735   -0.4313 C   0  0  2  0  0  0  0  0  0  0  0  0
    4.0094    1.5221   -1.1288 C   0  0  0  0  0  0  0  0  0  0  0  0
    3.7150    0.1640    1.0251 C   0  0  0  0  0  0  0  0  0  0  0  0
    2.1991    0.3625    1.1474 C   0  0  0  0  0  0  0  0  0  0  0  0
    1.5400   -0.6302    0.4485 O   0  0  0  0  0  0  0  0  0  0  0  0
    0.1948   -0.7962    0.3661 C   0  0  0  0  0  0  0  0  0  0  0  0
   -0.2891   -1.8634   -0.3857 C   0  0  0  0  0  0  0  0  0  0  0  0
   -1.6650   -2.0985   -0.5068 C   0  0  0  0  0  0  0  0  0  0  0  0
   -2.0899   -3.1384   -1.2578 O   0  0  0  0  0  0  0  0  0  0  0  0
   -2.6001   -1.2441    0.1310 C   0  0  0  0  0  0  0  0  0  0  0  0
   -4.0675   -1.5315   -0.0351 C   0  0  0  0  0  0  0  0  0  0  0  0
   -4.4124   -2.7027   -0.1140 O   0  0  0  0  0  0  0  0  0  0  0  0
   -5.1325   -0.4891   -0.1904 C   0  0  0  0  0  0  0  0  0  0  0  0
   -6.4882   -0.8529   -0.0498 C   0  0  0  0  0  0  0  0  0  0  0  0
   -7.5032    0.0949   -0.2084 C   0  0  0  0  0  0  0  0  0  0  0  0
   -7.1846    1.4164   -0.5218 C   0  0  0  0  0  0  0  0  0  0  0  0
   -5.8501    1.7914   -0.6838 C   0  0  0  0  0  0  0  0  0  0  0  0
   -4.8299    0.8481   -0.5247 C   0  0  0  0  0  0  0  0  0  0  0  0
   -2.0973   -0.1698    0.9233 C   0  0  0  0  0  0  0  0  0  0  0  0
   -2.8923    0.6403    1.6564 O   0  0  0  0  0  0  0  0  0  0  0  0
   -0.7173    0.0470    1.0193 C   0  0  0  0  0  0  0  0  0  0  0  0
    8.4259    1.2629    0.8236 H   0  0  0  0  0  0  0  0  0  0  0  0
    8.3640    0.4489   -0.7868 H   0  0  0  0  0  0  0  0  0  0  0  0
    8.1613   -0.5210    0.7366 H   0  0  0  0  0  0  0  0  0  0  0  0
    3.6994   -0.6130   -1.0090 H   0  0  0  0  0  0  0  0  0  0  0  0
    4.5179    2.3416   -0.5765 H   0  0  0  0  0  0  0  0  0  0  0  0
    2.9285    1.7558   -1.2056 H   0  0  0  0  0  0  0  0  0  0  0  0
    4.4136    1.4842   -2.1632 H   0  0  0  0  0  0  0  0  0  0  0  0
    4.2306    0.9523    1.6169 H   0  0  0  0  0  0  0  0  0  0  0  0
    3.9599   -0.8217    1.4802 H   0  0  0  0  0  0  0  0  0  0  0  0
    1.9026    1.3615    0.7651 H   0  0  0  0  0  0  0  0  0  0  0  0
    1.9262    0.3048    2.2239 H   0  0  0  0  0  0  0  0  0  0  0  0
    0.4143   -2.5192   -0.8849 H   0  0  0  0  0  0  0  0  0  0  0  0
   -1.4785   -3.7355   -1.7125 H   0  0  0  0  0  0  0  0  0  0  0  0
   -6.7659   -1.8714    0.1917 H   0  0  0  0  0  0  0  0  0  0  0  0
   -8.5386   -0.1975   -0.0896 H   0  0  0  0  0  0  0  0  0  0  0  0
   -7.9725    2.1482   -0.6462 H   0  0  0  0  0  0  0  0  0  0  0  0
   -5.6052    2.8145   -0.9381 H   0  0  0  0  0  0  0  0  0  0  0  0
   -3.8089    1.1687   -0.6766 H   0  0  0  0  0  0  0  0  0  0  0  0
   -3.8325    0.4880    1.8071 H   0  0  0  0  0  0  0  0  0  0  0  0
   -0.3645    0.8681    1.6297 H   0  0  0  0  0  0  0  0  0  0  0  0
  1  2  1  0  0  0  0
  1 26  1  0  0  0  0
  1 27  1  0  0  0  0
  1 28  1  0  0  0  0
  2  3  1  0  0  0  0
  3  4  2  0  0  0  0
  3  5  1  0  0  0  0
  5  6  1  0  0  0  0
  5  7  1  0  0  0  0
  5 29  1  6  0  0  0
  6 30  1  0  0  0  0
  6 31  1  0  0  0  0
  6 32  1  0  0  0  0
  7  8  1  0  0  0  0
  7 33  1  0  0  0  0
  7 34  1  0  0  0  0
  8  9  1  0  0  0  0
  8 35  1  0  0  0  0
  8 36  1  0  0  0  0
  9 10  1  0  0  0  0
 10 11  2  0  0  0  0
 11 12  1  0  0  0  0
 11 37  1  0  0  0  0
 12 13  1  0  0  0  0
 12 14  2  0  0  0  0
 13 38  1  0  0  0  0
 14 15  1  0  0  0  0
 14 23  1  0  0  0  0
 15 16  2  0  0  0  0
 15 17  1  0  0  0  0
 17 18  2  0  0  0  0
 18 19  1  0  0  0  0
 18 39  1  0  0  0  0
 19 20  2  0  0  0  0
 19 40  1  0  0  0  0
 20 21  1  0  0  0  0
 20 41  1  0  0  0  0
 21 22  2  0  0  0  0
 21 42  1  0  0  0  0
 22 17  1  0  0  0  0
 22 43  1  0  0  0  0
 23 24  1  0  0  0  0
 23 25  2  0  0  0  0
 24 44  1  0  0  0  0
 25 10  1  0  0  0  0
 25 45  1  0  0  0  0
M  END
>  <IDENTIFIER>
CNP0274465.1

>  <Energy>
282.173

$$$$
