
 OpenBabel09092501543D

 72 76  0  0  0  0  0  0  0  0999 V2000
    4.5939   -2.6286   -0.0914 O   0  0  0  0  0  0  0  0  0  0  0  0
    4.5023   -1.4205    0.0460 C   0  0  0  0  0  0  0  0  0  0  0  0
    5.6605   -0.6514   -0.0564 C   0  0  0  0  0  0  0  0  0  0  0  0
    5.5869    0.7432    0.1144 C   0  0  0  0  0  0  0  0  0  0  0  0
    6.7887    1.6294    0.0677 C   0  0  0  0  0  0  0  0  0  0  0  0
    8.0794    1.1504   -0.2463 C   0  0  0  0  0  0  0  0  0  0  0  0
    9.1790    2.0130   -0.2537 C   0  0  0  0  0  0  0  0  0  0  0  0
    9.0166    3.3688    0.0535 C   0  0  0  0  0  0  0  0  0  0  0  0
   10.0732    4.2069    0.0573 O   0  0  0  0  0  0  0  0  0  0  0  0
    7.7465    3.8582    0.3621 C   0  0  0  0  0  0  0  0  0  0  0  0
    6.6423    3.0005    0.3671 C   0  0  0  0  0  0  0  0  0  0  0  0
    4.3984    1.2975    0.3479 O   0  0  0  0  0  0  0  0  0  0  0  0
    3.2672    0.6054    0.4457 C   0  0  0  0  0  0  0  0  0  0  0  0
    2.0855    1.2918    0.6872 C   0  0  0  0  0  0  0  0  0  0  0  0
    0.8776    0.6085    0.8178 C   0  0  0  0  0  0  0  0  0  0  0  0
   -0.2472    1.3171    1.0724 O   0  0  0  0  0  0  0  0  0  0  0  0
    0.8214   -0.8074    0.7144 C   0  0  0  0  0  0  0  0  0  0  0  0
   -0.5670   -1.4356    0.9372 C   0  0  2  0  0  0  0  0  0  0  0  0
   -0.4915   -2.8303    1.2224 O   0  0  0  0  0  0  0  0  0  0  0  0
   -1.7548   -3.4495    1.1227 C   0  0  2  0  0  0  0  0  0  0  0  0
   -1.7005   -4.8211    1.8068 C   0  0  0  0  0  0  0  0  0  0  0  0
   -2.9489   -5.4579    1.7676 O   0  0  0  0  0  0  0  0  0  0  0  0
   -2.1705   -3.5501   -0.3745 C   0  0  1  0  0  0  0  0  0  0  0  0
   -3.5590   -3.7521   -0.4762 O   0  0  0  0  0  0  0  0  0  0  0  0
   -1.7019   -2.2853   -1.1759 C   0  0  2  0  0  0  0  0  0  0  0  0
   -0.4694   -2.4907   -1.8322 O   0  0  0  0  0  0  0  0  0  0  0  0
   -1.5616   -1.0761   -0.2337 C   0  0  1  0  0  0  0  0  0  0  0  0
   -2.8325   -0.7740    0.3263 O   0  0  0  0  0  0  0  0  0  0  0  0
   -3.4126    0.4353   -0.1499 C   0  0  1  0  0  0  0  0  0  0  0  0
   -4.4771    0.0670   -1.0146 O   0  0  0  0  0  0  0  0  0  0  0  0
   -5.3615    1.1118   -1.4123 C   0  0  2  0  0  0  0  0  0  0  0  0
   -4.8428    1.8295   -2.6692 C   0  0  0  0  0  0  0  0  0  0  0  0
   -5.7686    2.7792   -3.1256 O   0  0  0  0  0  0  0  0  0  0  0  0
   -5.7405    2.1057   -0.2777 C   0  0  1  0  0  0  0  0  0  0  0  0
   -7.0929    2.4826   -0.3628 O   0  0  0  0  0  0  0  0  0  0  0  0
   -5.3875    1.5087    1.0894 C   0  0  2  0  0  0  0  0  0  0  0  0
   -5.7623    2.3671    2.1397 O   0  0  0  0  0  0  0  0  0  0  0  0
   -3.8663    1.2792    1.0806 C   0  0  1  0  0  0  0  0  0  0  0  0
   -3.4050    0.7562    2.3027 O   0  0  0  0  0  0  0  0  0  0  0  0
    2.0431   -1.5183    0.4537 C   0  0  0  0  0  0  0  0  0  0  0  0
    2.1147   -2.8670    0.3315 O   0  0  0  0  0  0  0  0  0  0  0  0
    3.2614   -0.7967    0.3131 C   0  0  0  0  0  0  0  0  0  0  0  0
    6.5920   -1.1575   -0.2492 H   0  0  0  0  0  0  0  0  0  0  0  0
    8.2665    0.1173   -0.4885 H   0  0  0  0  0  0  0  0  0  0  0  0
   10.1596    1.6229   -0.4960 H   0  0  0  0  0  0  0  0  0  0  0  0
   10.9697    3.9037   -0.1455 H   0  0  0  0  0  0  0  0  0  0  0  0
    7.6131    4.9052    0.6031 H   0  0  0  0  0  0  0  0  0  0  0  0
    5.6734    3.4143    0.6184 H   0  0  0  0  0  0  0  0  0  0  0  0
    2.1089    2.3704    0.7847 H   0  0  0  0  0  0  0  0  0  0  0  0
   -0.2505    2.2811    1.1613 H   0  0  0  0  0  0  0  0  0  0  0  0
   -0.9261   -0.9501    1.8740 H   0  0  0  0  0  0  0  0  0  0  0  0
   -2.4941   -2.8399    1.6946 H   0  0  0  0  0  0  0  0  0  0  0  0
   -1.3599   -4.7085    2.8627 H   0  0  0  0  0  0  0  0  0  0  0  0
   -0.9526   -5.4678    1.3000 H   0  0  0  0  0  0  0  0  0  0  0  0
   -3.4832   -5.0817    2.5151 H   0  0  0  0  0  0  0  0  0  0  0  0
   -1.6930   -4.4297   -0.8601 H   0  0  0  0  0  0  0  0  0  0  0  0
   -4.0137   -2.9453   -0.1229 H   0  0  0  0  0  0  0  0  0  0  0  0
   -2.4369   -2.0863   -1.9859 H   0  0  0  0  0  0  0  0  0  0  0  0
    0.0594   -3.1721   -1.3504 H   0  0  0  0  0  0  0  0  0  0  0  0
   -1.1412   -0.2300   -0.8201 H   0  0  0  0  0  0  0  0  0  0  0  0
   -2.7070    1.0717   -0.7308 H   0  0  0  0  0  0  0  0  0  0  0  0
   -6.2949    0.5735   -1.6867 H   0  0  0  0  0  0  0  0  0  0  0  0
   -4.6157    1.0940   -3.4738 H   0  0  0  0  0  0  0  0  0  0  0  0
   -3.8913    2.3534   -2.4361 H   0  0  0  0  0  0  0  0  0  0  0  0
   -6.4561    2.2821   -3.6401 H   0  0  0  0  0  0  0  0  0  0  0  0
   -5.1287    3.0308   -0.3768 H   0  0  0  0  0  0  0  0  0  0  0  0
   -7.6387    1.6863   -0.1239 H   0  0  0  0  0  0  0  0  0  0  0  0
   -5.9200    0.5411    1.2248 H   0  0  0  0  0  0  0  0  0  0  0  0
   -5.2973    3.2349    2.0079 H   0  0  0  0  0  0  0  0  0  0  0  0
   -3.3899    2.2811    0.9726 H   0  0  0  0  0  0  0  0  0  0  0  0
   -3.9234   -0.0678    2.4904 H   0  0  0  0  0  0  0  0  0  0  0  0
    1.4113   -3.5154    0.3703 H   0  0  0  0  0  0  0  0  0  0  0  0
  1  2  2  0  0  0  0
  2  3  1  0  0  0  0
  3  4  2  0  0  0  0
  3 43  1  0  0  0  0
  4  5  1  0  0  0  0
  4 12  1  0  0  0  0
  5  6  2  0  0  0  0
  6  7  1  0  0  0  0
  6 44  1  0  0  0  0
  7  8  2  0  0  0  0
  7 45  1  0  0  0  0
  8  9  1  0  0  0  0
  8 10  1  0  0  0  0
  9 46  1  0  0  0  0
 10 11  2  0  0  0  0
 10 47  1  0  0  0  0
 11  5  1  0  0  0  0
 11 48  1  0  0  0  0
 12 13  1  0  0  0  0
 13 14  2  0  0  0  0
 14 15  1  0  0  0  0
 14 49  1  0  0  0  0
 15 16  1  0  0  0  0
 15 17  2  0  0  0  0
 16 50  1  0  0  0  0
 17 40  1  0  0  0  0
 18 17  1  0  0  0  0
 18 19  1  0  0  0  0
 18 51  1  1  0  0  0
 19 20  1  0  0  0  0
 20 21  1  0  0  0  0
 20 23  1  0  0  0  0
 20 52  1  1  0  0  0
 21 22  1  0  0  0  0
 21 53  1  0  0  0  0
 21 54  1  0  0  0  0
 22 55  1  0  0  0  0
 23 24  1  0  0  0  0
 23 25  1  0  0  0  0
 23 56  1  6  0  0  0
 24 57  1  0  0  0  0
 25 26  1  0  0  0  0
 25 27  1  0  0  0  0
 25 58  1  6  0  0  0
 26 59  1  0  0  0  0
 27 28  1  0  0  0  0
 27 18  1  0  0  0  0
 27 60  1  6  0  0  0
 29 28  1  0  0  0  0
 29 30  1  0  0  0  0
 29 61  1  6  0  0  0
 30 31  1  0  0  0  0
 31 32  1  0  0  0  0
 31 34  1  0  0  0  0
 31 62  1  6  0  0  0
 32 33  1  0  0  0  0
 32 63  1  0  0  0  0
 32 64  1  0  0  0  0
 33 65  1  0  0  0  0
 34 35  1  0  0  0  0
 34 36  1  0  0  0  0
 34 66  1  6  0  0  0
 35 67  1  0  0  0  0
 36 37  1  0  0  0  0
 36 38  1  0  0  0  0
 36 68  1  1  0  0  0
 37 69  1  0  0  0  0
 38 39  1  0  0  0  0
 38 29  1  0  0  0  0
 38 70  1  6  0  0  0
 39 71  1  0  0  0  0
 40 41  1  0  0  0  0
 40 42  2  0  0  0  0
 41 72  1  0  0  0  0
 42  2  1  0  0  0  0
 42 13  1  0  0  0  0
M  END
>  <IDENTIFIER>
CNP0212622.8

>  <Energy>
981.544

$$$$
