
 OpenBabel09112516263D

 53 54  0  0  0  0  0  0  0  0999 V2000
    5.0192    2.1974   -1.5750 C   0  0  0  0  0  0  0  0  0  0  0  0
    3.5833    2.0141   -1.0688 C   0  0  2  0  0  0  0  0  0  0  0  0
    3.5276    2.3646    0.3526 N   0  0  0  0  0  0  0  0  0  0  0  0
    3.1013    0.5983   -1.3665 C   0  0  0  0  0  0  0  0  0  0  0  0
    3.0920    0.2405   -2.5369 O   0  0  0  0  0  0  0  0  0  0  0  0
    2.6954   -0.2662   -0.3865 N   0  0  0  0  0  0  0  0  0  0  0  0
    2.2866   -1.6372   -0.6602 C   0  0  1  0  0  0  0  0  0  0  0  0
    3.2366   -2.5900    0.0729 C   0  0  0  0  0  0  0  0  0  0  0  0
    0.8484   -1.9152   -0.2533 C   0  0  0  0  0  0  0  0  0  0  0  0
    0.4206   -3.0432   -0.4583 O   0  0  0  0  0  0  0  0  0  0  0  0
    0.0314   -0.9659    0.3067 N   0  0  0  0  0  0  0  0  0  0  0  0
   -1.3517   -1.2541    0.6847 C   0  0  2  0  0  0  0  0  0  0  0  0
   -2.3213   -0.3686   -0.1429 C   0  0  2  0  0  0  0  0  0  0  0  0
   -2.0680   -0.4318   -1.6620 C   0  0  0  0  0  0  0  0  0  0  0  0
   -3.1962    0.3551   -2.3417 C   0  0  2  0  0  0  0  0  0  0  0  0
   -3.1438    0.2424   -3.7410 O   0  0  0  0  0  0  0  0  0  0  0  0
   -3.1888    1.8339   -1.9110 C   0  0  0  0  0  0  0  0  0  0  0  0
   -2.8128    2.0703   -0.4558 C   0  0  0  0  0  0  0  0  0  0  0  0
   -2.8633    3.3422    0.0016 O   0  0  0  0  0  0  0  0  0  0  0  0
   -2.3721    1.0692    0.3586 C   0  0  0  0  0  0  0  0  0  0  0  0
   -1.9082    1.3265    1.7628 C   0  0  0  0  0  0  0  0  0  0  0  0
   -1.8852    2.4579    2.2212 O   0  0  0  0  0  0  0  0  0  0  0  0
   -1.4387    0.3075    2.5301 O   0  0  0  0  0  0  0  0  0  0  0  0
   -1.5910   -1.0361    2.2251 C   0  0  1  0  0  0  0  0  0  0  0  0
   -3.0324   -1.4566    2.6194 C   0  0  0  0  0  0  0  0  0  0  0  0
   -0.6099   -1.8502    3.1256 C   0  0  0  0  0  0  0  0  0  0  0  0
    1.0814   -1.2757    3.0512 Cl  0  0  0  0  0  0  0  0  0  0  0  0
   -0.6380   -3.6058    2.7863 Cl  0  0  0  0  0  0  0  0  0  0  0  0
    5.3560    3.2397   -1.3926 H   0  0  0  0  0  0  0  0  0  0  0  0
    5.0761    2.0006   -2.6672 H   0  0  0  0  0  0  0  0  0  0  0  0
    5.7086    1.5007   -1.0504 H   0  0  0  0  0  0  0  0  0  0  0  0
    2.9292    2.7223   -1.6233 H   0  0  0  0  0  0  0  0  0  0  0  0
    4.1442    1.7354    0.9174 H   0  0  0  0  0  0  0  0  0  0  0  0
    2.5415    2.3136    0.6981 H   0  0  0  0  0  0  0  0  0  0  0  0
    2.6992    0.0288    0.5997 H   0  0  0  0  0  0  0  0  0  0  0  0
    2.3612   -1.8627   -1.7467 H   0  0  0  0  0  0  0  0  0  0  0  0
    3.1818   -2.4291    1.1709 H   0  0  0  0  0  0  0  0  0  0  0  0
    4.2808   -2.4130   -0.2615 H   0  0  0  0  0  0  0  0  0  0  0  0
    2.9779   -3.6480   -0.1468 H   0  0  0  0  0  0  0  0  0  0  0  0
    0.3825   -0.0103    0.4641 H   0  0  0  0  0  0  0  0  0  0  0  0
   -1.5961   -2.3108    0.4415 H   0  0  0  0  0  0  0  0  0  0  0  0
   -3.3419   -0.7793    0.0074 H   0  0  0  0  0  0  0  0  0  0  0  0
   -2.1010   -1.4904   -1.9995 H   0  0  0  0  0  0  0  0  0  0  0  0
   -1.0761   -0.0007   -1.9246 H   0  0  0  0  0  0  0  0  0  0  0  0
   -4.1540   -0.1010   -2.0056 H   0  0  0  0  0  0  0  0  0  0  0  0
   -2.2585    0.5849   -4.0340 H   0  0  0  0  0  0  0  0  0  0  0  0
   -4.1837    2.2712   -2.1449 H   0  0  0  0  0  0  0  0  0  0  0  0
   -2.4242    2.3862   -2.4982 H   0  0  0  0  0  0  0  0  0  0  0  0
   -3.1681    4.0729   -0.5548 H   0  0  0  0  0  0  0  0  0  0  0  0
   -3.1894   -1.3162    3.7105 H   0  0  0  0  0  0  0  0  0  0  0  0
   -3.2204   -2.5226    2.3721 H   0  0  0  0  0  0  0  0  0  0  0  0
   -3.8055   -0.8394    2.1217 H   0  0  0  0  0  0  0  0  0  0  0  0
   -0.9025   -1.7127    4.1890 H   0  0  0  0  0  0  0  0  0  0  0  0
  1 29  1  0  0  0  0
  1 30  1  0  0  0  0
  1 31  1  0  0  0  0
  2  1  1  0  0  0  0
  2  3  1  0  0  0  0
  2  4  1  0  0  0  0
  2 32  1  6  0  0  0
  3 33  1  0  0  0  0
  3 34  1  0  0  0  0
  4  5  2  0  0  0  0
  4  6  1  0  0  0  0
  6  7  1  0  0  0  0
  6 35  1  0  0  0  0
  7  8  1  0  0  0  0
  7  9  1  0  0  0  0
  7 36  1  6  0  0  0
  8 37  1  0  0  0  0
  8 38  1  0  0  0  0
  8 39  1  0  0  0  0
  9 10  2  0  0  0  0
  9 11  1  0  0  0  0
 11 40  1  0  0  0  0
 12 11  1  0  0  0  0
 12 13  1  0  0  0  0
 12 41  1  6  0  0  0
 13 14  1  0  0  0  0
 13 42  1  1  0  0  0
 14 15  1  0  0  0  0
 14 43  1  0  0  0  0
 14 44  1  0  0  0  0
 15 16  1  0  0  0  0
 15 17  1  0  0  0  0
 15 45  1  1  0  0  0
 16 46  1  0  0  0  0
 17 18  1  0  0  0  0
 17 47  1  0  0  0  0
 17 48  1  0  0  0  0
 18 19  1  0  0  0  0
 18 20  2  0  0  0  0
 19 49  1  0  0  0  0
 20 21  1  0  0  0  0
 20 13  1  0  0  0  0
 21 22  2  0  0  0  0
 21 23  1  0  0  0  0
 23 24  1  0  0  0  0
 24 25  1  1  0  0  0
 24 26  1  0  0  0  0
 24 12  1  0  0  0  0
 25 50  1  0  0  0  0
 25 51  1  0  0  0  0
 25 52  1  0  0  0  0
 26 27  1  0  0  0  0
 26 28  1  0  0  0  0
 26 53  1  0  0  0  0
M  END
>  <IDENTIFIER>
CNP0313557.1

>  <Energy>
323.744

$$$$
