
 OpenBabel09082510262D

133132  0  0  0  0  0  0  0  0999 V2000
   15.5885    9.0000    0.0000 C   0  0  0  0  0  0  0  0  0  0  0  0
   14.2894    8.2500    0.0000 C   0  0  0  0  0  0  0  0  0  0  0  0
   13.3976    6.7959    0.2392 C   0  0  0  0  0  0  0  0  0  0  0  0
   11.6913    6.7500    0.0000 C   0  0  0  0  0  0  0  0  0  0  0  0
   10.3923    6.0000    0.0000 C   0  0  0  0  0  0  0  0  0  0  0  0
    9.0933    5.2500    0.0000 C   0  0  0  0  0  0  0  0  0  0  0  0
    7.7942    4.5000    0.0000 C   0  0  0  0  0  0  0  0  0  0  0  0
    6.4952    3.7500    0.0000 C   0  0  0  0  0  0  0  0  0  0  0  0
    5.1962    3.0000    0.0000 C   0  0  0  0  0  0  0  0  0  0  0  0
    3.6075    2.7136   -0.3012 C   0  0  0  0  0  0  0  0  0  0  0  0
    3.0255    1.2143    0.1402 C   0  0  0  0  0  0  0  0  0  0  0  0
    1.4792    0.7506   -0.1732 C   0  0  0  0  0  0  0  0  0  0  0  0
    0.7740   -0.5766    0.4505 C   0  0  0  0  0  0  0  0  0  0  0  0
    0.7954   -0.6842    1.6670 O   0  0  0  0  0  0  0  0  0  0  0  0
   -0.0350   -1.5082   -0.2860 O   0  0  0  0  0  0  0  0  0  0  0  0
   -1.2990   -2.2500    0.0000 C   0  0  1  0  0  0  0  0  0  0  0  0
   -2.0490   -0.9510   -0.0000 C   0  0  0  0  0  0  0  0  0  0  0  0
   -3.4888   -0.6400    0.0106 O   0  0  0  0  0  0  0  0  0  0  0  0
   -3.9942    0.7269    0.0351 C   0  0  0  0  0  0  0  0  0  0  0  0
   -3.1560    1.6138    0.1046 O   0  0  0  0  0  0  0  0  0  0  0  0
   -5.5496    1.2855   -0.0258 C   0  0  0  0  0  0  0  0  0  0  0  0
   -5.7990    2.9462    0.0000 C   0  0  0  0  0  0  0  0  0  0  0  0
   -6.5490    4.2452    0.0000 C   0  0  0  0  0  0  0  0  0  0  0  0
   -7.2990    5.5442    0.0000 C   0  0  0  0  0  0  0  0  0  0  0  0
   -8.0490    6.8433    0.0000 C   0  0  0  0  0  0  0  0  0  0  0  0
   -8.7990    8.1423    0.0000 C   0  0  0  0  0  0  0  0  0  0  0  0
   -9.5490    9.4413    0.0000 C   0  0  0  0  0  0  0  0  0  0  0  0
  -10.2990   10.7404    0.0000 C   0  0  0  0  0  0  0  0  0  0  0  0
  -11.0490   12.0394   -0.0000 C   0  0  0  0  0  0  0  0  0  0  0  0
   -0.5490   -3.5490    0.0000 C   0  0  0  0  0  0  0  0  0  0  0  0
    0.8738   -3.9272   -0.1600 O   0  0  0  0  0  0  0  0  0  0  0  0
    1.4188   -5.2096    0.2509 C   0  0  0  0  0  0  0  0  0  0  0  0
    0.6680   -5.9231    0.8990 O   0  0  0  0  0  0  0  0  0  0  0  0
    2.9679   -5.7955    0.1610 C   0  0  0  0  0  0  0  0  0  0  0  0
    3.2010   -7.4462    0.0000 C   0  0  0  0  0  0  0  0  0  0  0  0
    3.9510   -8.7452    0.0000 C   0  0  0  0  0  0  0  0  0  0  0  0
    4.7010  -10.0442    0.0000 C   0  0  0  0  0  0  0  0  0  0  0  0
    5.4510  -11.3433    0.0000 C   0  0  0  0  0  0  0  0  0  0  0  0
    6.2010  -12.6423    0.0000 C   0  0  0  0  0  0  0  0  0  0  0  0
    6.9510  -13.9413    0.0000 C   0  0  0  0  0  0  0  0  0  0  0  0
    7.2777  -15.5840   -0.1296 C   0  0  0  0  0  0  0  0  0  0  0  0
    8.8450  -16.1997    0.1146 C   0  0  0  0  0  0  0  0  0  0  0  0
    9.2010  -17.8385    0.0000 C   0  0  0  0  0  0  0  0  0  0  0  0
    9.9510  -19.1375    0.0000 C   0  0  0  0  0  2  0  0  0  0  0  0
   10.7010  -20.4365    0.0000 C   0  0  0  0  0  0  0  0  0  0  0  0
   11.4510  -21.7356    0.0000 C   0  0  0  0  0  0  0  0  0  0  0  0
   12.2010  -23.0346    0.0000 C   0  0  0  0  0  2  0  0  0  0  0  0
   12.9510  -24.3336    0.0000 C   0  0  0  0  0  0  0  0  0  0  0  0
   13.7010  -25.6327    0.0000 C   0  0  0  0  0  0  0  0  0  0  0  0
   14.4510  -26.9317    0.0000 C   0  0  0  0  0  0  0  0  0  0  0  0
   12.4019  -26.3827    0.0000 C   0  0  0  0  0  0  0  0  0  0  0  0
   15.7946    8.8573    1.0837 H   0  0  0  0  0  0  0  0  0  0  0  0
   15.1907   10.0205   -0.2237 H   0  0  0  0  0  0  0  0  0  0  0  0
   16.5152    9.5350    0.0000 H   0  0  0  0  0  0  0  0  0  0  0  0
   13.9709    8.4388   -1.0504 H   0  0  0  0  0  0  0  0  0  0  0  0
   13.6434    8.9056    0.6357 H   0  0  0  0  0  0  0  0  0  0  0  0
   13.8398    6.0322   -0.4352 H   0  0  0  0  0  0  0  0  0  0  0  0
   13.5860    6.4654    1.2814 H   0  0  0  0  0  0  0  0  0  0  0  0
   11.4269    7.6202    0.6497 H   0  0  0  0  0  0  0  0  0  0  0  0
   11.6594    7.1993   -1.0232 H   0  0  0  0  0  0  0  0  0  0  0  0
   10.9971    5.2538   -0.6097 H   0  0  0  0  0  0  0  0  0  0  0  0
   10.5080    5.8194    1.1021 H   0  0  0  0  0  0  0  0  0  0  0  0
    9.0587    5.3540   -1.1287 H   0  0  0  0  0  0  0  0  0  0  0  0
    9.5685    4.2362    0.2223 H   0  0  0  0  0  0  0  0  0  0  0  0
    7.8189    4.4151    1.1276 H   0  0  0  0  0  0  0  0  0  0  0  0
    7.3210    5.5103   -0.2485 H   0  0  0  0  0  0  0  0  0  0  0  0
    6.4285    3.8639   -1.1151 H   0  0  0  0  0  0  0  0  0  0  0  0
    5.8696    4.5345    0.5383 H   0  0  0  0  0  0  0  0  0  0  0  0
    5.5617    2.0839   -0.5274 H   0  0  0  0  0  0  0  0  0  0  0  0
    5.1889    2.6699    1.0706 H   0  0  0  0  0  0  0  0  0  0  0  0
    3.4478    2.8316   -1.3927 H   0  0  0  0  0  0  0  0  0  0  0  0
    3.0047    3.4862    0.2182 H   0  0  0  0  0  0  0  0  0  0  0  0
    3.1606    1.1477    1.2393 H   0  0  0  0  0  0  0  0  0  0  0  0
    3.6786    0.4455   -0.3217 H   0  0  0  0  0  0  0  0  0  0  0  0
    0.8634    1.5893    0.2275 H   0  0  0  0  0  0  0  0  0  0  0  0
    1.3269    0.7452   -1.2719 H   0  0  0  0  0  0  0  0  0  0  0  0
   -1.7645   -2.4775   -0.9885 H   0  0  0  0  0  0  0  0  0  0  0  0
   -1.7237   -0.3237   -0.8810 H   0  0  0  0  0  0  0  0  0  0  0  0
   -1.6986   -0.4315    0.9215 H   0  0  0  0  0  0  0  0  0  0  0  0
   -6.0061    0.8964   -0.9601 H   0  0  0  0  0  0  0  0  0  0  0  0
   -6.1000    0.8459    0.8317 H   0  0  0  0  0  0  0  0  0  0  0  0
   -5.1789    3.1339    0.9112 H   0  0  0  0  0  0  0  0  0  0  0  0
   -5.0898    3.1735   -0.8380 H   0  0  0  0  0  0  0  0  0  0  0  0
   -7.0291    3.8032   -0.9346 H   0  0  0  0  0  0  0  0  0  0  0  0
   -7.1004    3.9142    0.9209 H   0  0  0  0  0  0  0  0  0  0  0  0
   -6.8094    5.8025   -0.9899 H   0  0  0  0  0  0  0  0  0  0  0  0
   -8.3105    5.0733   -0.2461 H   0  0  0  0  0  0  0  0  0  0  0  0
   -7.0307    7.3055    0.2437 H   0  0  0  0  0  0  0  0  0  0  0  0
   -8.5369    6.5877    0.9896 H   0  0  0  0  0  0  0  0  0  0  0  0
   -8.2774    8.5968    0.9117 H   0  0  0  0  0  0  0  0  0  0  0  0
   -8.2405    8.4578   -0.9270 H   0  0  0  0  0  0  0  0  0  0  0  0
  -10.1567    9.0890   -0.8870 H   0  0  0  0  0  0  0  0  0  0  0  0
  -10.2041    9.0773    0.8511 H   0  0  0  0  0  0  0  0  0  0  0  0
   -9.7691   11.0546    0.9411 H   0  0  0  0  0  0  0  0  0  0  0  0
   -9.6732   11.0410   -0.8947 H   0  0  0  0  0  0  0  0  0  0  0  0
  -10.2144   12.7928   -0.0823 H   0  0  0  0  0  0  0  0  0  0  0  0
  -11.5954   11.8756   -0.9589 H   0  0  0  0  0  0  0  0  0  0  0  0
  -11.5840   12.9660    0.0000 H   0  0  0  0  0  0  0  0  0  0  0  0
   -1.1427   -4.3428   -0.5211 H   0  0  0  0  0  0  0  0  0  0  0  0
   -0.7513   -3.8153    1.0599 H   0  0  0  0  0  0  0  0  0  0  0  0
    3.4138   -5.5544    1.1495 H   0  0  0  0  0  0  0  0  0  0  0  0
    3.5574   -5.2260   -0.5881 H   0  0  0  0  0  0  0  0  0  0  0  0
    2.7612   -7.4975   -1.0258 H   0  0  0  0  0  0  0  0  0  0  0  0
    2.3658   -7.6813    0.7179 H   0  0  0  0  0  0  0  0  0  0  0  0
    4.1102   -8.6514    1.1110 H   0  0  0  0  0  0  0  0  0  0  0  0
    3.0188   -9.3623   -0.1768 H   0  0  0  0  0  0  0  0  0  0  0  0
    5.6719   -9.4843    0.1493 H   0  0  0  0  0  0  0  0  0  0  0  0
    4.6786  -10.0484   -1.1323 H   0  0  0  0  0  0  0  0  0  0  0  0
    4.4260  -11.8065   -0.1871 H   0  0  0  0  0  0  0  0  0  0  0  0
    5.6110  -11.2522    1.1125 H   0  0  0  0  0  0  0  0  0  0  0  0
    5.4675  -13.2208    0.6481 H   0  0  0  0  0  0  0  0  0  0  0  0
    5.9695  -12.7811   -1.0911 H   0  0  0  0  0  0  0  0  0  0  0  0
    7.4119  -13.8352    1.0145 H   0  0  0  0  0  0  0  0  0  0  0  0
    7.7847  -13.6362   -0.6812 H   0  0  0  0  0  0  0  0  0  0  0  0
    6.9663  -15.8953   -1.1488 H   0  0  0  0  0  0  0  0  0  0  0  0
    6.6111  -16.1025    0.5911 H   0  0  0  0  0  0  0  0  0  0  0  0
    9.5049  -15.6806   -0.6120 H   0  0  0  0  0  0  0  0  0  0  0  0
    9.1586  -15.8775    1.1296 H   0  0  0  0  0  0  0  0  0  0  0  0
    8.4244  -18.1738    0.7187 H   0  0  0  0  0  0  0  0  0  0  0  0
    8.7601  -17.9803   -1.0088 H   0  0  0  0  0  0  0  0  0  0  0  0
   11.2565  -20.0675   -0.8961 H   0  0  0  0  0  0  0  0  0  0  0  0
   11.2568  -20.0674    0.8958 H   0  0  0  0  0  0  0  0  0  0  0  0
   10.8952  -22.1049   -0.8958 H   0  0  0  0  0  0  0  0  0  0  0  0
   10.8956  -22.1047    0.8961 H   0  0  0  0  0  0  0  0  0  0  0  0
   13.8679  -23.7038   -0.1606 H   0  0  0  0  0  0  0  0  0  0  0  0
   12.8933  -24.3013    1.1180 H   0  0  0  0  0  0  0  0  0  0  0  0
   13.9829  -25.4341   -1.0801 H   0  0  0  0  0  0  0  0  0  0  0  0
   14.2992  -27.3620   -1.0386 H   0  0  0  0  0  0  0  0  0  0  0  0
   15.4636  -26.4750    0.0904 H   0  0  0  0  0  0  0  0  0  0  0  0
   14.9860  -27.8583    0.0000 H   0  0  0  0  0  0  0  0  0  0  0  0
   11.8689  -26.0840   -0.9523 H   0  0  0  0  0  0  0  0  0  0  0  0
   12.0608  -26.2771    1.0650 H   0  0  0  0  0  0  0  0  0  0  0  0
   11.4752  -26.9177    0.0000 H   0  0  0  0  0  0  0  0  0  0  0  0
  1  2  1  0  0  0  0
  1 52  1  0  0  0  0
  1 53  1  0  0  0  0
  1 54  1  0  0  0  0
  2  3  1  0  0  0  0
  2 55  1  0  0  0  0
  2 56  1  0  0  0  0
  3  4  1  0  0  0  0
  3 57  1  0  0  0  0
  3 58  1  0  0  0  0
  4  5  1  0  0  0  0
  4 59  1  0  0  0  0
  4 60  1  0  0  0  0
  5  6  1  0  0  0  0
  5 61  1  0  0  0  0
  5 62  1  0  0  0  0
  6  7  1  0  0  0  0
  6 63  1  0  0  0  0
  6 64  1  0  0  0  0
  7  8  1  0  0  0  0
  7 65  1  0  0  0  0
  7 66  1  0  0  0  0
  8  9  1  0  0  0  0
  8 67  1  0  0  0  0
  8 68  1  0  0  0  0
  9 10  1  0  0  0  0
  9 69  1  0  0  0  0
  9 70  1  0  0  0  0
 10 11  1  0  0  0  0
 10 71  1  0  0  0  0
 10 72  1  0  0  0  0
 11 12  1  0  0  0  0
 11 73  1  0  0  0  0
 11 74  1  0  0  0  0
 12 13  1  0  0  0  0
 12 75  1  0  0  0  0
 12 76  1  0  0  0  0
 13 14  2  0  0  0  0
 13 15  1  0  0  0  0
 15 16  1  0  0  0  0
 16 17  1  0  0  0  0
 16 30  1  0  0  0  0
 16 77  1  1  0  0  0
 17 18  1  0  0  0  0
 17 78  1  0  0  0  0
 17 79  1  0  0  0  0
 18 19  1  0  0  0  0
 19 20  2  0  0  0  0
 19 21  1  0  0  0  0
 21 22  1  0  0  0  0
 21 80  1  0  0  0  0
 21 81  1  0  0  0  0
 22 23  1  0  0  0  0
 22 82  1  0  0  0  0
 22 83  1  0  0  0  0
 23 24  1  0  0  0  0
 23 84  1  0  0  0  0
 23 85  1  0  0  0  0
 24 25  1  0  0  0  0
 24 86  1  0  0  0  0
 24 87  1  0  0  0  0
 25 26  1  0  0  0  0
 25 88  1  0  0  0  0
 25 89  1  0  0  0  0
 26 27  1  0  0  0  0
 26 90  1  0  0  0  0
 26 91  1  0  0  0  0
 27 28  1  0  0  0  0
 27 92  1  0  0  0  0
 27 93  1  0  0  0  0
 28 29  1  0  0  0  0
 28 94  1  0  0  0  0
 28 95  1  0  0  0  0
 29 96  1  0  0  0  0
 29 97  1  0  0  0  0
 29 98  1  0  0  0  0
 30 31  1  0  0  0  0
 30 99  1  0  0  0  0
 30100  1  0  0  0  0
 31 32  1  0  0  0  0
 32 33  2  0  0  0  0
 32 34  1  0  0  0  0
 34 35  1  0  0  0  0
 34101  1  0  0  0  0
 34102  1  0  0  0  0
 35 36  1  0  0  0  0
 35103  1  0  0  0  0
 35104  1  0  0  0  0
 36 37  1  0  0  0  0
 36105  1  0  0  0  0
 36106  1  0  0  0  0
 37 38  1  0  0  0  0
 37107  1  0  0  0  0
 37108  1  0  0  0  0
 38 39  1  0  0  0  0
 38109  1  0  0  0  0
 38110  1  0  0  0  0
 39 40  1  0  0  0  0
 39111  1  0  0  0  0
 39112  1  0  0  0  0
 40 41  1  0  0  0  0
 40113  1  0  0  0  0
 40114  1  0  0  0  0
 41 42  1  0  0  0  0
 41115  1  0  0  0  0
 41116  1  0  0  0  0
 42 43  1  0  0  0  0
 42117  1  0  0  0  0
 42118  1  0  0  0  0
 43 44  1  0  0  0  0
 43119  1  0  0  0  0
 43120  1  0  0  0  0
 44 45  1  0  0  0  0
 45 46  1  0  0  0  0
 45121  1  0  0  0  0
 45122  1  0  0  0  0
 46 47  1  0  0  0  0
 46123  1  0  0  0  0
 46124  1  0  0  0  0
 47 48  1  0  0  0  0
 48 49  1  0  0  0  0
 48125  1  0  0  0  0
 48126  1  0  0  0  0
 49 50  1  0  0  0  0
 49 51  1  0  0  0  0
 49127  1  0  0  0  0
 50128  1  0  0  0  0
 50129  1  0  0  0  0
 50130  1  0  0  0  0
 51131  1  0  0  0  0
 51132  1  0  0  0  0
 51133  1  0  0  0  0
M  END
>  <IDENTIFIER>
CNP0571276.1

>  <Energy>
12684.1

$$$$
