
 OpenBabel09072501393D

 70 72  0  0  0  0  0  0  0  0999 V2000
   -1.9341    3.2769   -0.1736 C   0  0  0  0  0  0  0  0  0  0  0  0
   -1.2948    1.9401    0.2399 C   0  0  2  0  0  0  0  0  0  0  0  0
    0.0941    2.0026    0.0344 O   0  0  0  0  0  0  0  0  0  0  0  0
   -1.9274    0.7203   -0.5132 C   0  0  2  0  0  0  0  0  0  0  0  0
   -3.3871    0.7144   -0.3680 N   0  0  0  0  0  0  0  0  0  0  0  0
   -4.0660    0.6572    0.8210 C   0  0  0  0  0  0  0  0  0  0  0  0
   -3.4583    0.7013    1.8796 O   0  0  0  0  0  0  0  0  0  0  0  0
   -5.5914    0.6249    0.8762 C   0  0  1  0  0  0  0  0  0  0  0  0
   -6.3312    0.3515   -0.4331 C   0  0  0  0  0  0  0  0  0  0  0  0
   -7.7427    0.2736    0.0948 C   0  0  0  0  0  0  0  0  0  0  0  0
   -7.5568   -0.5908    1.3359 C   0  0  0  0  0  0  0  0  0  0  0  0
   -6.1887   -0.3228    1.8542 N   0  0  0  0  0  0  0  0  0  0  0  0
   -5.4559   -1.5980    2.0064 C   0  0  0  0  0  0  0  0  0  0  0  0
   -1.3247   -0.6647   -0.0602 C   0  0  2  0  0  0  0  0  0  0  0  0
    0.0960   -0.6544   -0.1140 O   0  0  0  0  0  0  0  0  0  0  0  0
    0.6763   -0.7809   -1.4211 C   0  0  1  0  0  0  0  0  0  0  0  0
    2.1111   -1.9138   -1.2523 S   0  0  0  0  0  0  0  0  0  0  0  0
    3.2211   -0.8446   -0.2750 C   0  0  0  0  0  0  0  0  0  0  0  0
    4.0331    0.0880   -1.1816 C   0  0  0  0  0  0  0  0  0  0  0  0
    5.0708    0.6909   -0.4868 O   0  0  0  0  0  0  0  0  0  0  0  0
    6.1782    0.0261   -0.0454 C   0  0  0  0  0  0  0  0  0  0  0  0
    6.2962   -1.1621   -0.2995 O   0  0  0  0  0  0  0  0  0  0  0  0
    7.2500    0.7625    0.6998 C   0  0  0  0  0  0  0  0  0  0  0  0
    7.0524    2.1440    0.9105 C   0  0  0  0  0  0  0  0  0  0  0  0
    7.9970    2.9184    1.5829 C   0  0  0  0  0  0  0  0  0  0  0  0
    9.1638    2.3368    2.0636 C   0  0  0  0  0  0  0  0  0  0  0  0
    9.3904    0.9774    1.8760 C   0  0  0  0  0  0  0  0  0  0  0  0
    8.4589    0.1675    1.2017 C   0  0  0  0  0  0  0  0  0  0  0  0
    8.7829   -1.2130    1.0632 N   0  0  0  0  0  0  0  0  0  0  0  0
   -0.2715   -1.3494   -2.5289 C   0  0  1  0  0  0  0  0  0  0  0  0
    0.4522   -1.7139   -3.6829 O   0  0  0  0  0  0  0  0  0  0  0  0
   -1.0562   -2.5104   -1.9059 C   0  0  2  0  0  0  0  0  0  0  0  0
   -1.8281   -3.2431   -2.8291 O   0  0  0  0  0  0  0  0  0  0  0  0
   -1.9083   -1.9747   -0.7244 C   0  0  2  0  0  0  0  0  0  0  0  0
   -3.2660   -1.8379   -1.0609 O   0  0  0  0  0  0  0  0  0  0  0  0
   -1.4615    4.1082    0.3922 H   0  0  0  0  0  0  0  0  0  0  0  0
   -3.0209    3.2839    0.0503 H   0  0  0  0  0  0  0  0  0  0  0  0
   -1.7912    3.4594   -1.2600 H   0  0  0  0  0  0  0  0  0  0  0  0
   -1.4491    1.8316    1.3311 H   0  0  0  0  0  0  0  0  0  0  0  0
    0.2485    2.2341   -0.9185 H   0  0  0  0  0  0  0  0  0  0  0  0
   -1.7064    0.8818   -1.5813 H   0  0  0  0  0  0  0  0  0  0  0  0
   -3.9264    0.7703   -1.2432 H   0  0  0  0  0  0  0  0  0  0  0  0
   -5.8799    1.6429    1.2275 H   0  0  0  0  0  0  0  0  0  0  0  0
   -6.0269   -0.6441   -0.8337 H   0  0  0  0  0  0  0  0  0  0  0  0
   -6.2038    1.1251   -1.2186 H   0  0  0  0  0  0  0  0  0  0  0  0
   -8.5051   -0.1106   -0.6165 H   0  0  0  0  0  0  0  0  0  0  0  0
   -8.0401    1.3002    0.4088 H   0  0  0  0  0  0  0  0  0  0  0  0
   -7.6654   -1.6533    1.0150 H   0  0  0  0  0  0  0  0  0  0  0  0
   -8.3404   -0.3851    2.0966 H   0  0  0  0  0  0  0  0  0  0  0  0
   -6.0077   -2.2630    2.7064 H   0  0  0  0  0  0  0  0  0  0  0  0
   -4.4590   -1.4381    2.4595 H   0  0  0  0  0  0  0  0  0  0  0  0
   -5.3376   -2.1181    1.0306 H   0  0  0  0  0  0  0  0  0  0  0  0
   -1.6060   -0.7429    1.0105 H   0  0  0  0  0  0  0  0  0  0  0  0
    1.0577    0.1941   -1.7857 H   0  0  0  0  0  0  0  0  0  0  0  0
    3.8914   -1.5473    0.2590 H   0  0  0  0  0  0  0  0  0  0  0  0
    2.6766   -0.2821    0.5126 H   0  0  0  0  0  0  0  0  0  0  0  0
    3.3571    0.8696   -1.5863 H   0  0  0  0  0  0  0  0  0  0  0  0
    4.4587   -0.4745   -2.0417 H   0  0  0  0  0  0  0  0  0  0  0  0
    6.1588    2.6390    0.5511 H   0  0  0  0  0  0  0  0  0  0  0  0
    7.8227    3.9762    1.7314 H   0  0  0  0  0  0  0  0  0  0  0  0
    9.8963    2.9397    2.5836 H   0  0  0  0  0  0  0  0  0  0  0  0
   10.3087    0.5459    2.2595 H   0  0  0  0  0  0  0  0  0  0  0  0
    9.6712   -1.5730    1.4467 H   0  0  0  0  0  0  0  0  0  0  0  0
    8.1874   -1.9064    0.6089 H   0  0  0  0  0  0  0  0  0  0  0  0
   -1.0132   -0.6034   -2.8627 H   0  0  0  0  0  0  0  0  0  0  0  0
    0.7616   -2.6517   -3.5868 H   0  0  0  0  0  0  0  0  0  0  0  0
   -0.2918   -3.2101   -1.5028 H   0  0  0  0  0  0  0  0  0  0  0  0
   -2.2181   -2.6069   -3.4828 H   0  0  0  0  0  0  0  0  0  0  0  0
   -1.8631   -2.7996    0.0213 H   0  0  0  0  0  0  0  0  0  0  0  0
   -3.3160   -1.3415   -1.9181 H   0  0  0  0  0  0  0  0  0  0  0  0
  1 36  1  0  0  0  0
  1 37  1  0  0  0  0
  1 38  1  0  0  0  0
  2  1  1  0  0  0  0
  2  3  1  0  0  0  0
  2  4  1  0  0  0  0
  2 39  1  1  0  0  0
  3 40  1  0  0  0  0
  4  5  1  0  0  0  0
  4 14  1  0  0  0  0
  4 41  1  6  0  0  0
  5  6  1  0  0  0  0
  5 42  1  0  0  0  0
  6  7  2  0  0  0  0
  8  6  1  0  0  0  0
  8  9  1  0  0  0  0
  8 43  1  1  0  0  0
  9 10  1  0  0  0  0
  9 44  1  0  0  0  0
  9 45  1  0  0  0  0
 10 11  1  0  0  0  0
 10 46  1  0  0  0  0
 10 47  1  0  0  0  0
 11 12  1  0  0  0  0
 11 48  1  0  0  0  0
 11 49  1  0  0  0  0
 12 13  1  0  0  0  0
 12  8  1  0  0  0  0
 13 50  1  0  0  0  0
 13 51  1  0  0  0  0
 13 52  1  0  0  0  0
 14 15  1  0  0  0  0
 14 53  1  1  0  0  0
 15 16  1  0  0  0  0
 16 17  1  0  0  0  0
 16 30  1  0  0  0  0
 16 54  1  6  0  0  0
 17 18  1  0  0  0  0
 18 19  1  0  0  0  0
 18 55  1  0  0  0  0
 18 56  1  0  0  0  0
 19 20  1  0  0  0  0
 19 57  1  0  0  0  0
 19 58  1  0  0  0  0
 20 21  1  0  0  0  0
 21 22  2  0  0  0  0
 21 23  1  0  0  0  0
 23 24  2  0  0  0  0
 24 25  1  0  0  0  0
 24 59  1  0  0  0  0
 25 26  2  0  0  0  0
 25 60  1  0  0  0  0
 26 27  1  0  0  0  0
 26 61  1  0  0  0  0
 27 28  2  0  0  0  0
 27 62  1  0  0  0  0
 28 29  1  0  0  0  0
 28 23  1  0  0  0  0
 29 63  1  0  0  0  0
 29 64  1  0  0  0  0
 30 31  1  0  0  0  0
 30 32  1  0  0  0  0
 30 65  1  6  0  0  0
 31 66  1  0  0  0  0
 32 33  1  0  0  0  0
 32 34  1  0  0  0  0
 32 67  1  1  0  0  0
 33 68  1  0  0  0  0
 34 35  1  0  0  0  0
 34 14  1  0  0  0  0
 34 69  1  1  0  0  0
 35 70  1  0  0  0  0
M  END
>  <IDENTIFIER>
CNP0137308.0

>  <Energy>
795.981

$$$$
