
 OpenBabel09092520363D

 19 20  0  0  0  0  0  0  0  0999 V2000
    4.1830    0.5888    0.5981 C   0  0  0  0  0  0  0  0  0  0  0  0
    3.6903   -0.2822   -0.9197 S   0  0  0  0  0  0  0  0  0  0  0  0
    2.0119   -0.5608   -0.3637 C   0  0  0  0  0  0  0  0  0  0  0  0
    0.9920    0.2959   -0.6125 N   0  0  0  0  0  0  0  0  0  0  0  0
   -0.1617   -0.1503   -0.1220 N   0  0  0  0  0  0  0  0  0  0  0  0
   -1.3642    0.4967   -0.2233 C   0  0  0  0  0  0  0  0  0  0  0  0
   -1.4421    1.5724   -0.7936 O   0  0  0  0  0  0  0  0  0  0  0  0
   -2.4987   -0.1197    0.3437 C   0  0  0  0  0  0  0  0  0  0  0  0
   -3.8665    0.4945    0.2842 C   0  0  0  0  0  0  0  0  0  0  0  0
   -2.3435   -1.3257    0.9680 N   0  0  0  0  0  0  0  0  0  0  0  0
   -1.1542   -1.9297    1.0516 N   0  0  0  0  0  0  0  0  0  0  0  0
   -0.0678   -1.3378    0.5044 C   0  0  0  0  0  0  0  0  0  0  0  0
    1.5026   -1.9354    0.4926 S   0  0  0  0  0  0  0  0  0  0  0  0
    5.2454    0.8920    0.4955 H   0  0  0  0  0  0  0  0  0  0  0  0
    4.1044   -0.0864    1.4756 H   0  0  0  0  0  0  0  0  0  0  0  0
    3.5776    1.5096    0.7307 H   0  0  0  0  0  0  0  0  0  0  0  0
   -3.8655    1.4702   -0.2451 H   0  0  0  0  0  0  0  0  0  0  0  0
   -4.2452    0.6547    1.3152 H   0  0  0  0  0  0  0  0  0  0  0  0
   -4.5551   -0.1928   -0.2507 H   0  0  0  0  0  0  0  0  0  0  0  0
  1  2  1  0  0  0  0
  1 14  1  0  0  0  0
  1 15  1  0  0  0  0
  1 16  1  0  0  0  0
  2  3  1  0  0  0  0
  3  4  2  0  0  0  0
  4  5  1  0  0  0  0
  5  6  1  0  0  0  0
  6  7  2  0  0  0  0
  6  8  1  0  0  0  0
  8  9  1  0  0  0  0
  8 10  2  0  0  0  0
  9 17  1  0  0  0  0
  9 18  1  0  0  0  0
  9 19  1  0  0  0  0
 10 11  1  0  0  0  0
 11 12  2  0  0  0  0
 12 13  1  0  0  0  0
 12  5  1  0  0  0  0
 13  3  1  0  0  0  0
M  END
>  <IDENTIFIER>
CNP0469526.0

>  <Energy>
251.864

$$$$
