
 OpenBabel09092519213D

 81 85  0  0  0  0  0  0  0  0999 V2000
   -4.4034   -2.3805    2.5227 C   0  0  0  0  0  0  0  0  0  0  0  0
   -4.4446   -2.0625    1.2163 C   0  0  0  0  0  0  0  0  0  0  0  0
   -4.4757   -3.1630    0.1821 C   0  0  0  0  0  0  0  0  0  0  0  0
   -4.4647   -0.6004    0.7950 C   0  0  2  0  0  0  0  0  0  0  0  0
   -5.7757   -0.1818    0.0672 C   0  0  0  0  0  0  0  0  0  0  0  0
   -5.3352    0.7510   -1.0826 C   0  0  0  0  0  0  0  0  0  0  0  0
   -3.9444    1.2304   -0.6623 C   0  0  2  0  0  0  0  0  0  0  0  0
   -4.1081    2.3578    0.4131 C   0  0  0  0  0  0  0  0  0  0  0  0
   -3.0845    1.7650   -1.8274 C   0  0  0  0  0  0  0  0  0  0  0  0
   -1.6159    1.9649   -1.3720 C   0  0  0  0  0  0  0  0  0  0  0  0
   -0.9426    0.6601   -0.7815 C   0  0  2  0  0  0  0  0  0  0  0  0
   -0.8473   -0.3423   -2.0014 C   0  0  0  0  0  0  0  0  0  0  0  0
   -1.8871    0.0657    0.3598 C   0  0  2  0  0  0  0  0  0  0  0  0
   -1.2940   -1.2429    0.9263 C   0  0  0  0  0  0  0  0  0  0  0  0
    0.1227   -1.0461    1.4840 C   0  0  0  0  0  0  0  0  0  0  0  0
    1.0945   -0.4456    0.4295 C   0  0  2  0  0  0  0  0  0  0  0  0
    2.6287   -0.5335    0.8607 C   0  0  1  0  0  0  0  0  0  0  0  0
    2.9059    0.1417    2.2393 C   0  0  0  0  0  0  0  0  0  0  0  0
    3.0235   -2.0688    0.9906 C   0  0  0  0  0  0  0  0  0  0  0  0
    4.4081   -2.4566    0.4045 C   0  0  0  0  0  0  0  0  0  0  0  0
    5.4379   -1.3694    0.6815 C   0  0  0  0  0  0  0  0  0  0  0  0
    5.0772   -0.0495   -0.0854 C   0  0  0  0  0  0  0  0  0  0  0  0
    5.7225    1.1428    0.6660 C   0  0  0  0  0  0  0  0  0  0  0  0
    5.7380   -0.0989   -1.4919 C   0  0  0  0  0  0  0  0  0  0  0  0
    3.5011    0.0800   -0.2901 C   0  0  2  0  0  0  0  0  0  0  0  0
    3.0343    1.4945   -0.7017 C   0  0  0  0  0  0  0  0  0  0  0  0
    1.5687    1.4707   -1.2008 C   0  0  2  0  0  0  0  0  0  0  0  0
    1.2138    2.7338   -1.7120 O   0  0  0  0  0  0  0  0  0  0  0  0
    0.5346    0.9417   -0.1345 C   0  0  1  0  0  0  0  0  0  0  0  0
    0.4262    2.0263    0.9994 C   0  0  0  0  0  0  0  0  0  0  0  0
   -3.3505   -0.1107   -0.1537 C   0  0  1  0  0  0  0  0  0  0  0  0
   -4.3910   -3.4153    2.8510 H   0  0  0  0  0  0  0  0  0  0  0  0
   -4.3835   -1.6115    3.2887 H   0  0  0  0  0  0  0  0  0  0  0  0
   -4.4613   -4.1704    0.6512 H   0  0  0  0  0  0  0  0  0  0  0  0
   -3.5884   -3.0870   -0.4783 H   0  0  0  0  0  0  0  0  0  0  0  0
   -5.3935   -3.0898   -0.4339 H   0  0  0  0  0  0  0  0  0  0  0  0
   -4.3825    0.0330    1.7049 H   0  0  0  0  0  0  0  0  0  0  0  0
   -6.4178    0.3470    0.8047 H   0  0  0  0  0  0  0  0  0  0  0  0
   -6.3681   -1.0136   -0.3691 H   0  0  0  0  0  0  0  0  0  0  0  0
   -6.0747    1.5283   -1.3710 H   0  0  0  0  0  0  0  0  0  0  0  0
   -5.1939    0.0997   -1.9769 H   0  0  0  0  0  0  0  0  0  0  0  0
   -4.5541    3.2572   -0.0633 H   0  0  0  0  0  0  0  0  0  0  0  0
   -3.1526    2.6626    0.8776 H   0  0  0  0  0  0  0  0  0  0  0  0
   -4.7898    2.0896    1.2421 H   0  0  0  0  0  0  0  0  0  0  0  0
   -3.5006    2.7227   -2.2095 H   0  0  0  0  0  0  0  0  0  0  0  0
   -3.1227    1.0626   -2.6818 H   0  0  0  0  0  0  0  0  0  0  0  0
   -1.6266    2.7794   -0.6354 H   0  0  0  0  0  0  0  0  0  0  0  0
   -1.0506    2.3378   -2.2480 H   0  0  0  0  0  0  0  0  0  0  0  0
   -1.8168   -0.5843   -2.4609 H   0  0  0  0  0  0  0  0  0  0  0  0
   -0.4344   -1.3364   -1.7726 H   0  0  0  0  0  0  0  0  0  0  0  0
   -0.2554    0.0844   -2.8329 H   0  0  0  0  0  0  0  0  0  0  0  0
   -1.9557    0.7769    1.2010 H   0  0  0  0  0  0  0  0  0  0  0  0
   -1.2782   -2.0284    0.1444 H   0  0  0  0  0  0  0  0  0  0  0  0
   -1.9180   -1.6190    1.7583 H   0  0  0  0  0  0  0  0  0  0  0  0
    0.4791   -2.0391    1.8281 H   0  0  0  0  0  0  0  0  0  0  0  0
    0.0700   -0.3960    2.3786 H   0  0  0  0  0  0  0  0  0  0  0  0
    1.0855   -1.1305   -0.4304 H   0  0  0  0  0  0  0  0  0  0  0  0
    2.2257   -0.2542    3.0194 H   0  0  0  0  0  0  0  0  0  0  0  0
    2.8467    1.2327    2.2392 H   0  0  0  0  0  0  0  0  0  0  0  0
    3.9092   -0.0821    2.6252 H   0  0  0  0  0  0  0  0  0  0  0  0
    2.3145   -2.7385    0.4571 H   0  0  0  0  0  0  0  0  0  0  0  0
    2.9593   -2.3710    2.0594 H   0  0  0  0  0  0  0  0  0  0  0  0
    4.3386   -2.5819   -0.6977 H   0  0  0  0  0  0  0  0  0  0  0  0
    4.7160   -3.4382    0.8240 H   0  0  0  0  0  0  0  0  0  0  0  0
    6.4660   -1.6994    0.4153 H   0  0  0  0  0  0  0  0  0  0  0  0
    5.4574   -1.2329    1.7791 H   0  0  0  0  0  0  0  0  0  0  0  0
    6.8199    0.9900    0.7578 H   0  0  0  0  0  0  0  0  0  0  0  0
    5.3238    1.2749    1.6864 H   0  0  0  0  0  0  0  0  0  0  0  0
    5.5669    2.0951    0.1172 H   0  0  0  0  0  0  0  0  0  0  0  0
    6.8402   -0.2137   -1.4075 H   0  0  0  0  0  0  0  0  0  0  0  0
    5.5517    0.8305   -2.0675 H   0  0  0  0  0  0  0  0  0  0  0  0
    5.3575   -0.9537   -2.0899 H   0  0  0  0  0  0  0  0  0  0  0  0
    3.2649   -0.5690   -1.1655 H   0  0  0  0  0  0  0  0  0  0  0  0
    3.6514    1.8591   -1.5477 H   0  0  0  0  0  0  0  0  0  0  0  0
    3.1752    2.2120    0.1309 H   0  0  0  0  0  0  0  0  0  0  0  0
    1.5984    0.7736   -2.0592 H   0  0  0  0  0  0  0  0  0  0  0  0
    1.5083    3.4303   -1.0685 H   0  0  0  0  0  0  0  0  0  0  0  0
    0.0117    2.9804    0.6338 H   0  0  0  0  0  0  0  0  0  0  0  0
    1.3876    2.3422    1.4020 H   0  0  0  0  0  0  0  0  0  0  0  0
   -0.1853    1.7232    1.8643 H   0  0  0  0  0  0  0  0  0  0  0  0
   -3.3336   -0.8339   -0.9952 H   0  0  0  0  0  0  0  0  0  0  0  0
  1  2  2  0  0  0  0
  1 32  1  0  0  0  0
  1 33  1  0  0  0  0
  2  3  1  0  0  0  0
  3 34  1  0  0  0  0
  3 35  1  0  0  0  0
  3 36  1  0  0  0  0
  4  2  1  0  0  0  0
  4  5  1  0  0  0  0
  4 37  1  1  0  0  0
  5  6  1  0  0  0  0
  5 38  1  0  0  0  0
  5 39  1  0  0  0  0
  6  7  1  0  0  0  0
  6 40  1  0  0  0  0
  6 41  1  0  0  0  0
  7  8  1  1  0  0  0
  7  9  1  0  0  0  0
  8 42  1  0  0  0  0
  8 43  1  0  0  0  0
  8 44  1  0  0  0  0
  9 10  1  0  0  0  0
  9 45  1  0  0  0  0
  9 46  1  0  0  0  0
 10 11  1  0  0  0  0
 10 47  1  0  0  0  0
 10 48  1  0  0  0  0
 11 12  1  6  0  0  0
 11 13  1  0  0  0  0
 12 49  1  0  0  0  0
 12 50  1  0  0  0  0
 12 51  1  0  0  0  0
 13 14  1  0  0  0  0
 13 31  1  0  0  0  0
 13 52  1  1  0  0  0
 14 15  1  0  0  0  0
 14 53  1  0  0  0  0
 14 54  1  0  0  0  0
 15 55  1  0  0  0  0
 15 56  1  0  0  0  0
 16 15  1  0  0  0  0
 16 17  1  0  0  0  0
 16 57  1  6  0  0  0
 17 18  1  1  0  0  0
 17 19  1  0  0  0  0
 18 58  1  0  0  0  0
 18 59  1  0  0  0  0
 18 60  1  0  0  0  0
 19 20  1  0  0  0  0
 19 61  1  0  0  0  0
 19 62  1  0  0  0  0
 20 21  1  0  0  0  0
 20 63  1  0  0  0  0
 20 64  1  0  0  0  0
 21 22  1  0  0  0  0
 21 65  1  0  0  0  0
 21 66  1  0  0  0  0
 22 23  1  0  0  0  0
 22 24  1  0  0  0  0
 22 25  1  0  0  0  0
 23 67  1  0  0  0  0
 23 68  1  0  0  0  0
 23 69  1  0  0  0  0
 24 70  1  0  0  0  0
 24 71  1  0  0  0  0
 24 72  1  0  0  0  0
 25 26  1  0  0  0  0
 25 17  1  0  0  0  0
 25 73  1  6  0  0  0
 26 27  1  0  0  0  0
 26 74  1  0  0  0  0
 26 75  1  0  0  0  0
 27 28  1  0  0  0  0
 27 29  1  0  0  0  0
 27 76  1  6  0  0  0
 28 77  1  0  0  0  0
 29 30  1  1  0  0  0
 29 11  1  0  0  0  0
 29 16  1  0  0  0  0
 30 78  1  0  0  0  0
 30 79  1  0  0  0  0
 30 80  1  0  0  0  0
 31  4  1  0  0  0  0
 31  7  1  0  0  0  0
 31 81  1  6  0  0  0
M  END
>  <IDENTIFIER>
CNP0172403.1

>  <Energy>
921.116

$$$$
