
 OpenBabel09042518003D

 53 55  0  0  0  0  0  0  0  0999 V2000
   -1.2136    2.5220   -2.0766 C   0  0  0  0  0  0  0  0  0  0  0  0
   -1.3656    2.0312   -0.6497 C   0  0  0  0  0  0  0  0  0  0  0  0
   -2.6285    1.7480   -0.2004 C   0  0  0  0  0  0  0  0  0  0  0  0
   -3.0690    1.3218    1.2026 C   0  0  1  0  0  0  0  0  0  0  0  0
   -3.9219    2.3016    1.7378 O   0  0  0  0  0  0  0  0  0  0  0  0
   -3.7923   -0.0672    1.2115 C   0  0  0  0  0  0  0  0  0  0  0  0
   -2.9967   -1.2759    0.6488 C   0  0  1  0  0  0  0  0  0  0  0  0
   -3.6554   -2.6546    0.6544 C   0  0  0  0  0  0  0  0  0  0  0  0
   -2.4656   -0.9464   -0.6032 O   0  0  0  0  0  0  0  0  0  0  0  0
   -1.5365   -1.1412    0.4533 C   0  0  2  0  0  0  0  0  0  0  0  0
   -0.5054   -2.1552    0.0080 C   0  0  0  0  0  0  0  0  0  0  0  0
    0.6106   -1.4283   -0.8055 C   0  0  2  0  0  0  0  0  0  0  0  0
    0.1055   -0.9323   -2.1755 C   0  0  0  0  0  0  0  0  0  0  0  0
    1.7037   -2.4053   -1.0956 C   0  0  0  0  0  0  0  0  0  0  0  0
    1.5579   -3.4543   -1.7061 O   0  0  0  0  0  0  0  0  0  0  0  0
    2.9732   -1.9370   -0.6191 C   0  0  0  0  0  0  0  0  0  0  0  0
    2.8368   -0.7678   -0.0060 C   0  0  0  0  0  0  0  0  0  0  0  0
    4.0453   -0.1247    0.6771 C   0  0  0  0  0  0  0  0  0  0  0  0
    4.6196    1.0695   -0.1008 C   0  0  0  0  0  0  0  0  0  0  0  0
    3.7425    0.2245    2.1387 C   0  0  0  0  0  0  0  0  0  0  0  0
    1.3658   -0.3142    0.0476 C   0  0  1  0  0  0  0  0  0  0  0  0
    1.1599    1.2098   -0.2997 C   0  0  0  0  0  0  0  0  0  0  0  0
   -0.0941    2.0096    0.2009 C   0  0  0  0  0  0  0  0  0  0  0  0
   -2.1789    2.5411   -2.6266 H   0  0  0  0  0  0  0  0  0  0  0  0
   -0.5095    1.8970   -2.6558 H   0  0  0  0  0  0  0  0  0  0  0  0
   -0.8128    3.5570   -2.0633 H   0  0  0  0  0  0  0  0  0  0  0  0
   -3.4498    1.8435   -0.9060 H   0  0  0  0  0  0  0  0  0  0  0  0
   -2.2167    1.2615    1.8999 H   0  0  0  0  0  0  0  0  0  0  0  0
   -4.7330    2.3451    1.1648 H   0  0  0  0  0  0  0  0  0  0  0  0
   -4.7314    0.0131    0.6220 H   0  0  0  0  0  0  0  0  0  0  0  0
   -4.0737   -0.3011    2.2608 H   0  0  0  0  0  0  0  0  0  0  0  0
   -4.6375   -2.5972    0.1401 H   0  0  0  0  0  0  0  0  0  0  0  0
   -3.8192   -2.9765    1.7036 H   0  0  0  0  0  0  0  0  0  0  0  0
   -3.0409   -3.4216    0.1427 H   0  0  0  0  0  0  0  0  0  0  0  0
   -1.1236   -0.2447    0.8997 H   0  0  0  0  0  0  0  0  0  0  0  0
   -0.9552   -2.9750   -0.5923 H   0  0  0  0  0  0  0  0  0  0  0  0
   -0.0612   -2.6027    0.9238 H   0  0  0  0  0  0  0  0  0  0  0  0
   -0.3115   -1.7759   -2.7672 H   0  0  0  0  0  0  0  0  0  0  0  0
    0.9300   -0.4715   -2.7619 H   0  0  0  0  0  0  0  0  0  0  0  0
   -0.6968   -0.1932   -2.0580 H   0  0  0  0  0  0  0  0  0  0  0  0
    3.9058   -2.4760   -0.7322 H   0  0  0  0  0  0  0  0  0  0  0  0
    4.8713   -0.8722    0.6901 H   0  0  0  0  0  0  0  0  0  0  0  0
    3.9452    1.9383   -0.1654 H   0  0  0  0  0  0  0  0  0  0  0  0
    4.8800    0.7509   -1.1325 H   0  0  0  0  0  0  0  0  0  0  0  0
    5.5516    1.4182    0.3938 H   0  0  0  0  0  0  0  0  0  0  0  0
    2.9519    0.9982    2.2163 H   0  0  0  0  0  0  0  0  0  0  0  0
    4.6568    0.6111    2.6370 H   0  0  0  0  0  0  0  0  0  0  0  0
    3.4055   -0.6829    2.6842 H   0  0  0  0  0  0  0  0  0  0  0  0
    1.1312   -0.4330    1.1281 H   0  0  0  0  0  0  0  0  0  0  0  0
    1.4109    1.4365   -1.3559 H   0  0  0  0  0  0  0  0  0  0  0  0
    1.9306    1.7029    0.3089 H   0  0  0  0  0  0  0  0  0  0  0  0
    0.2170    3.0785    0.1978 H   0  0  0  0  0  0  0  0  0  0  0  0
   -0.2606    1.7722    1.2664 H   0  0  0  0  0  0  0  0  0  0  0  0
  1  2  1  0  0  0  0
  1 24  1  0  0  0  0
  1 25  1  0  0  0  0
  1 26  1  0  0  0  0
  2  3  2  0  0  0  0
  3  4  1  0  0  0  0
  3 27  1  0  0  0  0
  4  5  1  0  0  0  0
  4  6  1  0  0  0  0
  4 28  1  1  0  0  0
  5 29  1  0  0  0  0
  6  7  1  0  0  0  0
  6 30  1  0  0  0  0
  6 31  1  0  0  0  0
  7  8  1  1  0  0  0
  7  9  1  0  0  0  0
  8 32  1  0  0  0  0
  8 33  1  0  0  0  0
  8 34  1  0  0  0  0
  9 10  1  0  0  0  0
 10 11  1  0  0  0  0
 10  7  1  0  0  0  0
 10 35  1  1  0  0  0
 11 12  1  0  0  0  0
 11 36  1  0  0  0  0
 11 37  1  0  0  0  0
 12 13  1  6  0  0  0
 12 14  1  0  0  0  0
 13 38  1  0  0  0  0
 13 39  1  0  0  0  0
 13 40  1  0  0  0  0
 14 15  2  0  0  0  0
 14 16  1  0  0  0  0
 16 17  2  0  0  0  0
 16 41  1  0  0  0  0
 17 18  1  0  0  0  0
 17 21  1  0  0  0  0
 18 19  1  0  0  0  0
 18 20  1  0  0  0  0
 18 42  1  0  0  0  0
 19 43  1  0  0  0  0
 19 44  1  0  0  0  0
 19 45  1  0  0  0  0
 20 46  1  0  0  0  0
 20 47  1  0  0  0  0
 20 48  1  0  0  0  0
 21 22  1  0  0  0  0
 21 12  1  0  0  0  0
 21 49  1  1  0  0  0
 22 23  1  0  0  0  0
 22 50  1  0  0  0  0
 22 51  1  0  0  0  0
 23  2  1  0  0  0  0
 23 52  1  0  0  0  0
 23 53  1  0  0  0  0
M  END
>  <IDENTIFIER>
CNP0219662.5

>  <Energy>
2026.1

$$$$
