
 OpenBabel09072507013D

 96102  0  0  0  0  0  0  0  0999 V2000
   -8.0028    2.1274   -3.7519 C   0  0  0  0  0  0  0  0  0  0  0  0
   -7.5924    1.0286   -3.0975 C   0  0  0  0  0  0  0  0  0  0  0  0
   -7.9497   -0.3382   -3.6519 C   0  0  0  0  0  0  0  0  0  0  0  0
   -6.7694    1.1607   -1.8094 C   0  0  1  0  0  0  0  0  0  0  0  0
   -7.6949    0.6512   -0.6437 C   0  0  0  0  0  0  0  0  0  0  0  0
   -7.2682    0.8833    0.8207 C   0  0  0  0  0  0  0  0  0  0  0  0
   -6.4283   -0.2457    1.3157 C   0  0  0  0  0  0  0  0  0  0  0  0
   -5.1694   -0.1591    1.6448 C   0  0  0  0  0  0  0  0  0  0  0  0
   -4.6327   -1.5543    1.7964 C   0  0  1  0  0  0  0  0  0  0  0  0
   -3.5161   -1.7402    2.8157 C   0  0  0  0  0  0  0  0  0  0  0  0
   -2.2143   -0.8807    2.5280 C   0  0  2  0  0  0  0  0  0  0  0  0
   -1.0795   -1.5117    3.3739 C   0  0  0  0  0  0  0  0  0  0  0  0
   -2.4032    0.4502    2.9523 O   0  0  0  0  0  0  0  0  0  0  0  0
   -1.7781   -0.8577    0.9987 C   0  0  2  0  0  0  0  0  0  0  0  0
   -0.4790   -0.4005    0.8898 O   0  0  0  0  0  0  0  0  0  0  0  0
    0.5937   -1.1004    0.4446 C   0  0  0  0  0  0  0  0  0  0  0  0
    0.4679   -2.2166   -0.0386 O   0  0  0  0  0  0  0  0  0  0  0  0
    1.9207   -0.5301    0.6941 C   0  0  0  0  0  0  0  0  0  0  0  0
    3.1746   -1.1058    0.5068 C   0  0  0  0  0  0  0  0  0  0  0  0
    3.6558   -2.4335   -0.0667 C   0  0  0  0  0  0  0  0  0  0  0  0
    4.8280   -2.3173   -1.1475 C   0  0  1  0  0  0  0  0  0  0  0  0
    4.3793   -1.9171   -2.5570 C   0  0  0  0  0  0  0  0  0  0  0  0
    3.1294   -1.5107   -2.8449 C   0  0  0  0  0  0  0  0  0  0  0  0
    5.3614   -2.0001   -3.6985 C   0  0  0  0  0  0  0  0  0  0  0  0
    5.9254   -1.3415   -0.6103 C   0  0  0  0  0  0  0  0  0  0  0  0
    7.3780   -1.1956   -1.1044 C   0  0  0  0  0  0  0  0  0  0  0  0
    7.9874   -0.1226   -0.2030 C   0  0  0  0  0  0  0  0  0  0  0  0
    7.7965    1.1935   -0.2987 C   0  0  0  0  0  0  0  0  0  0  0  0
    8.3150    1.8852    0.9530 C   0  0  1  0  0  0  0  0  0  0  0  0
    7.1977    2.6706    1.7535 C   0  0  0  0  0  0  0  0  0  0  0  0
    5.8907    1.8740    2.0405 C   0  0  2  0  0  0  0  0  0  0  0  0
    6.0678    0.5746    2.8473 C   0  0  0  0  0  0  0  0  0  0  0  0
    5.4306    1.7208    0.7237 O   0  0  0  0  0  0  0  0  0  0  0  0
    4.4145    2.0562    1.5894 C   0  0  1  0  0  0  0  0  0  0  0  0
    3.5163    0.8638    1.3271 C   0  0  0  0  0  0  0  0  0  0  0  0
    2.1482    0.7576    1.1985 C   0  0  0  0  0  0  0  0  0  0  0  0
    4.0508   -0.2599    0.9420 O   0  0  0  0  0  0  0  0  0  0  0  0
    8.8467    0.8450    1.7018 O   0  0  0  0  0  0  0  0  0  0  0  0
    8.6806   -0.3246    1.0529 C   0  0  0  0  0  0  0  0  0  0  0  0
    8.9863   -1.4072    1.5260 O   0  0  0  0  0  0  0  0  0  0  0  0
   -2.6324    0.0682    0.1449 C   0  0  0  0  0  0  0  0  0  0  0  0
   -2.6066    1.4522    0.1686 C   0  0  0  0  0  0  0  0  0  0  0  0
   -3.5912    1.8804   -0.7086 C   0  0  0  0  0  0  0  0  0  0  0  0
   -3.8561    3.3190   -0.9890 C   0  0  0  0  0  0  0  0  0  0  0  0
   -3.3102    4.1637   -0.2959 O   0  0  0  0  0  0  0  0  0  0  0  0
   -4.6154    3.7382   -2.0203 O   0  0  0  0  0  0  0  0  0  0  0  0
   -4.2026    0.7128   -1.1871 C   0  0  0  0  0  0  0  0  0  0  0  0
   -5.3668    0.5196   -2.1264 C   0  0  0  0  0  0  0  0  0  0  0  0
   -3.5655   -0.3296   -0.6892 O   0  0  0  0  0  0  0  0  0  0  0  0
   -5.7495   -2.3545    1.9344 O   0  0  0  0  0  0  0  0  0  0  0  0
   -6.8069   -1.6330    1.5227 C   0  0  0  0  0  0  0  0  0  0  0  0
   -7.9303   -2.0924    1.3870 O   0  0  0  0  0  0  0  0  0  0  0  0
   -8.5851    2.0501   -4.6655 H   0  0  0  0  0  0  0  0  0  0  0  0
   -7.7667    3.1216   -3.3871 H   0  0  0  0  0  0  0  0  0  0  0  0
   -8.5509   -0.2671   -4.5831 H   0  0  0  0  0  0  0  0  0  0  0  0
   -8.5428   -0.9172   -2.9167 H   0  0  0  0  0  0  0  0  0  0  0  0
   -7.0318   -0.9087   -3.8995 H   0  0  0  0  0  0  0  0  0  0  0  0
   -6.6105    2.2353   -1.5992 H   0  0  0  0  0  0  0  0  0  0  0  0
   -8.0131   -0.4024   -0.7822 H   0  0  0  0  0  0  0  0  0  0  0  0
   -8.6149    1.2717   -0.7464 H   0  0  0  0  0  0  0  0  0  0  0  0
   -8.1636    0.8999    1.4786 H   0  0  0  0  0  0  0  0  0  0  0  0
   -6.7643    1.8713    0.9016 H   0  0  0  0  0  0  0  0  0  0  0  0
   -4.6186    0.7622    1.5940 H   0  0  0  0  0  0  0  0  0  0  0  0
   -4.1899   -1.8925    0.8459 H   0  0  0  0  0  0  0  0  0  0  0  0
   -3.2481   -2.8187    2.7446 H   0  0  0  0  0  0  0  0  0  0  0  0
   -3.8821   -1.5601    3.8498 H   0  0  0  0  0  0  0  0  0  0  0  0
   -1.3597   -1.5436    4.4488 H   0  0  0  0  0  0  0  0  0  0  0  0
   -0.1416   -0.9227    3.2935 H   0  0  0  0  0  0  0  0  0  0  0  0
   -0.8713   -2.5503    3.0358 H   0  0  0  0  0  0  0  0  0  0  0  0
   -2.6236    0.4398    3.9206 H   0  0  0  0  0  0  0  0  0  0  0  0
   -1.8581   -1.9028    0.6224 H   0  0  0  0  0  0  0  0  0  0  0  0
    2.8260   -3.0680   -0.4391 H   0  0  0  0  0  0  0  0  0  0  0  0
    4.0946   -2.9691    0.8025 H   0  0  0  0  0  0  0  0  0  0  0  0
    5.2461   -3.3450   -1.2212 H   0  0  0  0  0  0  0  0  0  0  0  0
    2.3528   -1.4279   -2.0976 H   0  0  0  0  0  0  0  0  0  0  0  0
    2.8574   -1.2472   -3.8634 H   0  0  0  0  0  0  0  0  0  0  0  0
    6.3359   -2.4104   -3.3694 H   0  0  0  0  0  0  0  0  0  0  0  0
    5.5179   -0.9929   -4.1403 H   0  0  0  0  0  0  0  0  0  0  0  0
    4.9695   -2.6832   -4.4818 H   0  0  0  0  0  0  0  0  0  0  0  0
    6.0446   -1.6143    0.4608 H   0  0  0  0  0  0  0  0  0  0  0  0
    5.5054   -0.3266   -0.7461 H   0  0  0  0  0  0  0  0  0  0  0  0
    7.4567   -0.8822   -2.1645 H   0  0  0  0  0  0  0  0  0  0  0  0
    7.8989   -2.1656   -0.9565 H   0  0  0  0  0  0  0  0  0  0  0  0
    7.2646    1.6809   -1.1057 H   0  0  0  0  0  0  0  0  0  0  0  0
    9.1300    2.5940    0.6946 H   0  0  0  0  0  0  0  0  0  0  0  0
    6.9265    3.5864    1.1815 H   0  0  0  0  0  0  0  0  0  0  0  0
    7.6333    3.0139    2.7158 H   0  0  0  0  0  0  0  0  0  0  0  0
    6.7915    0.7463    3.6706 H   0  0  0  0  0  0  0  0  0  0  0  0
    6.4171   -0.2586    2.2221 H   0  0  0  0  0  0  0  0  0  0  0  0
    5.1198    0.2609    3.3339 H   0  0  0  0  0  0  0  0  0  0  0  0
    4.0536    3.0585    1.2780 H   0  0  0  0  0  0  0  0  0  0  0  0
    1.4105    1.5211    1.4081 H   0  0  0  0  0  0  0  0  0  0  0  0
   -1.9425    2.0734    0.7563 H   0  0  0  0  0  0  0  0  0  0  0  0
   -4.9591    3.1491   -2.7030 H   0  0  0  0  0  0  0  0  0  0  0  0
   -5.5022   -0.5718   -2.2704 H   0  0  0  0  0  0  0  0  0  0  0  0
   -5.0144    0.9364   -3.0945 H   0  0  0  0  0  0  0  0  0  0  0  0
  1  2  2  0  0  0  0
  1 53  1  0  0  0  0
  1 54  1  0  0  0  0
  2  3  1  0  0  0  0
  3 55  1  0  0  0  0
  3 56  1  0  0  0  0
  3 57  1  0  0  0  0
  4  2  1  0  0  0  0
  4  5  1  0  0  0  0
  4 58  1  1  0  0  0
  5  6  1  0  0  0  0
  5 59  1  0  0  0  0
  5 60  1  0  0  0  0
  6  7  1  0  0  0  0
  6 61  1  0  0  0  0
  6 62  1  0  0  0  0
  7  8  2  0  0  0  0
  8  9  1  0  0  0  0
  8 63  1  0  0  0  0
  9 10  1  0  0  0  0
  9 50  1  0  0  0  0
  9 64  1  6  0  0  0
 10 11  1  0  0  0  0
 10 65  1  0  0  0  0
 10 66  1  0  0  0  0
 11 12  1  0  0  0  0
 11 13  1  1  0  0  0
 11 14  1  0  0  0  0
 12 67  1  0  0  0  0
 12 68  1  0  0  0  0
 12 69  1  0  0  0  0
 13 70  1  0  0  0  0
 14 15  1  0  0  0  0
 14 41  1  0  0  0  0
 14 71  1  6  0  0  0
 15 16  1  0  0  0  0
 16 17  2  0  0  0  0
 16 18  1  0  0  0  0
 18 19  2  0  0  0  0
 19 20  1  0  0  0  0
 20 72  1  0  0  0  0
 20 73  1  0  0  0  0
 21 20  1  0  0  0  0
 21 22  1  0  0  0  0
 21 25  1  0  0  0  0
 21 74  1  6  0  0  0
 22 23  2  0  0  0  0
 22 24  1  0  0  0  0
 23 75  1  0  0  0  0
 23 76  1  0  0  0  0
 24 77  1  0  0  0  0
 24 78  1  0  0  0  0
 24 79  1  0  0  0  0
 25 26  1  0  0  0  0
 25 80  1  0  0  0  0
 25 81  1  0  0  0  0
 26 27  1  0  0  0  0
 26 82  1  0  0  0  0
 26 83  1  0  0  0  0
 27 28  2  0  0  0  0
 28 29  1  0  0  0  0
 28 84  1  0  0  0  0
 29 30  1  0  0  0  0
 29 38  1  0  0  0  0
 29 85  1  6  0  0  0
 30 31  1  0  0  0  0
 30 86  1  0  0  0  0
 30 87  1  0  0  0  0
 31 32  1  1  0  0  0
 31 33  1  0  0  0  0
 32 88  1  0  0  0  0
 32 89  1  0  0  0  0
 32 90  1  0  0  0  0
 34 33  1  0  0  0  0
 34 35  1  0  0  0  0
 34 31  1  0  0  0  0
 34 91  1  6  0  0  0
 35 36  2  0  0  0  0
 35 37  1  0  0  0  0
 36 18  1  0  0  0  0
 36 92  1  0  0  0  0
 37 19  1  0  0  0  0
 38 39  1  0  0  0  0
 39 40  2  0  0  0  0
 39 27  1  0  0  0  0
 41 42  2  0  0  0  0
 42 43  1  0  0  0  0
 42 93  1  0  0  0  0
 43 44  1  0  0  0  0
 43 47  2  0  0  0  0
 44 45  2  0  0  0  0
 44 46  1  0  0  0  0
 46 94  1  0  0  0  0
 47 48  1  0  0  0  0
 47 49  1  0  0  0  0
 48  4  1  0  0  0  0
 48 95  1  0  0  0  0
 48 96  1  0  0  0  0
 49 41  1  0  0  0  0
 50 51  1  0  0  0  0
 51 52  2  0  0  0  0
 51  7  1  0  0  0  0
M  END
>  <IDENTIFIER>
CNP0193217.3

>  <Energy>
2885.8

$$$$
