
 OpenBabel09102506293D

 23 24  0  0  0  0  0  0  0  0999 V2000
   -3.2959    1.3095    0.0080 C   0  0  0  0  0  0  0  0  0  0  0  0
   -2.0965    0.4646    0.3216 C   0  0  0  0  0  0  0  0  0  0  0  0
   -2.1687   -0.3500    1.2302 O   0  0  0  0  0  0  0  0  0  0  0  0
   -0.9328    0.6630   -0.3651 N   0  0  0  0  0  0  0  0  0  0  0  0
    0.3102   -0.0212   -0.1315 C   0  0  0  0  0  0  0  0  0  0  0  0
    0.4484   -1.3287    0.0499 N   0  3  0  0  0  0  0  0  0  0  0  0
   -0.6596   -2.2741   -0.0906 C   0  0  0  0  0  0  0  0  0  0  0  0
    1.7050   -1.8755    0.3237 C   0  0  0  0  0  0  0  0  0  0  0  0
    1.8322   -3.0806    0.4901 O   0  0  0  0  0  0  0  0  0  0  0  0
    2.8848   -1.0581    0.3937 N   0  0  0  0  0  0  0  0  0  0  0  0
    2.7638    0.1963    0.1775 C   0  0  0  0  0  0  0  0  0  0  0  0
    3.7593    1.1819    0.1778 N   0  0  0  0  0  0  0  0  0  0  0  0
    3.1016    2.2616   -0.0863 C   0  0  0  0  0  0  0  0  0  0  0  0
    1.6975    2.0563   -0.2614 N   0  0  0  0  0  0  0  0  0  0  0  0
    1.5299    0.7993   -0.1018 C   0  0  0  0  0  0  0  0  0  0  0  0
   -4.1523    1.0388    0.6620 H   0  0  0  0  0  0  0  0  0  0  0  0
   -3.5923    1.1567   -1.0509 H   0  0  0  0  0  0  0  0  0  0  0  0
   -3.0497    2.3804    0.1674 H   0  0  0  0  0  0  0  0  0  0  0  0
   -0.9034    1.4793   -0.9951 H   0  0  0  0  0  0  0  0  0  0  0  0
   -1.5833   -1.8336   -0.5024 H   0  0  0  0  0  0  0  0  0  0  0  0
   -0.8639   -2.7749    0.8800 H   0  0  0  0  0  0  0  0  0  0  0  0
   -0.3883   -3.0491   -0.8398 H   0  0  0  0  0  0  0  0  0  0  0  0
    3.5743    3.2315   -0.1627 H   0  0  0  0  0  0  0  0  0  0  0  0
  1  2  1  0  0  0  0
  1 16  1  0  0  0  0
  1 17  1  0  0  0  0
  1 18  1  0  0  0  0
  2  3  2  0  0  0  0
  2  4  1  0  0  0  0
  4  5  1  0  0  0  0
  4 19  1  0  0  0  0
  5  6  2  0  0  0  0
  6  7  1  0  0  0  0
  6  8  1  0  0  0  0
  7 20  1  0  0  0  0
  7 21  1  0  0  0  0
  7 22  1  0  0  0  0
  8  9  2  0  0  0  0
  8 10  1  0  0  0  0
 10 11  2  0  0  0  0
 11 12  1  0  0  0  0
 12 13  2  0  0  0  0
 13 14  1  0  0  0  0
 13 23  1  0  0  0  0
 14 15  2  0  0  0  0
 15  5  1  0  0  0  0
 15 11  1  0  0  0  0
M  CHG  1   6   1
M  END
>  <IDENTIFIER>
CNP0494566.0

>  <Energy>
408.673

$$$$
