
 OpenBabel09042516142D

163162  0  0  0  0  0  0  0  0999 V2000
    0.4269   -3.1034   -0.0005 C   0  0  0  0  0  0  0  0  0  0  0  0
   -0.2485   -1.7556    0.1474 C   0  0  0  0  0  0  0  0  0  0  0  0
    0.6609   -0.5589    0.1488 C   0  0  0  0  0  0  0  0  0  0  0  0
    2.0058   -0.4559    0.0654 C   0  0  0  0  0  0  0  0  0  0  0  0
    3.1450   -1.4635   -0.0475 C   0  0  0  0  0  0  0  0  0  0  0  0
    4.2505   -2.5371   -0.0134 C   0  0  0  0  0  0  0  0  0  0  0  0
    5.5852   -2.1916   -0.0665 C   0  0  0  0  0  0  0  0  0  0  0  0
    5.9846   -0.7196   -0.1372 C   0  0  0  0  0  0  0  0  0  0  0  0
    7.3653   -0.0772   -0.2493 C   0  0  0  0  0  0  0  0  0  0  0  0
    8.7069   -0.3148   -0.3480 C   0  0  0  0  0  0  0  0  0  0  0  0
    9.7560   -1.4229   -0.4032 C   0  0  0  0  0  0  0  0  0  0  0  0
    9.4697   -2.9058   -0.2243 C   0  0  0  0  0  0  0  0  0  0  0  0
   10.8067   -3.7480   -0.3838 C   0  0  0  0  0  0  0  0  0  0  0  0
   10.5000   -5.1962    0.0000 C   0  0  0  0  0  0  0  0  0  0  0  0
   11.2500   -6.4952    0.0000 C   0  0  0  0  0  0  0  0  0  0  0  0
   12.0000   -7.7942    0.0000 C   0  0  0  0  0  0  0  0  0  0  0  0
   11.4809   -9.3409   -0.3451 C   0  0  0  0  0  0  0  0  0  0  0  0
   12.5591  -10.4934   -0.7924 C   0  0  0  0  0  0  0  0  0  0  0  0
   13.1490  -10.1709   -1.8119 O   0  0  0  0  0  0  0  0  0  0  0  0
   12.8405  -11.8222   -0.2411 O   0  0  0  0  0  0  0  0  0  0  0  0
   14.1336  -12.5662   -0.1991 C   0  0  1  0  0  0  0  0  0  0  0  0
   14.5122  -14.1696   -0.7330 C   0  0  0  0  0  0  0  0  0  0  0  0
   14.2221  -15.3998    0.0094 O   0  0  0  0  0  0  0  0  0  0  0  0
   14.5313  -16.8370    0.0697 C   0  0  0  0  0  0  0  0  0  0  0  0
   13.6429  -17.4931    0.5879 O   0  0  0  0  0  0  0  0  0  0  0  0
   15.8383  -17.8024   -0.3151 C   0  0  0  0  0  0  0  0  0  0  0  0
   15.7500  -19.4856    0.0000 C   0  0  0  0  0  0  0  0  0  0  0  0
   16.5000  -20.7846    0.0000 C   0  0  0  0  0  2  0  0  0  0  0  0
   17.2500  -22.0836    0.0000 C   0  0  0  0  0  0  0  0  0  0  0  0
   17.3171  -23.6176    0.1171 C   0  0  0  0  0  0  0  0  0  0  0  0
   18.8551  -24.0712    0.0440 C   0  0  0  0  0  0  0  0  0  0  0  0
   18.9999  -25.5941    0.1138 C   0  0  0  0  0  0  0  0  0  0  0  0
   20.3078  -26.4200    0.0631 C   0  0  0  0  0  0  0  0  0  0  0  0
   21.6909  -26.4201   -0.0015 C   0  0  0  0  0  0  0  0  0  0  0  0
   22.9986  -25.5946   -0.0609 C   0  0  0  0  0  0  0  0  0  0  0  0
   23.1434  -24.0707   -0.0171 C   0  0  0  0  0  0  0  0  0  0  0  0
   24.6827  -23.6200   -0.0785 C   0  0  0  0  0  0  0  0  0  0  0  0
   24.7500  -22.0836    0.0000 C   0  0  0  0  0  0  0  0  0  0  0  0
   25.5000  -20.7846    0.0000 C   0  0  0  0  0  2  0  0  0  0  0  0
   26.2500  -19.4856    0.0000 C   0  0  0  0  0  0  0  0  0  0  0  0
   27.0000  -18.1865    0.0000 C   0  0  0  0  0  0  0  0  0  0  0  0
   27.7500  -16.8875    0.0000 C   0  0  0  0  0  0  0  0  0  0  0  0
   15.1724  -11.6012   -0.8318 C   0  0  0  0  0  0  0  0  0  0  0  0
   16.4457  -11.9097   -0.4897 O   0  0  0  0  0  0  0  0  0  0  0  0
   17.4978  -11.0876   -0.7105 C   0  0  0  0  0  0  0  0  0  0  0  0
   17.4234  -10.0640   -1.3758 O   0  0  0  0  0  0  0  0  0  0  0  0
   18.6962  -11.4904    0.0000 C   0  0  0  0  0  0  0  0  0  0  0  0
   19.9952  -10.7404    0.0000 C   0  0  0  0  0  2  0  0  0  0  0  0
   21.2942   -9.9904    0.0000 C   0  0  0  0  0  0  0  0  0  0  0  0
   22.5933   -9.2404    0.0000 C   0  0  0  0  0  0  0  0  0  0  0  0
   23.8923   -8.4904    0.0000 C   0  0  0  0  0  0  0  0  0  0  0  0
   25.1913   -7.7404    0.0000 C   0  0  0  0  0  0  0  0  0  0  0  0
   26.7408   -7.2614    0.4390 C   0  0  0  0  0  0  0  0  0  0  0  0
   27.5172   -5.9705   -0.3564 C   0  0  0  0  0  0  0  0  0  0  0  0
   29.0885   -5.4904    0.0000 C   0  0  0  0  0  0  0  0  0  0  0  0
   30.3875   -4.7404    0.0000 C   0  0  0  0  0  2  0  0  0  0  0  0
   31.6865   -3.9904    0.0000 C   0  0  0  0  0  0  0  0  0  0  0  0
   32.9648   -3.1746   -0.1118 C   0  0  0  0  0  0  0  0  0  0  0  0
   32.9648   -1.8062   -0.1118 C   0  0  0  0  0  0  0  0  0  0  0  0
   31.6865   -0.9904    0.0000 C   0  0  0  0  0  0  0  0  0  0  0  0
   30.3875   -0.2404    0.0000 C   0  0  0  0  0  2  0  0  0  0  0  0
   29.0885    0.5096    0.0000 C   0  0  0  0  0  0  0  0  0  0  0  0
   27.4415    0.8402   -0.0267 C   0  0  0  0  0  0  0  0  0  0  0  0
   26.8383    2.4280    0.0266 C   0  0  0  0  0  0  0  0  0  0  0  0
   25.1913    2.7596    0.0000 C   0  0  0  0  0  0  0  0  0  0  0  0
   23.8923    3.5096    0.0000 C   0  0  0  0  0  2  0  0  0  0  0  0
   22.5933    4.2596    0.0000 C   0  0  0  0  0  0  0  0  0  0  0  0
   -0.3600   -3.8880    0.0007 H   0  0  0  0  0  0  0  0  0  0  0  0
    1.1138   -3.2820    0.8508 H   0  0  0  0  0  0  0  0  0  0  0  0
    0.9747   -3.1495   -0.9641 H   0  0  0  0  0  0  0  0  0  0  0  0
   -0.9627   -1.6247   -0.6960 H   0  0  0  0  0  0  0  0  0  0  0  0
   -0.8329   -1.7411    1.0934 H   0  0  0  0  0  0  0  0  0  0  0  0
    0.1265    0.3882    0.2273 H   0  0  0  0  0  0  0  0  0  0  0  0
    2.3503    0.5827    0.0799 H   0  0  0  0  0  0  0  0  0  0  0  0
    3.4443   -1.0628   -1.0301 H   0  0  0  0  0  0  0  0  0  0  0  0
    3.5428   -1.0317    0.8986 H   0  0  0  0  0  0  0  0  0  0  0  0
    3.9654   -3.5822    0.0492 H   0  0  0  0  0  0  0  0  0  0  0  0
    6.3507   -2.9556   -0.0508 H   0  0  0  0  0  0  0  0  0  0  0  0
    5.5518   -0.2441    0.7699 H   0  0  0  0  0  0  0  0  0  0  0  0
    5.4565   -0.3088   -1.0233 H   0  0  0  0  0  0  0  0  0  0  0  0
    7.1819    0.9997   -0.2671 H   0  0  0  0  0  0  0  0  0  0  0  0
    9.2517    0.6255   -0.4267 H   0  0  0  0  0  0  0  0  0  0  0  0
   10.2651   -1.3006   -1.3823 H   0  0  0  0  0  0  0  0  0  0  0  0
   10.4885   -1.1669    0.3939 H   0  0  0  0  0  0  0  0  0  0  0  0
    9.0387   -3.0462    0.7922 H   0  0  0  0  0  0  0  0  0  0  0  0
    8.7216   -3.2400   -0.9757 H   0  0  0  0  0  0  0  0  0  0  0  0
   11.5981   -3.3654    0.2968 H   0  0  0  0  0  0  0  0  0  0  0  0
   11.1631   -3.6854   -1.4335 H   0  0  0  0  0  0  0  0  0  0  0  0
    9.5671   -5.4378   -0.5698 H   0  0  0  0  0  0  0  0  0  0  0  0
   10.1484   -5.1256    1.0559 H   0  0  0  0  0  0  0  0  0  0  0  0
   12.1276   -5.9449    0.4220 H   0  0  0  0  0  0  0  0  0  0  0  0
   11.2692   -6.4844   -1.1185 H   0  0  0  0  0  0  0  0  0  0  0  0
   12.9102   -7.6600   -0.6420 H   0  0  0  0  0  0  0  0  0  0  0  0
   12.4180   -7.9336    1.0258 H   0  0  0  0  0  0  0  0  0  0  0  0
   10.8129   -9.2376   -1.2266 H   0  0  0  0  0  0  0  0  0  0  0  0
   10.8516   -9.7024    0.4950 H   0  0  0  0  0  0  0  0  0  0  0  0
   14.4031  -12.5936    0.8792 H   0  0  0  0  0  0  0  0  0  0  0  0
   15.6198  -14.1856   -0.7831 H   0  0  0  0  0  0  0  0  0  0  0  0
   14.1737  -14.2841   -1.7831 H   0  0  0  0  0  0  0  0  0  0  0  0
   16.6995  -17.4103    0.2652 H   0  0  0  0  0  0  0  0  0  0  0  0
   16.0638  -17.6690   -1.3929 H   0  0  0  0  0  0  0  0  0  0  0  0
   14.8507  -19.7688   -0.5855 H   0  0  0  0  0  0  0  0  0  0  0  0
   15.4109  -19.4774    1.0566 H   0  0  0  0  0  0  0  0  0  0  0  0
   17.9622  -21.7987    0.8043 H   0  0  0  0  0  0  0  0  0  0  0  0
   17.7943  -21.9265   -0.9562 H   0  0  0  0  0  0  0  0  0  0  0  0
   16.7381  -24.0740   -0.7146 H   0  0  0  0  0  0  0  0  0  0  0  0
   16.8754  -23.9389    1.0846 H   0  0  0  0  0  0  0  0  0  0  0  0
   19.3072  -23.7252   -0.9108 H   0  0  0  0  0  0  0  0  0  0  0  0
   19.4236  -23.6237    0.8877 H   0  0  0  0  0  0  0  0  0  0  0  0
   18.4920  -25.9069    1.0523 H   0  0  0  0  0  0  0  0  0  0  0  0
   18.3889  -25.9787   -0.7329 H   0  0  0  0  0  0  0  0  0  0  0  0
   19.9651  -27.4564    0.0914 H   0  0  0  0  0  0  0  0  0  0  0  0
   22.0341  -27.4565   -0.0165 H   0  0  0  0  0  0  0  0  0  0  0  0
   23.6056  -25.9653    0.7947 H   0  0  0  0  0  0  0  0  0  0  0  0
   23.5107  -25.9224   -0.9920 H   0  0  0  0  0  0  0  0  0  0  0  0
   22.5853  -23.6388   -0.8758 H   0  0  0  0  0  0  0  0  0  0  0  0
   22.6804  -23.7066    0.9257 H   0  0  0  0  0  0  0  0  0  0  0  0
   25.1413  -23.9657   -1.0297 H   0  0  0  0  0  0  0  0  0  0  0  0
   25.2462  -24.0559    0.7744 H   0  0  0  0  0  0  0  0  0  0  0  0
   24.1811  -21.9044    0.9379 H   0  0  0  0  0  0  0  0  0  0  0  0
   24.0597  -21.8171   -0.8293 H   0  0  0  0  0  0  0  0  0  0  0  0
   26.8117  -19.8734   -0.8885 H   0  0  0  0  0  0  0  0  0  0  0  0
   26.8096  -19.8701    0.8895 H   0  0  0  0  0  0  0  0  0  0  0  0
   26.4627  -17.8681    0.9341 H   0  0  0  0  0  0  0  0  0  0  0  0
   26.3887  -17.8963   -0.9064 H   0  0  0  0  0  0  0  0  0  0  0  0
   28.3064  -17.0562   -0.9523 H   0  0  0  0  0  0  0  0  0  0  0  0
   26.9153  -16.1361   -0.0958 H   0  0  0  0  0  0  0  0  0  0  0  0
   28.2850  -15.9609    0.0000 H   0  0  0  0  0  0  0  0  0  0  0  0
   15.0811  -11.5787   -1.9393 H   0  0  0  0  0  0  0  0  0  0  0  0
   15.0081  -10.5904   -0.3952 H   0  0  0  0  0  0  0  0  0  0  0  0
   18.4191  -11.5822    1.0719 H   0  0  0  0  0  0  0  0  0  0  0  0
   18.9473  -12.5134   -0.3523 H   0  0  0  0  0  0  0  0  0  0  0  0
   20.9499   -9.4782    0.9322 H   0  0  0  0  0  0  0  0  0  0  0  0
   20.8943   -9.3868   -0.8520 H   0  0  0  0  0  0  0  0  0  0  0  0
   22.9617   -9.9160    0.8247 H   0  0  0  0  0  0  0  0  0  0  0  0
   22.9074   -9.7985   -0.9293 H   0  0  0  0  0  0  0  0  0  0  0  0
   23.4450   -7.8497   -0.8197 H   0  0  0  0  0  0  0  0  0  0  0  0
   23.6423   -8.0315    0.9967 H   0  0  0  0  0  0  0  0  0  0  0  0
   25.4931   -7.9783   -1.0494 H   0  0  0  0  0  0  0  0  0  0  0  0
   24.8358   -6.6701    0.0195 H   0  0  0  0  0  0  0  0  0  0  0  0
   26.7126   -6.9980    1.5171 H   0  0  0  0  0  0  0  0  0  0  0  0
   27.3951   -8.1534    0.3368 H   0  0  0  0  0  0  0  0  0  0  0  0
   26.8725   -5.0799   -0.1983 H   0  0  0  0  0  0  0  0  0  0  0  0
   27.4960   -6.1996   -1.4422 H   0  0  0  0  0  0  0  0  0  0  0  0
   29.5502   -6.4852   -0.1710 H   0  0  0  0  0  0  0  0  0  0  0  0
   28.9351   -5.4123    1.0965 H   0  0  0  0  0  0  0  0  0  0  0  0
   31.4110   -3.5672    0.9858 H   0  0  0  0  0  0  0  0  0  0  0  0
   31.2913   -3.5395   -0.9290 H   0  0  0  0  0  0  0  0  0  0  0  0
   33.9091   -3.7034   -0.1907 H   0  0  0  0  0  0  0  0  0  0  0  0
   33.9091   -1.2774   -0.1907 H   0  0  0  0  0  0  0  0  0  0  0  0
   31.2913   -1.4412   -0.9291 H   0  0  0  0  0  0  0  0  0  0  0  0
   31.4110   -1.4136    0.9857 H   0  0  0  0  0  0  0  0  0  0  0  0
   29.3103    1.0950    0.9166 H   0  0  0  0  0  0  0  0  0  0  0  0
   29.3541    1.1710   -0.8509 H   0  0  0  0  0  0  0  0  0  0  0  0
   26.9934    0.3000    0.8337 H   0  0  0  0  0  0  0  0  0  0  0  0
   27.0377    0.3768   -0.9513 H   0  0  0  0  0  0  0  0  0  0  0  0
   27.2866    2.9680   -0.8337 H   0  0  0  0  0  0  0  0  0  0  0  0
   27.2423    2.8912    0.9513 H   0  0  0  0  0  0  0  0  0  0  0  0
   24.9255    2.0979    0.8507 H   0  0  0  0  0  0  0  0  0  0  0  0
   24.9694    2.1743   -0.9167 H   0  0  0  0  0  0  0  0  0  0  0  0
   22.9761    5.0825   -0.6380 H   0  0  0  0  0  0  0  0  0  0  0  0
   22.0704    3.5136   -0.6330 H   0  0  0  0  0  0  0  0  0  0  0  0
   21.6667    4.7946    0.0000 H   0  0  0  0  0  0  0  0  0  0  0  0
  1  2  1  0  0  0  0
  1 68  1  0  0  0  0
  1 69  1  0  0  0  0
  1 70  1  0  0  0  0
  2  3  1  0  0  0  0
  2 71  1  0  0  0  0
  2 72  1  0  0  0  0
  3  4  2  0  0  0  0
  3 73  1  0  0  0  0
  4  5  1  0  0  0  0
  4 74  1  0  0  0  0
  5  6  1  0  0  0  0
  5 75  1  0  0  0  0
  5 76  1  0  0  0  0
  6  7  2  0  0  0  0
  6 77  1  0  0  0  0
  7  8  1  0  0  0  0
  7 78  1  0  0  0  0
  8  9  1  0  0  0  0
  8 79  1  0  0  0  0
  8 80  1  0  0  0  0
  9 10  2  0  0  0  0
  9 81  1  0  0  0  0
 10 11  1  0  0  0  0
 10 82  1  0  0  0  0
 11 12  1  0  0  0  0
 11 83  1  0  0  0  0
 11 84  1  0  0  0  0
 12 13  1  0  0  0  0
 12 85  1  0  0  0  0
 12 86  1  0  0  0  0
 13 14  1  0  0  0  0
 13 87  1  0  0  0  0
 13 88  1  0  0  0  0
 14 15  1  0  0  0  0
 14 89  1  0  0  0  0
 14 90  1  0  0  0  0
 15 16  1  0  0  0  0
 15 91  1  0  0  0  0
 15 92  1  0  0  0  0
 16 17  1  0  0  0  0
 16 93  1  0  0  0  0
 16 94  1  0  0  0  0
 17 18  1  0  0  0  0
 17 95  1  0  0  0  0
 17 96  1  0  0  0  0
 18 19  2  0  0  0  0
 18 20  1  0  0  0  0
 20 21  1  0  0  0  0
 21 22  1  0  0  0  0
 21 43  1  0  0  0  0
 21 97  1  1  0  0  0
 22 23  1  0  0  0  0
 22 98  1  0  0  0  0
 22 99  1  0  0  0  0
 23 24  1  0  0  0  0
 24 25  2  0  0  0  0
 24 26  1  0  0  0  0
 26 27  1  0  0  0  0
 26100  1  0  0  0  0
 26101  1  0  0  0  0
 27 28  1  0  0  0  0
 27102  1  0  0  0  0
 27103  1  0  0  0  0
 28 29  1  0  0  0  0
 29 30  1  0  0  0  0
 29104  1  0  0  0  0
 29105  1  0  0  0  0
 30 31  1  0  0  0  0
 30106  1  0  0  0  0
 30107  1  0  0  0  0
 31 32  1  0  0  0  0
 31108  1  0  0  0  0
 31109  1  0  0  0  0
 32 33  1  0  0  0  0
 32110  1  0  0  0  0
 32111  1  0  0  0  0
 33 34  2  0  0  0  0
 33112  1  0  0  0  0
 34 35  1  0  0  0  0
 34113  1  0  0  0  0
 35 36  1  0  0  0  0
 35114  1  0  0  0  0
 35115  1  0  0  0  0
 36 37  1  0  0  0  0
 36116  1  0  0  0  0
 36117  1  0  0  0  0
 37 38  1  0  0  0  0
 37118  1  0  0  0  0
 37119  1  0  0  0  0
 38 39  1  0  0  0  0
 38120  1  0  0  0  0
 38121  1  0  0  0  0
 39 40  1  0  0  0  0
 40 41  1  0  0  0  0
 40122  1  0  0  0  0
 40123  1  0  0  0  0
 41 42  1  0  0  0  0
 41124  1  0  0  0  0
 41125  1  0  0  0  0
 42126  1  0  0  0  0
 42127  1  0  0  0  0
 42128  1  0  0  0  0
 43 44  1  0  0  0  0
 43129  1  0  0  0  0
 43130  1  0  0  0  0
 44 45  1  0  0  0  0
 45 46  2  0  0  0  0
 45 47  1  0  0  0  0
 47 48  1  0  0  0  0
 47131  1  0  0  0  0
 47132  1  0  0  0  0
 48 49  1  0  0  0  0
 49 50  1  0  0  0  0
 49133  1  0  0  0  0
 49134  1  0  0  0  0
 50 51  1  0  0  0  0
 50135  1  0  0  0  0
 50136  1  0  0  0  0
 51 52  1  0  0  0  0
 51137  1  0  0  0  0
 51138  1  0  0  0  0
 52 53  1  0  0  0  0
 52139  1  0  0  0  0
 52140  1  0  0  0  0
 53 54  1  0  0  0  0
 53141  1  0  0  0  0
 53142  1  0  0  0  0
 54 55  1  0  0  0  0
 54143  1  0  0  0  0
 54144  1  0  0  0  0
 55 56  1  0  0  0  0
 55145  1  0  0  0  0
 55146  1  0  0  0  0
 56 57  1  0  0  0  0
 57 58  1  0  0  0  0
 57147  1  0  0  0  0
 57148  1  0  0  0  0
 58 59  2  0  0  0  0
 58149  1  0  0  0  0
 59 60  1  0  0  0  0
 59150  1  0  0  0  0
 60 61  1  0  0  0  0
 60151  1  0  0  0  0
 60152  1  0  0  0  0
 61 62  1  0  0  0  0
 62 63  1  0  0  0  0
 62153  1  0  0  0  0
 62154  1  0  0  0  0
 63 64  1  0  0  0  0
 63155  1  0  0  0  0
 63156  1  0  0  0  0
 64 65  1  0  0  0  0
 64157  1  0  0  0  0
 64158  1  0  0  0  0
 65 66  1  0  0  0  0
 65159  1  0  0  0  0
 65160  1  0  0  0  0
 66 67  1  0  0  0  0
 67161  1  0  0  0  0
 67162  1  0  0  0  0
 67163  1  0  0  0  0
M  END
>  <IDENTIFIER>
CNP0595693.1

>  <Energy>
9435.01

$$$$
