
 OpenBabel09102500253D

 13 13  0  0  0  0  0  0  0  0999 V2000
    2.0388    0.2217    0.4158 C   0  0  0  0  0  0  0  0  0  0  0  0
    0.5810    0.0557    0.1211 C   0  0  0  0  0  0  0  0  0  0  0  0
    0.1401   -0.6105   -1.0315 C   0  0  0  0  0  0  0  0  0  0  0  0
   -1.1935   -0.7386   -1.2604 N   0  0  0  0  0  0  0  0  0  0  0  0
   -2.1091   -0.2332   -0.3930 C   0  0  0  0  0  0  0  0  0  0  0  0
   -1.6731    0.4304    0.7551 C   0  0  0  0  0  0  0  0  0  0  0  0
   -0.3402    0.5598    0.9862 N   0  0  0  0  0  0  0  0  0  0  0  0
    2.6687   -0.2385   -0.3751 H   0  0  0  0  0  0  0  0  0  0  0  0
    2.2778   -0.2625    1.3857 H   0  0  0  0  0  0  0  0  0  0  0  0
    2.2829    1.3027    0.4791 H   0  0  0  0  0  0  0  0  0  0  0  0
    0.8458   -1.0235   -1.7406 H   0  0  0  0  0  0  0  0  0  0  0  0
   -3.1661   -0.3458   -0.5934 H   0  0  0  0  0  0  0  0  0  0  0  0
   -2.3875    0.8393    1.4569 H   0  0  0  0  0  0  0  0  0  0  0  0
  1  2  1  0  0  0  0
  1  8  1  0  0  0  0
  1  9  1  0  0  0  0
  1 10  1  0  0  0  0
  2  3  2  0  0  0  0
  3  4  1  0  0  0  0
  3 11  1  0  0  0  0
  4  5  2  0  0  0  0
  5  6  1  0  0  0  0
  5 12  1  0  0  0  0
  6  7  2  0  0  0  0
  6 13  1  0  0  0  0
  7  2  1  0  0  0  0
M  END
>  <IDENTIFIER>
CNP0285763.0

>  <Energy>
48.0118

$$$$
