
 OpenBabel09052523403D

 58 60  0  0  0  0  0  0  0  0999 V2000
    8.8260   -0.2594   -0.3850 C   0  0  0  0  0  0  0  0  0  0  0  0
    8.9783    0.0989    0.9724 O   0  0  0  0  0  0  0  0  0  0  0  0
    8.4490   -0.8936    1.8348 C   0  0  0  0  0  0  0  0  0  0  0  0
    6.9606   -0.6708    2.1037 C   0  0  0  0  0  0  0  0  0  0  0  0
    6.2333   -0.9004    0.9546 O   0  0  0  0  0  0  0  0  0  0  0  0
    4.8938   -0.7414    0.8130 C   0  0  0  0  0  0  0  0  0  0  0  0
    4.3094   -1.1106   -0.3991 C   0  0  0  0  0  0  0  0  0  0  0  0
    2.9358   -0.9644   -0.5984 C   0  0  0  0  0  0  0  0  0  0  0  0
    2.1088   -0.4327    0.4126 C   0  0  0  0  0  0  0  0  0  0  0  0
    0.6387   -0.3040    0.1535 C   0  0  0  0  0  0  0  0  0  0  0  0
    0.1976   -0.7567   -0.8950 O   0  0  0  0  0  0  0  0  0  0  0  0
   -0.2225    0.2656    1.0525 N   0  0  0  0  0  0  0  0  0  0  0  0
   -1.6676    0.3085    0.8151 C   0  0  2  0  0  0  0  0  0  0  0  0
   -1.9469    1.3305   -0.3430 C   0  0  0  0  0  0  0  0  0  0  0  0
   -3.2737    1.2397   -0.9799 N   0  0  0  0  0  0  0  0  0  0  0  0
   -3.3549    0.0476   -1.8663 C   0  0  0  0  0  0  0  0  0  0  0  0
   -4.6835   -0.1245   -2.5471 C   0  0  0  0  0  0  0  0  0  0  0  0
   -5.2062    0.8624   -3.3950 C   0  0  0  0  0  0  0  0  0  0  0  0
   -6.4414    0.6463   -4.0123 C   0  0  0  0  0  0  0  0  0  0  0  0
   -7.1349   -0.5452   -3.7848 C   0  0  0  0  0  0  0  0  0  0  0  0
   -6.5813   -1.5063   -2.9385 C   0  0  0  0  0  0  0  0  0  0  0  0
   -5.3822   -1.2767   -2.3452 N   0  0  0  0  0  0  0  0  0  0  0  0
   -4.4364    1.5173   -0.1022 C   0  0  0  0  0  0  0  0  0  0  0  0
   -4.7327    0.3912    0.8842 C   0  0  0  0  0  0  0  0  0  0  0  0
   -3.9181    0.4144    2.1782 C   0  0  0  0  0  0  0  0  0  0  0  0
   -2.4133    0.7440    2.1092 C   0  0  1  0  0  0  0  0  0  0  0  0
   -1.8112    0.2144    3.2667 O   0  0  0  0  0  0  0  0  0  0  0  0
    2.7068   -0.0611    1.6352 C   0  0  0  0  0  0  0  0  0  0  0  0
    4.0806   -0.2169    1.8332 C   0  0  0  0  0  0  0  0  0  0  0  0
    9.5052    0.3784   -0.9865 H   0  0  0  0  0  0  0  0  0  0  0  0
    7.7947   -0.0516   -0.7373 H   0  0  0  0  0  0  0  0  0  0  0  0
    9.1262   -1.3103   -0.5923 H   0  0  0  0  0  0  0  0  0  0  0  0
    8.9848   -0.7992    2.8029 H   0  0  0  0  0  0  0  0  0  0  0  0
    8.6450   -1.9339    1.4866 H   0  0  0  0  0  0  0  0  0  0  0  0
    6.8143    0.3733    2.4568 H   0  0  0  0  0  0  0  0  0  0  0  0
    6.6228   -1.3780    2.8928 H   0  0  0  0  0  0  0  0  0  0  0  0
    4.9229   -1.5182   -1.1937 H   0  0  0  0  0  0  0  0  0  0  0  0
    2.5238   -1.2674   -1.5536 H   0  0  0  0  0  0  0  0  0  0  0  0
    0.1373    0.6298    1.9424 H   0  0  0  0  0  0  0  0  0  0  0  0
   -1.9686   -0.7326    0.5742 H   0  0  0  0  0  0  0  0  0  0  0  0
   -1.1953    1.2048   -1.1490 H   0  0  0  0  0  0  0  0  0  0  0  0
   -1.7713    2.3680    0.0162 H   0  0  0  0  0  0  0  0  0  0  0  0
   -3.1247   -0.8789   -1.3026 H   0  0  0  0  0  0  0  0  0  0  0  0
   -2.5860    0.1393   -2.6646 H   0  0  0  0  0  0  0  0  0  0  0  0
   -4.6659    1.7841   -3.5720 H   0  0  0  0  0  0  0  0  0  0  0  0
   -6.8606    1.3989   -4.6668 H   0  0  0  0  0  0  0  0  0  0  0  0
   -8.0905   -0.7232   -4.2600 H   0  0  0  0  0  0  0  0  0  0  0  0
   -7.1021   -2.4360   -2.7530 H   0  0  0  0  0  0  0  0  0  0  0  0
   -5.3272    1.6239   -0.7545 H   0  0  0  0  0  0  0  0  0  0  0  0
   -4.3353    2.4934    0.4201 H   0  0  0  0  0  0  0  0  0  0  0  0
   -4.6154   -0.5835    0.3706 H   0  0  0  0  0  0  0  0  0  0  0  0
   -5.7977    0.4432    1.1990 H   0  0  0  0  0  0  0  0  0  0  0  0
   -4.0689   -0.5944    2.6229 H   0  0  0  0  0  0  0  0  0  0  0  0
   -4.3607    1.1429    2.8937 H   0  0  0  0  0  0  0  0  0  0  0  0
   -2.2892    1.8476    2.1725 H   0  0  0  0  0  0  0  0  0  0  0  0
   -1.7740   -0.7725    3.1580 H   0  0  0  0  0  0  0  0  0  0  0  0
    2.1408    0.3433    2.4571 H   0  0  0  0  0  0  0  0  0  0  0  0
    4.4999    0.0766    2.7859 H   0  0  0  0  0  0  0  0  0  0  0  0
  1  2  1  0  0  0  0
  1 30  1  0  0  0  0
  1 31  1  0  0  0  0
  1 32  1  0  0  0  0
  2  3  1  0  0  0  0
  3  4  1  0  0  0  0
  3 33  1  0  0  0  0
  3 34  1  0  0  0  0
  4  5  1  0  0  0  0
  4 35  1  0  0  0  0
  4 36  1  0  0  0  0
  5  6  1  0  0  0  0
  6  7  2  0  0  0  0
  7  8  1  0  0  0  0
  7 37  1  0  0  0  0
  8  9  2  0  0  0  0
  8 38  1  0  0  0  0
  9 10  1  0  0  0  0
  9 28  1  0  0  0  0
 10 11  2  0  0  0  0
 10 12  1  0  0  0  0
 12 39  1  0  0  0  0
 13 12  1  0  0  0  0
 13 14  1  0  0  0  0
 13 40  1  6  0  0  0
 14 15  1  0  0  0  0
 14 41  1  0  0  0  0
 14 42  1  0  0  0  0
 15 16  1  0  0  0  0
 15 23  1  0  0  0  0
 16 17  1  0  0  0  0
 16 43  1  0  0  0  0
 16 44  1  0  0  0  0
 17 18  2  0  0  0  0
 18 19  1  0  0  0  0
 18 45  1  0  0  0  0
 19 20  2  0  0  0  0
 19 46  1  0  0  0  0
 20 21  1  0  0  0  0
 20 47  1  0  0  0  0
 21 22  2  0  0  0  0
 21 48  1  0  0  0  0
 22 17  1  0  0  0  0
 23 24  1  0  0  0  0
 23 49  1  0  0  0  0
 23 50  1  0  0  0  0
 24 25  1  0  0  0  0
 24 51  1  0  0  0  0
 24 52  1  0  0  0  0
 25 26  1  0  0  0  0
 25 53  1  0  0  0  0
 25 54  1  0  0  0  0
 26 27  1  0  0  0  0
 26 13  1  0  0  0  0
 26 55  1  1  0  0  0
 27 56  1  0  0  0  0
 28 29  2  0  0  0  0
 28 57  1  0  0  0  0
 29  6  1  0  0  0  0
 29 58  1  0  0  0  0
M  END
>  <IDENTIFIER>
CNP0465778.1

>  <Energy>
501.624

$$$$
