
 OpenBabel09072509143D

 84 90  0  0  0  0  0  0  0  0999 V2000
   -2.0555    2.4152    3.9960 C   0  0  0  0  0  0  0  0  0  0  0  0
   -2.0829    2.4890    2.6478 C   0  0  0  0  0  0  0  0  0  0  0  0
   -2.2298    3.8552    2.0235 C   0  0  0  0  0  0  0  0  0  0  0  0
   -1.9642    1.2469    1.7394 C   0  0  2  0  0  0  0  0  0  0  0  0
   -1.9522   -0.0970    2.5122 C   0  0  0  0  0  0  0  0  0  0  0  0
   -1.9990   -1.3062    1.5274 C   0  0  1  0  0  0  0  0  0  0  0  0
   -3.4884   -1.7165    1.3164 C   0  0  0  0  0  0  0  0  0  0  0  0
   -1.2171   -0.9747    0.1785 C   0  0  1  0  0  0  0  0  0  0  0  0
   -2.1293   -0.3110   -0.7202 O   0  0  0  0  0  0  0  0  0  0  0  0
   -2.4097    1.0715   -0.4232 C   0  0  2  0  0  0  0  0  0  0  0  0
   -3.3173    1.6494   -1.4999 C   0  0  0  0  0  0  0  0  0  0  0  0
   -3.8129    0.8533   -2.5566 C   0  0  0  0  0  0  0  0  0  0  0  0
   -4.6554    1.4032   -3.5282 C   0  0  0  0  0  0  0  0  0  0  0  0
   -5.0163    2.7495   -3.4637 C   0  0  0  0  0  0  0  0  0  0  0  0
   -4.5312    3.5506   -2.4301 C   0  0  0  0  0  0  0  0  0  0  0  0
   -3.6874    3.0064   -1.4575 C   0  0  0  0  0  0  0  0  0  0  0  0
   -1.2168    1.8076   -0.3794 O   0  0  0  0  0  0  0  0  0  0  0  0
   -0.7036    1.3598    0.8311 C   0  0  2  0  0  0  0  0  0  0  0  0
   -0.0283   -0.0055    0.5399 C   0  0  2  0  0  0  0  0  0  0  0  0
    1.1623    0.1662   -0.4570 C   0  0  2  0  0  0  0  0  0  0  0  0
    0.7166    0.4263   -1.7694 O   0  0  0  0  0  0  0  0  0  0  0  0
    2.3011   -0.9361   -0.3204 C   0  0  2  0  0  0  0  0  0  0  0  0
    2.7299   -1.0200    1.0225 O   0  0  0  0  0  0  0  0  0  0  0  0
    3.5305   -0.5269   -1.2051 C   0  0  0  0  0  0  0  0  0  0  0  0
    4.0791    0.7009   -0.8661 O   0  0  0  0  0  0  0  0  0  0  0  0
    4.9240    0.9232    0.1791 C   0  0  0  0  0  0  0  0  0  0  0  0
    5.2785   -0.0038    0.8955 O   0  0  0  0  0  0  0  0  0  0  0  0
    5.4481    2.2874    0.4330 C   0  0  0  0  0  0  0  0  0  0  0  0
    5.1345    3.3471   -0.4374 C   0  0  0  0  0  0  0  0  0  0  0  0
    5.6398    4.6299   -0.2004 C   0  0  0  0  0  0  0  0  0  0  0  0
    6.4566    4.8692    0.9075 C   0  0  0  0  0  0  0  0  0  0  0  0
    6.7716    3.8260    1.7804 C   0  0  0  0  0  0  0  0  0  0  0  0
    6.2738    2.5410    1.5458 C   0  0  0  0  0  0  0  0  0  0  0  0
    1.8793   -2.3839   -0.7616 C   0  0  1  0  0  0  0  0  0  0  0  0
    2.9647   -3.2639   -0.5674 O   0  0  0  0  0  0  0  0  0  0  0  0
    0.5746   -3.0281   -0.1644 C   0  0  1  0  0  0  0  0  0  0  0  0
    0.6389   -3.2094    1.2336 O   0  0  0  0  0  0  0  0  0  0  0  0
   -0.7176   -2.2558   -0.5949 C   0  0  1  0  0  0  0  0  0  0  0  0
   -1.7432   -3.3720   -0.8185 C   0  0  0  0  0  0  0  0  0  0  0  0
   -0.9300   -4.3792   -1.6090 C   0  0  2  0  0  0  0  0  0  0  0  0
   -1.6331   -5.7180   -1.8567 C   0  0  0  0  0  0  0  0  0  0  0  0
    0.3792   -4.4593   -0.8095 C   0  0  2  0  0  0  0  0  0  0  0  0
    0.3441   -5.4718    0.1765 O   0  0  0  0  0  0  0  0  0  0  0  0
   -3.0385    1.2068    0.8361 O   0  0  0  0  0  0  0  0  0  0  0  0
   -2.1397    3.3086    4.6074 H   0  0  0  0  0  0  0  0  0  0  0  0
   -1.9463    1.4849    4.5374 H   0  0  0  0  0  0  0  0  0  0  0  0
   -2.2651    4.6669    2.7819 H   0  0  0  0  0  0  0  0  0  0  0  0
   -3.1825    3.8954    1.4669 H   0  0  0  0  0  0  0  0  0  0  0  0
   -1.3783    4.0653    1.3444 H   0  0  0  0  0  0  0  0  0  0  0  0
   -2.7836   -0.1826    3.2449 H   0  0  0  0  0  0  0  0  0  0  0  0
   -1.0127   -0.1273    3.1055 H   0  0  0  0  0  0  0  0  0  0  0  0
   -1.5143   -2.1454    2.0678 H   0  0  0  0  0  0  0  0  0  0  0  0
   -4.0911   -0.9192    0.8423 H   0  0  0  0  0  0  0  0  0  0  0  0
   -3.9544   -1.9440    2.2980 H   0  0  0  0  0  0  0  0  0  0  0  0
   -3.6419   -2.6146    0.7059 H   0  0  0  0  0  0  0  0  0  0  0  0
   -3.5593   -0.1951   -2.6395 H   0  0  0  0  0  0  0  0  0  0  0  0
   -5.0309    0.7830   -4.3319 H   0  0  0  0  0  0  0  0  0  0  0  0
   -5.6702    3.1725   -4.2156 H   0  0  0  0  0  0  0  0  0  0  0  0
   -4.8087    4.5958   -2.3814 H   0  0  0  0  0  0  0  0  0  0  0  0
   -3.3223    3.6503   -0.6779 H   0  0  0  0  0  0  0  0  0  0  0  0
    0.0530    2.0618    1.2467 H   0  0  0  0  0  0  0  0  0  0  0  0
    0.4410   -0.3145    1.4879 H   0  0  0  0  0  0  0  0  0  0  0  0
    1.6831    1.0938   -0.1316 H   0  0  0  0  0  0  0  0  0  0  0  0
    0.8906   -0.3571   -2.3435 H   0  0  0  0  0  0  0  0  0  0  0  0
    2.7793   -0.1094    1.4128 H   0  0  0  0  0  0  0  0  0  0  0  0
    3.2078   -0.4680   -2.2654 H   0  0  0  0  0  0  0  0  0  0  0  0
    4.3341   -1.2951   -1.1736 H   0  0  0  0  0  0  0  0  0  0  0  0
    4.5057    3.1846   -1.3037 H   0  0  0  0  0  0  0  0  0  0  0  0
    5.3990    5.4395   -0.8771 H   0  0  0  0  0  0  0  0  0  0  0  0
    6.8460    5.8626    1.0895 H   0  0  0  0  0  0  0  0  0  0  0  0
    7.4035    4.0121    2.6394 H   0  0  0  0  0  0  0  0  0  0  0  0
    6.5328    1.7479    2.2362 H   0  0  0  0  0  0  0  0  0  0  0  0
    1.7121   -2.3528   -1.8597 H   0  0  0  0  0  0  0  0  0  0  0  0
    3.0713   -3.4090    0.4083 H   0  0  0  0  0  0  0  0  0  0  0  0
    0.8870   -2.3649    1.6676 H   0  0  0  0  0  0  0  0  0  0  0  0
   -0.5095   -1.8906   -1.6238 H   0  0  0  0  0  0  0  0  0  0  0  0
   -2.6472   -3.0369   -1.3720 H   0  0  0  0  0  0  0  0  0  0  0  0
   -2.0226   -3.8352    0.1500 H   0  0  0  0  0  0  0  0  0  0  0  0
   -0.7037   -3.9180   -2.5993 H   0  0  0  0  0  0  0  0  0  0  0  0
   -1.9137   -6.2085   -0.9009 H   0  0  0  0  0  0  0  0  0  0  0  0
   -0.9634   -6.3963   -2.4261 H   0  0  0  0  0  0  0  0  0  0  0  0
   -2.5593   -5.5525   -2.4459 H   0  0  0  0  0  0  0  0  0  0  0  0
    1.1837   -4.7557   -1.5178 H   0  0  0  0  0  0  0  0  0  0  0  0
   -0.4557   -5.3417    0.7477 H   0  0  0  0  0  0  0  0  0  0  0  0
  1  2  2  0  0  0  0
  1 45  1  0  0  0  0
  1 46  1  0  0  0  0
  2  3  1  0  0  0  0
  3 47  1  0  0  0  0
  3 48  1  0  0  0  0
  3 49  1  0  0  0  0
  4  2  1  1  0  0  0
  4  5  1  0  0  0  0
  5  6  1  0  0  0  0
  5 50  1  0  0  0  0
  5 51  1  0  0  0  0
  6  7  1  0  0  0  0
  6  8  1  0  0  0  0
  6 52  1  1  0  0  0
  7 53  1  0  0  0  0
  7 54  1  0  0  0  0
  7 55  1  0  0  0  0
  8  9  1  6  0  0  0
  9 10  1  0  0  0  0
 10 11  1  6  0  0  0
 10 17  1  0  0  0  0
 10 44  1  0  0  0  0
 11 12  2  0  0  0  0
 12 13  1  0  0  0  0
 12 56  1  0  0  0  0
 13 14  2  0  0  0  0
 13 57  1  0  0  0  0
 14 15  1  0  0  0  0
 14 58  1  0  0  0  0
 15 16  2  0  0  0  0
 15 59  1  0  0  0  0
 16 11  1  0  0  0  0
 16 60  1  0  0  0  0
 18 17  1  0  0  0  0
 18 19  1  0  0  0  0
 18  4  1  0  0  0  0
 18 61  1  1  0  0  0
 19 20  1  0  0  0  0
 19  8  1  0  0  0  0
 19 62  1  1  0  0  0
 20 21  1  0  0  0  0
 20 22  1  0  0  0  0
 20 63  1  1  0  0  0
 21 64  1  0  0  0  0
 22 23  1  1  0  0  0
 22 24  1  0  0  0  0
 22 34  1  0  0  0  0
 23 65  1  0  0  0  0
 24 25  1  0  0  0  0
 24 66  1  0  0  0  0
 24 67  1  0  0  0  0
 25 26  1  0  0  0  0
 26 27  2  0  0  0  0
 26 28  1  0  0  0  0
 28 29  2  0  0  0  0
 29 30  1  0  0  0  0
 29 68  1  0  0  0  0
 30 31  2  0  0  0  0
 30 69  1  0  0  0  0
 31 32  1  0  0  0  0
 31 70  1  0  0  0  0
 32 33  2  0  0  0  0
 32 71  1  0  0  0  0
 33 28  1  0  0  0  0
 33 72  1  0  0  0  0
 34 35  1  0  0  0  0
 34 36  1  0  0  0  0
 34 73  1  6  0  0  0
 35 74  1  0  0  0  0
 36 37  1  1  0  0  0
 36 38  1  0  0  0  0
 37 75  1  0  0  0  0
 38 39  1  0  0  0  0
 38  8  1  0  0  0  0
 38 76  1  6  0  0  0
 39 40  1  0  0  0  0
 39 77  1  0  0  0  0
 39 78  1  0  0  0  0
 40 41  1  0  0  0  0
 40 42  1  0  0  0  0
 40 79  1  6  0  0  0
 41 80  1  0  0  0  0
 41 81  1  0  0  0  0
 41 82  1  0  0  0  0
 42 43  1  0  0  0  0
 42 36  1  0  0  0  0
 42 83  1  6  0  0  0
 43 84  1  0  0  0  0
 44  4  1  0  0  0  0
M  END
>  <IDENTIFIER>
CNP0330177.2

>  <Energy>
1157.89

$$$$
