
 OpenBabel09112507222D

139138  0  0  0  0  0  0  0  0999 V2000
   23.3827   13.5000    0.0000 C   0  0  0  0  0  0  0  0  0  0  0  0
   22.0836   12.7500    0.0000 C   0  0  0  0  0  0  0  0  0  0  0  0
   20.7846   12.0000    0.0000 C   0  0  0  0  0  2  0  0  0  0  0  0
   19.4856   11.2500    0.0000 C   0  0  0  0  0  0  0  0  0  0  0  0
   18.1865   10.5000    0.0000 C   0  0  0  0  0  0  0  0  0  0  0  0
   16.8875    9.7500    0.0000 C   0  0  0  0  0  2  0  0  0  0  0  0
   15.5885    9.0000    0.0000 C   0  0  0  0  0  0  0  0  0  0  0  0
   13.9539    8.6367   -0.1464 C   0  0  0  0  0  0  0  0  0  0  0  0
   13.3308    7.0821    0.1539 C   0  0  0  0  0  0  0  0  0  0  0  0
   11.6913    6.7500    0.0000 C   0  0  0  0  0  0  0  0  0  0  0  0
   10.3923    6.0000    0.0000 C   0  0  0  0  0  0  0  0  0  0  0  0
    9.0933    5.2500    0.0000 C   0  0  0  0  0  0  0  0  0  0  0  0
    7.7942    4.5000    0.0000 C   0  0  0  0  0  0  0  0  0  0  0  0
    6.4952    3.7500    0.0000 C   0  0  0  0  0  0  0  0  0  0  0  0
    5.1962    3.0000    0.0000 C   0  0  0  0  0  0  0  0  0  0  0  0
    3.5471    2.9547   -0.2955 C   0  0  0  0  0  0  0  0  0  0  0  0
    2.6970    1.5211   -0.0058 C   0  0  0  0  0  0  0  0  0  0  0  0
    1.0513    1.2623   -0.2717 C   0  0  0  0  0  0  0  0  0  0  0  0
    0.3100   -0.1774    0.0574 C   0  0  0  0  0  0  0  0  0  0  0  0
    1.0406   -1.0390    0.5222 O   0  0  0  0  0  0  0  0  0  0  0  0
   -1.0850   -0.5320   -0.1486 O   0  0  0  0  0  0  0  0  0  0  0  0
   -1.7222   -1.8277    0.1637 C   0  0  0  0  0  0  0  0  0  0  0  0
   -3.3294   -2.2430   -0.1724 C   0  0  1  0  0  0  0  0  0  0  0  0
   -3.6878   -3.8735    0.1287 C   0  0  0  0  0  0  0  0  0  0  0  0
   -4.9763   -4.5655   -0.1072 O   0  0  0  0  0  0  0  0  0  0  0  0
   -5.1962   -6.0000    0.0000 C   0  0  0  0  0  0  0  0  0  0  0  0
   -4.1792   -6.6761    0.1558 O   0  0  0  0  0  0  0  0  0  0  0  0
   -6.4952   -6.7500    0.0000 C   0  0  0  0  0  0  0  0  0  0  0  0
   -7.7942   -7.5000    0.0000 C   0  0  0  0  0  0  0  0  0  0  0  0
   -9.0933   -8.2500    0.0000 C   0  0  0  0  0  0  0  0  0  0  0  0
  -10.3923   -9.0000    0.0000 C   0  0  0  0  0  0  0  0  0  0  0  0
  -11.6913   -9.7500    0.0000 C   0  0  0  0  0  0  0  0  0  0  0  0
  -13.3391  -10.0796   -0.0277 C   0  0  0  0  0  0  0  0  0  0  0  0
  -13.9395  -11.6740    0.0022 C   0  0  0  0  0  0  0  0  0  0  0  0
  -15.5885  -12.0000    0.0000 C   0  0  0  0  0  0  0  0  0  0  0  0
  -16.8875  -12.7500    0.0000 C   0  0  0  0  0  0  0  0  0  0  0  0
   -4.2277   -1.3950    0.5223 O   0  0  0  0  0  0  0  0  0  0  0  0
   -4.9278   -0.3151   -0.0009 C   0  0  0  0  0  0  0  0  0  0  0  0
   -4.6534    0.0939   -1.1211 O   0  0  0  0  0  0  0  0  0  0  0  0
   -6.0360    0.4136    0.8119 C   0  0  0  0  0  0  0  0  0  0  0  0
   -6.6370    1.7080    0.1339 C   0  0  0  0  0  0  0  0  0  0  0  0
   -7.7930    2.4614    0.9154 C   0  0  0  0  0  0  0  0  0  0  0  0
   -8.1852    3.8175    0.2200 C   0  0  0  0  0  0  0  0  0  0  0  0
   -9.3297    4.7533    0.8260 C   0  0  0  0  0  0  0  0  0  0  0  0
   -9.3481    6.0933    0.0000 C   0  0  0  0  0  0  0  0  0  0  0  0
  -10.0981    7.3923    0.0000 C   0  0  0  0  0  0  0  0  0  0  0  0
  -10.8481    8.6913    0.0000 C   0  0  0  0  0  0  0  0  0  0  0  0
  -11.7662    9.9622   -0.5412 C   0  0  0  0  0  0  0  0  0  0  0  0
  -11.9625   11.3754    0.4041 C   0  0  0  0  0  0  0  0  0  0  0  0
  -13.0981   12.5885    0.0000 C   0  0  3  0  0  0  0  0  0  0  0  0
  -13.8481   13.8875    0.0000 C   0  0  0  0  0  0  0  0  0  0  0  0
  -14.3971   11.8385    0.0000 C   0  0  0  0  0  0  0  0  0  0  0  0
  -15.6962   11.0885    0.0000 C   0  0  0  0  0  0  0  0  0  0  0  0
   23.6994   13.1997    1.0256 H   0  0  0  0  0  0  0  0  0  0  0  0
   23.0119   14.5591   -0.0604 H   0  0  0  0  0  0  0  0  0  0  0  0
   24.3094   14.0350    0.0000 H   0  0  0  0  0  0  0  0  0  0  0  0
   21.8502   13.0832   -1.0370 H   0  0  0  0  0  0  0  0  0  0  0  0
   21.5983   13.3879    0.7839 H   0  0  0  0  0  0  0  0  0  0  0  0
   19.8547   10.6944   -0.8960 H   0  0  0  0  0  0  0  0  0  0  0  0
   19.8547   10.6943    0.8959 H   0  0  0  0  0  0  0  0  0  0  0  0
   17.8174   11.0557   -0.8959 H   0  0  0  0  0  0  0  0  0  0  0  0
   17.8174   11.0556    0.8960 H   0  0  0  0  0  0  0  0  0  0  0  0
   15.6987    8.6132    1.0346 H   0  0  0  0  0  0  0  0  0  0  0  0
   15.9453    8.1868   -0.6659 H   0  0  0  0  0  0  0  0  0  0  0  0
   13.6623    8.8999   -1.1848 H   0  0  0  0  0  0  0  0  0  0  0  0
   13.4133    9.3307    0.5310 H   0  0  0  0  0  0  0  0  0  0  0  0
   13.8662    6.3838   -0.5232 H   0  0  0  0  0  0  0  0  0  0  0  0
   13.6167    6.8169    1.1934 H   0  0  0  0  0  0  0  0  0  0  0  0
   11.3718    7.6103    0.6405 H   0  0  0  0  0  0  0  0  0  0  0  0
   11.6077    7.1728   -1.0333 H   0  0  0  0  0  0  0  0  0  0  0  0
   10.9994    5.2441   -0.5976 H   0  0  0  0  0  0  0  0  0  0  0  0
   10.5004    5.8180    1.1040 H   0  0  0  0  0  0  0  0  0  0  0  0
    9.0575    5.3530   -1.1278 H   0  0  0  0  0  0  0  0  0  0  0  0
    9.5671    4.2345    0.2225 H   0  0  0  0  0  0  0  0  0  0  0  0
    7.3168    5.5105   -0.2367 H   0  0  0  0  0  0  0  0  0  0  0  0
    7.8259    4.4072    1.1280 H   0  0  0  0  0  0  0  0  0  0  0  0
    5.8802    4.5128    0.5780 H   0  0  0  0  0  0  0  0  0  0  0  0
    6.4040    3.8921   -1.1094 H   0  0  0  0  0  0  0  0  0  0  0  0
    5.1913    2.5997    1.0445 H   0  0  0  0  0  0  0  0  0  0  0  0
    5.4826    2.0988   -0.5957 H   0  0  0  0  0  0  0  0  0  0  0  0
    3.0749    3.7518    0.3157 H   0  0  0  0  0  0  0  0  0  0  0  0
    3.3985    3.2164   -1.3633 H   0  0  0  0  0  0  0  0  0  0  0  0
    3.2169    0.7399   -0.5982 H   0  0  0  0  0  0  0  0  0  0  0  0
    2.8687    1.2824    1.0650 H   0  0  0  0  0  0  0  0  0  0  0  0
    0.5100    2.0353    0.3128 H   0  0  0  0  0  0  0  0  0  0  0  0
    0.8733    1.4711   -1.3472 H   0  0  0  0  0  0  0  0  0  0  0  0
   -1.5780   -2.0121    1.2495 H   0  0  0  0  0  0  0  0  0  0  0  0
   -1.1211   -2.5962   -0.3665 H   0  0  0  0  0  0  0  0  0  0  0  0
   -3.4572   -2.0970   -1.2661 H   0  0  0  0  0  0  0  0  0  0  0  0
   -2.9263   -4.4247   -0.4636 H   0  0  0  0  0  0  0  0  0  0  0  0
   -3.4316   -4.0439    1.1944 H   0  0  0  0  0  0  0  0  0  0  0  0
   -6.2676   -7.1425    1.0242 H   0  0  0  0  0  0  0  0  0  0  0  0
   -6.0477   -7.2686   -0.9098 H   0  0  0  0  0  0  0  0  0  0  0  0
   -8.0199   -7.0998   -1.0380 H   0  0  0  0  0  0  0  0  0  0  0  0
   -7.2964   -8.5208   -0.1199 H   0  0  0  0  0  0  0  0  0  0  0  0
   -9.5753   -7.2230    0.1444 H   0  0  0  0  0  0  0  0  0  0  0  0
   -8.8815   -8.6589    1.0345 H   0  0  0  0  0  0  0  0  0  0  0  0
  -10.8828   -8.4406    0.8636 H   0  0  0  0  0  0  0  0  0  0  0  0
  -10.6699   -8.5332   -0.9834 H   0  0  0  0  0  0  0  0  0  0  0  0
  -11.4928  -10.3891    0.8994 H   0  0  0  0  0  0  0  0  0  0  0  0
  -11.4552  -10.4391   -0.8486 H   0  0  0  0  0  0  0  0  0  0  0  0
  -13.7475   -9.6017   -0.9429 H   0  0  0  0  0  0  0  0  0  0  0  0
  -13.7832   -9.5533    0.8432 H   0  0  0  0  0  0  0  0  0  0  0  0
  -13.5038  -12.1980   -0.8746 H   0  0  0  0  0  0  0  0  0  0  0  0
  -13.5206  -12.1547    0.9115 H   0  0  0  0  0  0  0  0  0  0  0  0
  -15.7702  -11.3344    0.8827 H   0  0  0  0  0  0  0  0  0  0  0  0
  -15.7844  -11.4070   -0.9232 H   0  0  0  0  0  0  0  0  0  0  0  0
  -17.5963  -11.8864    0.0798 H   0  0  0  0  0  0  0  0  0  0  0  0
  -16.7262  -13.2611    0.9759 H   0  0  0  0  0  0  0  0  0  0  0  0
  -17.8141  -13.2850    0.0000 H   0  0  0  0  0  0  0  0  0  0  0  0
   -6.8549   -0.3114    1.0033 H   0  0  0  0  0  0  0  0  0  0  0  0
   -5.6032    0.7188    1.7876 H   0  0  0  0  0  0  0  0  0  0  0  0
   -5.7937    2.4191   -0.0039 H   0  0  0  0  0  0  0  0  0  0  0  0
   -7.0262    1.4384   -0.8722 H   0  0  0  0  0  0  0  0  0  0  0  0
   -7.4462    2.6894    1.9453 H   0  0  0  0  0  0  0  0  0  0  0  0
   -8.6821    1.7984    0.9780 H   0  0  0  0  0  0  0  0  0  0  0  0
   -8.4634    3.5873   -0.8318 H   0  0  0  0  0  0  0  0  0  0  0  0
   -7.2474    4.4141    0.1961 H   0  0  0  0  0  0  0  0  0  0  0  0
   -9.1040    4.9847    1.8879 H   0  0  0  0  0  0  0  0  0  0  0  0
  -10.3127    4.2402    0.7630 H   0  0  0  0  0  0  0  0  0  0  0  0
   -9.4256    5.7607   -1.0628 H   0  0  0  0  0  0  0  0  0  0  0  0
   -8.2887    6.4427    0.0751 H   0  0  0  0  0  0  0  0  0  0  0  0
   -9.8316    7.4539    1.0936 H   0  0  0  0  0  0  0  0  0  0  0  0
  -11.0530    6.8356   -0.1670 H   0  0  0  0  0  0  0  0  0  0  0  0
   -9.9780    9.3432    0.2561 H   0  0  0  0  0  0  0  0  0  0  0  0
  -11.4748    8.5883    0.9306 H   0  0  0  0  0  0  0  0  0  0  0  0
  -12.7528    9.4980   -0.7359 H   0  0  0  0  0  0  0  0  0  0  0  0
  -11.3603   10.2924   -1.5209 H   0  0  0  0  0  0  0  0  0  0  0  0
  -12.1906   11.0421    1.4389 H   0  0  0  0  0  0  0  0  0  0  0  0
  -10.9637   11.8574    0.4508 H   0  0  0  0  0  0  0  0  0  0  0  0
  -12.7341   12.7220   -1.0571 H   0  0  0  0  0  0  0  0  0  0  0  0
  -12.9611   14.5523   -0.1374 H   0  0  0  0  0  0  0  0  0  0  0  0
  -14.0652   13.9295    1.0987 H   0  0  0  0  0  0  0  0  0  0  0  0
  -14.3831   14.8141    0.0000 H   0  0  0  0  0  0  0  0  0  0  0  0
  -14.3058   11.5934    1.0891 H   0  0  0  0  0  0  0  0  0  0  0  0
  -14.0169   11.1625   -0.8030 H   0  0  0  0  0  0  0  0  0  0  0  0
  -16.0338   11.3608   -1.0313 H   0  0  0  0  0  0  0  0  0  0  0  0
  -15.3475   10.0237    0.1337 H   0  0  0  0  0  0  0  0  0  0  0  0
  -16.6229   10.5535    0.0000 H   0  0  0  0  0  0  0  0  0  0  0  0
  1  2  1  0  0  0  0
  1 54  1  0  0  0  0
  1 55  1  0  0  0  0
  1 56  1  0  0  0  0
  2  3  1  0  0  0  0
  2 57  1  0  0  0  0
  2 58  1  0  0  0  0
  3  4  1  0  0  0  0
  4  5  1  0  0  0  0
  4 59  1  0  0  0  0
  4 60  1  0  0  0  0
  5  6  1  0  0  0  0
  5 61  1  0  0  0  0
  5 62  1  0  0  0  0
  6  7  1  0  0  0  0
  7  8  1  0  0  0  0
  7 63  1  0  0  0  0
  7 64  1  0  0  0  0
  8  9  1  0  0  0  0
  8 65  1  0  0  0  0
  8 66  1  0  0  0  0
  9 10  1  0  0  0  0
  9 67  1  0  0  0  0
  9 68  1  0  0  0  0
 10 11  1  0  0  0  0
 10 69  1  0  0  0  0
 10 70  1  0  0  0  0
 11 12  1  0  0  0  0
 11 71  1  0  0  0  0
 11 72  1  0  0  0  0
 12 13  1  0  0  0  0
 12 73  1  0  0  0  0
 12 74  1  0  0  0  0
 13 14  1  0  0  0  0
 13 75  1  0  0  0  0
 13 76  1  0  0  0  0
 14 15  1  0  0  0  0
 14 77  1  0  0  0  0
 14 78  1  0  0  0  0
 15 16  1  0  0  0  0
 15 79  1  0  0  0  0
 15 80  1  0  0  0  0
 16 17  1  0  0  0  0
 16 81  1  0  0  0  0
 16 82  1  0  0  0  0
 17 18  1  0  0  0  0
 17 83  1  0  0  0  0
 17 84  1  0  0  0  0
 18 19  1  0  0  0  0
 18 85  1  0  0  0  0
 18 86  1  0  0  0  0
 19 20  2  0  0  0  0
 19 21  1  0  0  0  0
 21 22  1  0  0  0  0
 22 87  1  0  0  0  0
 22 88  1  0  0  0  0
 23 22  1  0  0  0  0
 23 24  1  0  0  0  0
 23 37  1  0  0  0  0
 23 89  1  6  0  0  0
 24 25  1  0  0  0  0
 24 90  1  0  0  0  0
 24 91  1  0  0  0  0
 25 26  1  0  0  0  0
 26 27  2  0  0  0  0
 26 28  1  0  0  0  0
 28 29  1  0  0  0  0
 28 92  1  0  0  0  0
 28 93  1  0  0  0  0
 29 30  1  0  0  0  0
 29 94  1  0  0  0  0
 29 95  1  0  0  0  0
 30 31  1  0  0  0  0
 30 96  1  0  0  0  0
 30 97  1  0  0  0  0
 31 32  1  0  0  0  0
 31 98  1  0  0  0  0
 31 99  1  0  0  0  0
 32 33  1  0  0  0  0
 32100  1  0  0  0  0
 32101  1  0  0  0  0
 33 34  1  0  0  0  0
 33102  1  0  0  0  0
 33103  1  0  0  0  0
 34 35  1  0  0  0  0
 34104  1  0  0  0  0
 34105  1  0  0  0  0
 35 36  1  0  0  0  0
 35106  1  0  0  0  0
 35107  1  0  0  0  0
 36108  1  0  0  0  0
 36109  1  0  0  0  0
 36110  1  0  0  0  0
 37 38  1  0  0  0  0
 38 39  2  0  0  0  0
 38 40  1  0  0  0  0
 40 41  1  0  0  0  0
 40111  1  0  0  0  0
 40112  1  0  0  0  0
 41 42  1  0  0  0  0
 41113  1  0  0  0  0
 41114  1  0  0  0  0
 42 43  1  0  0  0  0
 42115  1  0  0  0  0
 42116  1  0  0  0  0
 43 44  1  0  0  0  0
 43117  1  0  0  0  0
 43118  1  0  0  0  0
 44 45  1  0  0  0  0
 44119  1  0  0  0  0
 44120  1  0  0  0  0
 45 46  1  0  0  0  0
 45121  1  0  0  0  0
 45122  1  0  0  0  0
 46 47  1  0  0  0  0
 46123  1  0  0  0  0
 46124  1  0  0  0  0
 47 48  1  0  0  0  0
 47125  1  0  0  0  0
 47126  1  0  0  0  0
 48 49  1  0  0  0  0
 48127  1  0  0  0  0
 48128  1  0  0  0  0
 49 50  1  0  0  0  0
 49129  1  0  0  0  0
 49130  1  0  0  0  0
 50 51  1  0  0  0  0
 50 52  1  0  0  0  0
 50131  1  0  0  0  0
 51132  1  0  0  0  0
 51133  1  0  0  0  0
 51134  1  0  0  0  0
 52 53  1  0  0  0  0
 52135  1  0  0  0  0
 52136  1  0  0  0  0
 53137  1  0  0  0  0
 53138  1  0  0  0  0
 53139  1  0  0  0  0
M  END
>  <IDENTIFIER>
CNP0582892.2

>  <Energy>
10183.6

$$$$
