
 OpenBabel09092507402D

151150  0  0  0  0  0  0  0  0999 V2000
    9.0933    5.2500    0.0000 C   0  0  0  0  0  0  0  0  0  0  0  0
    7.7942    4.5000    0.0000 C   0  0  0  0  0  0  0  0  0  0  0  0
    6.4952    3.7500    0.0000 C   0  0  0  0  0  0  0  0  0  0  0  0
    5.1962    3.0000    0.0000 C   0  0  0  0  0  0  0  0  0  0  0  0
    3.5425    2.9629   -0.2708 C   0  0  0  0  0  0  0  0  0  0  0  0
    2.6956    1.5171   -0.0284 C   0  0  0  0  0  0  0  0  0  0  0  0
    1.0506    1.2611   -0.3022 C   0  0  0  0  0  0  0  0  0  0  0  0
    0.3113   -0.1882   -0.0110 C   0  0  0  0  0  0  0  0  0  0  0  0
    1.0382   -1.0559    0.4472 O   0  0  0  0  0  0  0  0  0  0  0  0
   -1.0805   -0.5453   -0.2393 O   0  0  0  0  0  0  0  0  0  0  0  0
   -1.7258   -1.8365    0.0783 C   0  0  0  0  0  0  0  0  0  0  0  0
   -3.3192   -2.2710   -0.3026 C   0  0  2  0  0  0  0  0  0  0  0  0
   -3.6852   -3.8788    0.0725 C   0  0  0  0  0  0  0  0  0  0  0  0
   -4.9715   -4.5734   -0.1587 O   0  0  0  0  0  0  0  0  0  0  0  0
   -5.1962   -6.0000    0.0000 C   0  0  0  0  0  0  0  0  0  0  0  0
   -4.1798   -6.6768    0.1561 O   0  0  0  0  0  0  0  0  0  0  0  0
   -6.4952   -6.7500    0.0000 C   0  0  0  0  0  0  0  0  0  0  0  0
   -7.7942   -7.5000    0.0000 C   0  0  0  0  0  0  0  0  0  0  0  0
   -9.0933   -8.2500    0.0000 C   0  0  0  0  0  0  0  0  0  0  0  0
  -10.3923   -9.0000    0.0000 C   0  0  0  0  0  0  0  0  0  0  0  0
  -11.6913   -9.7500    0.0000 C   0  0  0  0  0  0  0  0  0  0  0  0
  -13.3389  -10.0676   -0.0800 C   0  0  0  0  0  0  0  0  0  0  0  0
  -13.9466  -11.6489    0.0800 C   0  0  0  0  0  0  0  0  0  0  0  0
  -15.5885  -12.0000    0.0000 C   0  0  0  0  0  0  0  0  0  0  0  0
  -16.8875  -12.7500    0.0000 C   0  0  0  0  0  2  0  0  0  0  0  0
  -18.1865  -13.5000    0.0000 C   0  0  0  0  0  0  0  0  0  0  0  0
  -19.4856  -14.2500    0.0000 C   0  0  0  0  0  0  0  0  0  0  0  0
  -20.7846  -15.0000    0.0000 C   0  0  0  0  0  2  0  0  0  0  0  0
  -22.0836  -15.7500    0.0000 C   0  0  0  0  0  0  0  0  0  0  0  0
  -23.6234  -16.2324   -0.3908 C   0  0  0  0  0  0  0  0  0  0  0  0
  -24.3919  -17.5442    0.3791 C   0  0  0  0  0  0  0  0  0  0  0  0
  -25.9808  -18.0000    0.0000 C   0  0  0  0  0  0  0  0  0  0  0  0
  -27.2798  -18.7500    0.0000 C   0  0  0  0  0  0  0  0  0  0  0  0
  -26.7308  -16.7010    0.0000 C   0  0  0  0  0  0  0  0  0  0  0  0
   -4.2424   -1.3937    0.3109 O   0  0  0  0  0  0  0  0  0  0  0  0
   -5.0522   -0.4501   -0.3066 C   0  0  0  0  0  0  0  0  0  0  0  0
   -4.9413   -0.2369   -1.5044 O   0  0  0  0  0  0  0  0  0  0  0  0
   -6.0627    0.3822    0.5171 C   0  0  0  0  0  0  0  0  0  0  0  0
   -6.8152    1.5726   -0.2154 C   0  0  0  0  0  0  0  0  0  0  0  0
   -7.6960    2.4293    0.7742 C   0  0  0  0  0  0  0  0  0  0  0  0
   -8.0325    3.9310    0.3956 C   0  0  0  0  0  0  0  0  0  0  0  0
   -9.4799    4.5139    0.0273 C   0  0  0  0  0  0  0  0  0  0  0  0
   -9.3481    6.0933    0.0000 C   0  0  0  0  0  0  0  0  0  0  0  0
  -10.0981    7.3923    0.0000 C   0  0  0  0  0  0  0  0  0  0  0  0
  -10.8481    8.6913    0.0000 C   0  0  0  0  0  0  0  0  0  0  0  0
  -11.2868   10.2662   -0.3951 C   0  0  0  0  0  0  0  0  0  0  0  0
  -12.7521   10.9493    0.1503 C   0  0  0  0  0  0  0  0  0  0  0  0
  -13.0981   12.5885    0.0000 C   0  0  0  0  0  0  0  0  0  0  0  0
  -13.8481   13.8875    0.0000 C   0  0  0  0  0  0  0  0  0  0  0  0
  -14.5981   15.1865    0.0000 C   0  0  0  0  0  0  0  0  0  0  0  0
  -15.3481   16.4856    0.0000 C   0  0  0  0  0  0  0  0  0  0  0  0
  -16.0981   17.7846    0.0000 C   0  0  0  0  0  0  0  0  0  0  0  0
  -16.8481   19.0836    0.0000 C   0  0  0  0  0  0  0  0  0  0  0  0
  -17.5981   20.3827    0.0000 C   0  0  3  0  0  0  0  0  0  0  0  0
  -18.3481   21.6817    0.0000 C   0  0  0  0  0  0  0  0  0  0  0  0
  -18.8971   19.6327    0.0000 C   0  0  0  0  0  0  0  0  0  0  0  0
  -20.1962   18.8827    0.0000 C   0  0  0  0  0  0  0  0  0  0  0  0
    9.7591    4.3818    0.2338 H   0  0  0  0  0  0  0  0  0  0  0  0
    9.1659    5.3732   -1.1098 H   0  0  0  0  0  0  0  0  0  0  0  0
   10.0200    5.7850    0.0000 H   0  0  0  0  0  0  0  0  0  0  0  0
    7.9177    4.2753    1.0943 H   0  0  0  0  0  0  0  0  0  0  0  0
    7.3403    5.5281   -0.1631 H   0  0  0  0  0  0  0  0  0  0  0  0
    5.9252    4.4794    0.6563 H   0  0  0  0  0  0  0  0  0  0  0  0
    6.3565    3.9722   -1.0904 H   0  0  0  0  0  0  0  0  0  0  0  0
    5.2122    2.5534    1.0252 H   0  0  0  0  0  0  0  0  0  0  0  0
    5.4728    2.1302   -0.6443 H   0  0  0  0  0  0  0  0  0  0  0  0
    3.0767    3.7344    0.3771 H   0  0  0  0  0  0  0  0  0  0  0  0
    3.3788    3.2664   -1.3259 H   0  0  0  0  0  0  0  0  0  0  0  0
    3.2164    0.7582   -0.6489 H   0  0  0  0  0  0  0  0  0  0  0  0
    2.8719    1.2434    1.0328 H   0  0  0  0  0  0  0  0  0  0  0  0
    0.5067    2.0174    0.3007 H   0  0  0  0  0  0  0  0  0  0  0  0
    0.8749    1.4965   -1.3720 H   0  0  0  0  0  0  0  0  0  0  0  0
   -1.1031   -2.6172   -0.4089 H   0  0  0  0  0  0  0  0  0  0  0  0
   -1.6202   -1.9914    1.1725 H   0  0  0  0  0  0  0  0  0  0  0  0
   -3.4063   -2.1815   -1.4072 H   0  0  0  0  0  0  0  0  0  0  0  0
   -2.9111   -4.4620   -0.4703 H   0  0  0  0  0  0  0  0  0  0  0  0
   -3.4581   -3.9950    1.1530 H   0  0  0  0  0  0  0  0  0  0  0  0
   -6.1235   -7.3945   -0.8378 H   0  0  0  0  0  0  0  0  0  0  0  0
   -6.1983   -7.0039    1.0697 H   0  0  0  0  0  0  0  0  0  0  0  0
   -8.1603   -6.8546    0.8600 H   0  0  0  0  0  0  0  0  0  0  0  0
   -7.3397   -8.4469    0.4477 H   0  0  0  0  0  0  0  0  0  0  0  0
   -9.5328   -7.2969   -0.4553 H   0  0  0  0  0  0  0  0  0  0  0  0
   -8.7428   -8.8958   -0.8611 H   0  0  0  0  0  0  0  0  0  0  0  0
  -10.7455   -8.6678   -1.0325 H   0  0  0  0  0  0  0  0  0  0  0  0
  -10.7988   -8.3215    0.7963 H   0  0  0  0  0  0  0  0  0  0  0  0
  -11.4181  -10.5474   -0.7413 H   0  0  0  0  0  0  0  0  0  0  0  0
  -11.5452  -10.2697    0.9782 H   0  0  0  0  0  0  0  0  0  0  0  0
  -13.8258   -9.4519    0.7053 H   0  0  0  0  0  0  0  0  0  0  0  0
  -13.6915   -9.6879   -1.0619 H   0  0  0  0  0  0  0  0  0  0  0  0
  -13.5881  -12.0288    1.0597 H   0  0  0  0  0  0  0  0  0  0  0  0
  -13.4544  -12.2581   -0.7070 H   0  0  0  0  0  0  0  0  0  0  0  0
  -15.7655  -11.4967   -0.9734 H   0  0  0  0  0  0  0  0  0  0  0  0
  -15.8976  -11.2707    0.7776 H   0  0  0  0  0  0  0  0  0  0  0  0
  -17.8173  -14.0558    0.8958 H   0  0  0  0  0  0  0  0  0  0  0  0
  -17.8175  -14.0555   -0.8961 H   0  0  0  0  0  0  0  0  0  0  0  0
  -19.8548  -13.6941   -0.8958 H   0  0  0  0  0  0  0  0  0  0  0  0
  -19.8546  -13.6946    0.8961 H   0  0  0  0  0  0  0  0  0  0  0  0
  -22.2634  -15.6430    1.0904 H   0  0  0  0  0  0  0  0  0  0  0  0
  -21.6168  -16.7487   -0.1302 H   0  0  0  0  0  0  0  0  0  0  0  0
  -24.2406  -15.3265   -0.2241 H   0  0  0  0  0  0  0  0  0  0  0  0
  -23.6289  -16.4519   -1.4792 H   0  0  0  0  0  0  0  0  0  0  0  0
  -23.7513  -18.4376    0.2241 H   0  0  0  0  0  0  0  0  0  0  0  0
  -24.3718  -17.3198    1.4666 H   0  0  0  0  0  0  0  0  0  0  0  0
  -25.7718  -18.2064   -1.0814 H   0  0  0  0  0  0  0  0  0  0  0  0
  -27.4605  -18.7060    1.1044 H   0  0  0  0  0  0  0  0  0  0  0  0
  -26.8410  -19.7587   -0.1892 H   0  0  0  0  0  0  0  0  0  0  0  0
  -28.2064  -19.2850    0.0000 H   0  0  0  0  0  0  0  0  0  0  0  0
  -26.1539  -16.1400   -0.7606 H   0  0  0  0  0  0  0  0  0  0  0  0
  -26.5410  -16.4220    1.0628 H   0  0  0  0  0  0  0  0  0  0  0  0
  -27.2658  -15.7744    0.0000 H   0  0  0  0  0  0  0  0  0  0  0  0
   -6.8101   -0.3080    0.9613 H   0  0  0  0  0  0  0  0  0  0  0  0
   -5.4744    0.8311    1.3459 H   0  0  0  0  0  0  0  0  0  0  0  0
   -6.0193    2.2339   -0.6210 H   0  0  0  0  0  0  0  0  0  0  0  0
   -7.4348    1.2106   -1.0624 H   0  0  0  0  0  0  0  0  0  0  0  0
   -6.9989    2.5415    1.6367 H   0  0  0  0  0  0  0  0  0  0  0  0
   -8.5706    1.8877    1.1909 H   0  0  0  0  0  0  0  0  0  0  0  0
   -7.2618    4.3011   -0.3141 H   0  0  0  0  0  0  0  0  0  0  0  0
   -7.8110    4.4536    1.3534 H   0  0  0  0  0  0  0  0  0  0  0  0
  -10.1888    4.2243    0.8317 H   0  0  0  0  0  0  0  0  0  0  0  0
   -9.8471    4.1240   -0.9448 H   0  0  0  0  0  0  0  0  0  0  0  0
   -8.5743    6.2504   -0.7913 H   0  0  0  0  0  0  0  0  0  0  0  0
   -8.7899    6.2822    0.9482 H   0  0  0  0  0  0  0  0  0  0  0  0
  -10.7780    6.9109    0.7614 H   0  0  0  0  0  0  0  0  0  0  0  0
  -10.4445    7.1773   -1.0429 H   0  0  0  0  0  0  0  0  0  0  0  0
  -11.9024    8.3277   -0.1587 H   0  0  0  0  0  0  0  0  0  0  0  0
  -10.7404    8.9315    1.0869 H   0  0  0  0  0  0  0  0  0  0  0  0
  -11.3155   10.3403   -1.5025 H   0  0  0  0  0  0  0  0  0  0  0  0
  -10.4561   10.9183   -0.0502 H   0  0  0  0  0  0  0  0  0  0  0  0
  -12.8464   10.7181    1.2326 H   0  0  0  0  0  0  0  0  0  0  0  0
  -13.5572   10.3894   -0.3699 H   0  0  0  0  0  0  0  0  0  0  0  0
  -12.6546   12.6731   -1.0241 H   0  0  0  0  0  0  0  0  0  0  0  0
  -12.2503   12.9178    0.6528 H   0  0  0  0  0  0  0  0  0  0  0  0
  -14.5143   13.4872   -0.8140 H   0  0  0  0  0  0  0  0  0  0  0  0
  -14.2096   13.5068    1.0115 H   0  0  0  0  0  0  0  0  0  0  0  0
  -14.0499   15.4745    0.9584 H   0  0  0  0  0  0  0  0  0  0  0  0
  -15.5879   14.7323    0.3402 H   0  0  0  0  0  0  0  0  0  0  0  0
  -14.3142   16.8892   -0.3110 H   0  0  0  0  0  0  0  0  0  0  0  0
  -15.8748   16.2191   -0.9620 H   0  0  0  0  0  0  0  0  0  0  0  0
  -15.4684   18.0526    0.9146 H   0  0  0  0  0  0  0  0  0  0  0  0
  -15.4461   18.2664   -0.8255 H   0  0  0  0  0  0  0  0  0  0  0  0
  -17.2874   18.5903    0.9625 H   0  0  0  0  0  0  0  0  0  0  0  0
  -17.2173   18.7677   -1.0564 H   0  0  0  0  0  0  0  0  0  0  0  0
  -17.2277   20.5911    1.0441 H   0  0  0  0  0  0  0  0  0  0  0  0
  -17.4657   22.3619    0.1129 H   0  0  0  0  0  0  0  0  0  0  0  0
  -18.5537   21.7680   -1.0969 H   0  0  0  0  0  0  0  0  0  0  0  0
  -18.8831   22.6083    0.0000 H   0  0  0  0  0  0  0  0  0  0  0  0
  -19.0341   19.7792   -1.1292 H   0  0  0  0  0  0  0  0  0  0  0  0
  -19.3153   19.9611    1.0091 H   0  0  0  0  0  0  0  0  0  0  0  0
  -20.8906   19.6493   -0.4501 H   0  0  0  0  0  0  0  0  0  0  0  0
  -19.8953   18.0200   -0.6487 H   0  0  0  0  0  0  0  0  0  0  0  0
  -21.1229   18.3477    0.0000 H   0  0  0  0  0  0  0  0  0  0  0  0
  1  2  1  0  0  0  0
  1 58  1  0  0  0  0
  1 59  1  0  0  0  0
  1 60  1  0  0  0  0
  2  3  1  0  0  0  0
  2 61  1  0  0  0  0
  2 62  1  0  0  0  0
  3  4  1  0  0  0  0
  3 63  1  0  0  0  0
  3 64  1  0  0  0  0
  4  5  1  0  0  0  0
  4 65  1  0  0  0  0
  4 66  1  0  0  0  0
  5  6  1  0  0  0  0
  5 67  1  0  0  0  0
  5 68  1  0  0  0  0
  6  7  1  0  0  0  0
  6 69  1  0  0  0  0
  6 70  1  0  0  0  0
  7  8  1  0  0  0  0
  7 71  1  0  0  0  0
  7 72  1  0  0  0  0
  8  9  2  0  0  0  0
  8 10  1  0  0  0  0
 10 11  1  0  0  0  0
 11 73  1  0  0  0  0
 11 74  1  0  0  0  0
 12 11  1  0  0  0  0
 12 13  1  0  0  0  0
 12 35  1  0  0  0  0
 12 75  1  1  0  0  0
 13 14  1  0  0  0  0
 13 76  1  0  0  0  0
 13 77  1  0  0  0  0
 14 15  1  0  0  0  0
 15 16  2  0  0  0  0
 15 17  1  0  0  0  0
 17 18  1  0  0  0  0
 17 78  1  0  0  0  0
 17 79  1  0  0  0  0
 18 19  1  0  0  0  0
 18 80  1  0  0  0  0
 18 81  1  0  0  0  0
 19 20  1  0  0  0  0
 19 82  1  0  0  0  0
 19 83  1  0  0  0  0
 20 21  1  0  0  0  0
 20 84  1  0  0  0  0
 20 85  1  0  0  0  0
 21 22  1  0  0  0  0
 21 86  1  0  0  0  0
 21 87  1  0  0  0  0
 22 23  1  0  0  0  0
 22 88  1  0  0  0  0
 22 89  1  0  0  0  0
 23 24  1  0  0  0  0
 23 90  1  0  0  0  0
 23 91  1  0  0  0  0
 24 25  1  0  0  0  0
 24 92  1  0  0  0  0
 24 93  1  0  0  0  0
 25 26  1  0  0  0  0
 26 27  1  0  0  0  0
 26 94  1  0  0  0  0
 26 95  1  0  0  0  0
 27 28  1  0  0  0  0
 27 96  1  0  0  0  0
 27 97  1  0  0  0  0
 28 29  1  0  0  0  0
 29 30  1  0  0  0  0
 29 98  1  0  0  0  0
 29 99  1  0  0  0  0
 30 31  1  0  0  0  0
 30100  1  0  0  0  0
 30101  1  0  0  0  0
 31 32  1  0  0  0  0
 31102  1  0  0  0  0
 31103  1  0  0  0  0
 32 33  1  0  0  0  0
 32 34  1  0  0  0  0
 32104  1  0  0  0  0
 33105  1  0  0  0  0
 33106  1  0  0  0  0
 33107  1  0  0  0  0
 34108  1  0  0  0  0
 34109  1  0  0  0  0
 34110  1  0  0  0  0
 35 36  1  0  0  0  0
 36 37  2  0  0  0  0
 36 38  1  0  0  0  0
 38 39  1  0  0  0  0
 38111  1  0  0  0  0
 38112  1  0  0  0  0
 39 40  1  0  0  0  0
 39113  1  0  0  0  0
 39114  1  0  0  0  0
 40 41  1  0  0  0  0
 40115  1  0  0  0  0
 40116  1  0  0  0  0
 41 42  1  0  0  0  0
 41117  1  0  0  0  0
 41118  1  0  0  0  0
 42 43  1  0  0  0  0
 42119  1  0  0  0  0
 42120  1  0  0  0  0
 43 44  1  0  0  0  0
 43121  1  0  0  0  0
 43122  1  0  0  0  0
 44 45  1  0  0  0  0
 44123  1  0  0  0  0
 44124  1  0  0  0  0
 45 46  1  0  0  0  0
 45125  1  0  0  0  0
 45126  1  0  0  0  0
 46 47  1  0  0  0  0
 46127  1  0  0  0  0
 46128  1  0  0  0  0
 47 48  1  0  0  0  0
 47129  1  0  0  0  0
 47130  1  0  0  0  0
 48 49  1  0  0  0  0
 48131  1  0  0  0  0
 48132  1  0  0  0  0
 49 50  1  0  0  0  0
 49133  1  0  0  0  0
 49134  1  0  0  0  0
 50 51  1  0  0  0  0
 50135  1  0  0  0  0
 50136  1  0  0  0  0
 51 52  1  0  0  0  0
 51137  1  0  0  0  0
 51138  1  0  0  0  0
 52 53  1  0  0  0  0
 52139  1  0  0  0  0
 52140  1  0  0  0  0
 53 54  1  0  0  0  0
 53141  1  0  0  0  0
 53142  1  0  0  0  0
 54 55  1  0  0  0  0
 54 56  1  0  0  0  0
 54143  1  0  0  0  0
 55144  1  0  0  0  0
 55145  1  0  0  0  0
 55146  1  0  0  0  0
 56 57  1  0  0  0  0
 56147  1  0  0  0  0
 56148  1  0  0  0  0
 57149  1  0  0  0  0
 57150  1  0  0  0  0
 57151  1  0  0  0  0
M  END
>  <IDENTIFIER>
CNP0577013.2

>  <Energy>
12235.9

$$$$
