
 OpenBabel09092518193D

 54 55  0  0  0  0  0  0  0  0999 V2000
    2.7837   -0.0675    1.9126 C   0  0  0  0  0  0  0  0  0  0  0  0
    2.9889    0.0403    0.5880 C   0  0  0  0  0  0  0  0  0  0  0  0
    4.4067    0.0827    0.0635 C   0  0  0  0  0  0  0  0  0  0  0  0
    1.7951    0.1225   -0.3659 C   0  0  1  0  0  0  0  0  0  0  0  0
    1.7281    1.4904   -1.0835 C   0  0  0  0  0  0  0  0  0  0  0  0
    1.4436    2.6327   -0.1404 C   0  0  0  0  0  0  0  0  0  0  0  0
    0.2478    3.0608    0.3723 C   0  0  0  0  0  0  0  0  0  0  0  0
    0.2911    4.2522    1.3045 C   0  0  0  0  0  0  0  0  0  0  0  0
   -1.1850    2.5452    0.1334 C   0  0  0  0  0  0  0  0  0  0  0  0
   -1.4628    1.3525   -0.7898 C   0  0  0  0  0  0  0  0  0  0  0  0
   -2.9433    1.1047   -0.9336 C   0  0  0  0  0  0  0  0  0  0  0  0
   -3.7112    0.0330   -0.5689 C   0  0  0  0  0  0  0  0  0  0  0  0
   -5.1898    0.1187   -0.8923 C   0  0  0  0  0  0  0  0  0  0  0  0
   -3.3499   -1.2716    0.1632 C   0  0  0  0  0  0  0  0  0  0  0  0
   -1.9459   -1.5889    0.6943 C   0  0  0  0  0  0  0  0  0  0  0  0
   -0.9353   -1.9800   -0.4018 C   0  0  2  0  0  0  0  0  0  0  0  0
   -0.6819   -3.3541   -0.5479 O   0  0  0  0  0  0  0  0  0  0  0  0
    0.3542   -2.5970    0.0655 C   0  0  2  0  0  0  0  0  0  0  0  0
    0.5949   -3.1274    1.4886 C   0  0  0  0  0  0  0  0  0  0  0  0
    1.6189   -2.4278   -0.8340 C   0  0  1  0  0  0  0  0  0  0  0  0
    1.6608   -3.4042   -1.8451 O   0  0  0  0  0  0  0  0  0  0  0  0
    1.7978   -1.0083   -1.4278 C   0  0  0  0  0  0  0  0  0  0  0  0
    3.6146   -0.1268    2.6088 H   0  0  0  0  0  0  0  0  0  0  0  0
    1.7812   -0.0906    2.3276 H   0  0  0  0  0  0  0  0  0  0  0  0
    5.1544    0.0105    0.8824 H   0  0  0  0  0  0  0  0  0  0  0  0
    4.5926    1.0332   -0.4748 H   0  0  0  0  0  0  0  0  0  0  0  0
    4.5832   -0.7683   -0.6248 H   0  0  0  0  0  0  0  0  0  0  0  0
    0.8841    0.0148    0.2346 H   0  0  0  0  0  0  0  0  0  0  0  0
    1.0074    1.5208   -1.9159 H   0  0  0  0  0  0  0  0  0  0  0  0
    2.7066    1.6642   -1.5775 H   0  0  0  0  0  0  0  0  0  0  0  0
    2.3369    3.1907    0.1292 H   0  0  0  0  0  0  0  0  0  0  0  0
    1.3188    4.6366    1.4792 H   0  0  0  0  0  0  0  0  0  0  0  0
   -0.1343    3.9674    2.2899 H   0  0  0  0  0  0  0  0  0  0  0  0
   -0.3129    5.0812    0.8791 H   0  0  0  0  0  0  0  0  0  0  0  0
   -1.7606    3.4066   -0.2717 H   0  0  0  0  0  0  0  0  0  0  0  0
   -1.6129    2.2883    1.1277 H   0  0  0  0  0  0  0  0  0  0  0  0
   -0.9767    0.4976   -0.3839 H   0  0  0  0  0  0  0  0  0  0  0  0
   -1.0925    1.5525   -1.8118 H   0  0  0  0  0  0  0  0  0  0  0  0
   -3.4481    1.9359   -1.4200 H   0  0  0  0  0  0  0  0  0  0  0  0
   -5.4757    1.0577   -1.4130 H   0  0  0  0  0  0  0  0  0  0  0  0
   -5.7807    0.0643    0.0467 H   0  0  0  0  0  0  0  0  0  0  0  0
   -5.4777   -0.7308   -1.5466 H   0  0  0  0  0  0  0  0  0  0  0  0
   -3.6734   -2.1331   -0.4614 H   0  0  0  0  0  0  0  0  0  0  0  0
   -3.9959   -1.2648    1.0694 H   0  0  0  0  0  0  0  0  0  0  0  0
   -2.0738   -2.4473    1.3816 H   0  0  0  0  0  0  0  0  0  0  0  0
   -1.5790   -0.7397    1.3073 H   0  0  0  0  0  0  0  0  0  0  0  0
   -0.9486   -1.4711   -1.3833 H   0  0  0  0  0  0  0  0  0  0  0  0
    1.2772   -4.0022    1.4436 H   0  0  0  0  0  0  0  0  0  0  0  0
   -0.3222   -3.4698    2.0023 H   0  0  0  0  0  0  0  0  0  0  0  0
    1.0733   -2.3407    2.1020 H   0  0  0  0  0  0  0  0  0  0  0  0
    2.5099   -2.5985   -0.1925 H   0  0  0  0  0  0  0  0  0  0  0  0
    0.9571   -3.1801   -2.5087 H   0  0  0  0  0  0  0  0  0  0  0  0
    0.9723   -0.8255   -2.1451 H   0  0  0  0  0  0  0  0  0  0  0  0
    2.7331   -0.9666   -2.0259 H   0  0  0  0  0  0  0  0  0  0  0  0
  1  2  2  0  0  0  0
  1 23  1  0  0  0  0
  1 24  1  0  0  0  0
  2  3  1  0  0  0  0
  3 25  1  0  0  0  0
  3 26  1  0  0  0  0
  3 27  1  0  0  0  0
  4  2  1  0  0  0  0
  4  5  1  0  0  0  0
  4 28  1  1  0  0  0
  5  6  1  0  0  0  0
  5 29  1  0  0  0  0
  5 30  1  0  0  0  0
  6  7  2  0  0  0  0
  6 31  1  0  0  0  0
  7  8  1  0  0  0  0
  7  9  1  0  0  0  0
  8 32  1  0  0  0  0
  8 33  1  0  0  0  0
  8 34  1  0  0  0  0
  9 10  1  0  0  0  0
  9 35  1  0  0  0  0
  9 36  1  0  0  0  0
 10 11  1  0  0  0  0
 10 37  1  0  0  0  0
 10 38  1  0  0  0  0
 11 12  2  0  0  0  0
 11 39  1  0  0  0  0
 12 13  1  0  0  0  0
 12 14  1  0  0  0  0
 13 40  1  0  0  0  0
 13 41  1  0  0  0  0
 13 42  1  0  0  0  0
 14 15  1  0  0  0  0
 14 43  1  0  0  0  0
 14 44  1  0  0  0  0
 15 45  1  0  0  0  0
 15 46  1  0  0  0  0
 16 15  1  0  0  0  0
 16 17  1  0  0  0  0
 16 47  1  6  0  0  0
 17 18  1  0  0  0  0
 18 19  1  1  0  0  0
 18 20  1  0  0  0  0
 18 16  1  0  0  0  0
 19 48  1  0  0  0  0
 19 49  1  0  0  0  0
 19 50  1  0  0  0  0
 20 21  1  0  0  0  0
 20 22  1  0  0  0  0
 20 51  1  1  0  0  0
 21 52  1  0  0  0  0
 22  4  1  0  0  0  0
 22 53  1  0  0  0  0
 22 54  1  0  0  0  0
M  END
>  <IDENTIFIER>
CNP0251192.2

>  <Energy>
1927.04

$$$$
