
 OpenBabel09072516293D

 54 57  0  0  0  0  0  0  0  0999 V2000
   -6.0017   -2.0308   -1.7660 C   0  0  0  0  0  0  0  0  0  0  0  0
   -6.3860   -0.5524   -1.6670 C   0  0  0  0  0  0  0  0  0  0  0  0
   -5.1725    0.3579   -1.6893 C   0  0  0  0  0  0  0  0  0  0  0  0
   -4.9595    1.1573   -2.8224 C   0  0  0  0  0  0  0  0  0  0  0  0
   -3.8472    1.9977   -2.8768 C   0  0  0  0  0  0  0  0  0  0  0  0
   -3.6517    2.6849   -3.8631 O   0  0  0  0  0  0  0  0  0  0  0  0
   -2.9968    2.0536   -1.8611 O   0  0  0  0  0  0  0  0  0  0  0  0
   -3.1449    1.3314   -0.7539 C   0  0  0  0  0  0  0  0  0  0  0  0
   -2.2004    1.4492    0.2808 C   0  0  0  0  0  0  0  0  0  0  0  0
   -1.0181    2.3943    0.1603 C   0  0  0  0  0  0  0  0  0  0  0  0
   -0.0164    2.2180    1.2456 N   0  0  0  0  0  0  0  0  0  0  0  0
    1.0033    1.2087    0.8718 C   0  0  0  0  0  0  0  0  0  0  0  0
    2.1154    1.0760    1.9271 C   0  0  0  0  0  0  0  0  0  0  0  0
    3.3151    0.3477    1.3753 C   0  0  0  0  0  0  0  0  0  0  0  0
    4.5254    1.0367    1.2305 C   0  0  0  0  0  0  0  0  0  0  0  0
    5.6467    0.4010    0.7079 C   0  0  0  0  0  0  0  0  0  0  0  0
    5.5876   -0.9516    0.3224 C   0  0  0  0  0  0  0  0  0  0  0  0
    6.6666   -1.5978   -0.1939 O   0  0  0  0  0  0  0  0  0  0  0  0
    7.9035   -1.0320   -0.4290 C   0  0  0  0  0  0  0  0  0  0  0  0
    4.3834   -1.6623    0.4746 C   0  0  0  0  0  0  0  0  0  0  0  0
    4.3604   -2.9718    0.1068 O   0  0  0  0  0  0  0  0  0  0  0  0
    3.2845   -3.8262    0.2189 C   0  0  0  0  0  0  0  0  0  0  0  0
    3.2454   -1.0052    0.9983 C   0  0  0  0  0  0  0  0  0  0  0  0
   -0.6805    1.9697    2.5400 C   0  0  0  0  0  0  0  0  0  0  0  0
   -1.4760    0.8445    2.4679 O   0  0  0  0  0  0  0  0  0  0  0  0
   -2.3578    0.6976    1.4563 C   0  0  0  0  0  0  0  0  0  0  0  0
   -3.4374   -0.1726    1.5964 C   0  0  0  0  0  0  0  0  0  0  0  0
   -4.3800   -0.2947    0.5750 C   0  0  0  0  0  0  0  0  0  0  0  0
   -4.2461    0.4453   -0.6186 C   0  0  0  0  0  0  0  0  0  0  0  0
   -6.9232   -2.6501   -1.7598 H   0  0  0  0  0  0  0  0  0  0  0  0
   -5.3591   -2.3646   -0.9298 H   0  0  0  0  0  0  0  0  0  0  0  0
   -5.4574   -2.2149   -2.7162 H   0  0  0  0  0  0  0  0  0  0  0  0
   -6.9874   -0.3528   -0.7545 H   0  0  0  0  0  0  0  0  0  0  0  0
   -7.0408   -0.3416   -2.5409 H   0  0  0  0  0  0  0  0  0  0  0  0
   -5.6430    1.1218   -3.6629 H   0  0  0  0  0  0  0  0  0  0  0  0
   -1.4058    3.4351    0.1765 H   0  0  0  0  0  0  0  0  0  0  0  0
   -0.5318    2.2536   -0.8309 H   0  0  0  0  0  0  0  0  0  0  0  0
    1.4969    1.5746   -0.0576 H   0  0  0  0  0  0  0  0  0  0  0  0
    0.5449    0.2192    0.6515 H   0  0  0  0  0  0  0  0  0  0  0  0
    1.7483    0.5519    2.8338 H   0  0  0  0  0  0  0  0  0  0  0  0
    2.4177    2.1054    2.2202 H   0  0  0  0  0  0  0  0  0  0  0  0
    4.6030    2.0789    1.5142 H   0  0  0  0  0  0  0  0  0  0  0  0
    6.5574    0.9755    0.6059 H   0  0  0  0  0  0  0  0  0  0  0  0
    8.5817   -1.7996   -0.8560 H   0  0  0  0  0  0  0  0  0  0  0  0
    8.3432   -0.6605    0.5218 H   0  0  0  0  0  0  0  0  0  0  0  0
    7.8114   -0.1973   -1.1560 H   0  0  0  0  0  0  0  0  0  0  0  0
    3.5796   -4.8300   -0.1524 H   0  0  0  0  0  0  0  0  0  0  0  0
    2.4344   -3.4581   -0.3920 H   0  0  0  0  0  0  0  0  0  0  0  0
    2.9797   -3.9207    1.2834 H   0  0  0  0  0  0  0  0  0  0  0  0
    2.3093   -1.5342    1.1179 H   0  0  0  0  0  0  0  0  0  0  0  0
   -1.3210    2.8467    2.7831 H   0  0  0  0  0  0  0  0  0  0  0  0
    0.0409    1.8786    3.3754 H   0  0  0  0  0  0  0  0  0  0  0  0
   -3.5596   -0.7403    2.5103 H   0  0  0  0  0  0  0  0  0  0  0  0
   -5.2119   -0.9611    0.7430 H   0  0  0  0  0  0  0  0  0  0  0  0
  1  2  1  0  0  0  0
  1 30  1  0  0  0  0
  1 31  1  0  0  0  0
  1 32  1  0  0  0  0
  2  3  1  0  0  0  0
  2 33  1  0  0  0  0
  2 34  1  0  0  0  0
  3  4  2  0  0  0  0
  4  5  1  0  0  0  0
  4 35  1  0  0  0  0
  5  6  2  0  0  0  0
  5  7  1  0  0  0  0
  7  8  1  0  0  0  0
  8  9  2  0  0  0  0
  9 10  1  0  0  0  0
 10 11  1  0  0  0  0
 10 36  1  0  0  0  0
 10 37  1  0  0  0  0
 11 12  1  0  0  0  0
 11 24  1  0  0  0  0
 12 13  1  0  0  0  0
 12 38  1  0  0  0  0
 12 39  1  0  0  0  0
 13 14  1  0  0  0  0
 13 40  1  0  0  0  0
 13 41  1  0  0  0  0
 14 15  2  0  0  0  0
 15 16  1  0  0  0  0
 15 42  1  0  0  0  0
 16 17  2  0  0  0  0
 16 43  1  0  0  0  0
 17 18  1  0  0  0  0
 17 20  1  0  0  0  0
 18 19  1  0  0  0  0
 19 44  1  0  0  0  0
 19 45  1  0  0  0  0
 19 46  1  0  0  0  0
 20 21  1  0  0  0  0
 20 23  2  0  0  0  0
 21 22  1  0  0  0  0
 22 47  1  0  0  0  0
 22 48  1  0  0  0  0
 22 49  1  0  0  0  0
 23 14  1  0  0  0  0
 23 50  1  0  0  0  0
 24 25  1  0  0  0  0
 24 51  1  0  0  0  0
 24 52  1  0  0  0  0
 25 26  1  0  0  0  0
 26 27  2  0  0  0  0
 26  9  1  0  0  0  0
 27 28  1  0  0  0  0
 27 53  1  0  0  0  0
 28 29  2  0  0  0  0
 28 54  1  0  0  0  0
 29  3  1  0  0  0  0
 29  8  1  0  0  0  0
M  END
>  <IDENTIFIER>
CNP0200492.0

>  <Energy>
336.933

$$$$
