
 OpenBabel09092522483D

 47 51  0  0  0  0  0  0  0  0999 V2000
    3.1823   -1.2819    2.4863 C   0  0  0  0  0  0  0  0  0  0  0  0
    2.7134   -0.2397    1.5137 C   0  0  0  0  0  0  0  0  0  0  0  0
    2.2456   -0.5181    0.2779 C   0  0  0  0  0  0  0  0  0  0  0  0
    2.1221   -1.9977   -0.2629 C   0  0  0  0  0  0  0  0  0  0  0  0
    0.6348   -2.1209   -0.5999 C   0  0  2  0  0  0  0  0  0  0  0  0
   -0.3901   -3.3038   -0.7892 C   0  0  0  0  0  0  0  0  0  0  0  0
   -1.8776   -2.7137   -1.0034 C   0  0  0  0  0  0  0  0  0  0  0  0
   -1.9136   -1.2697   -0.5096 C   0  0  0  0  0  0  0  0  0  0  0  0
   -0.8642   -0.4649   -0.8709 C   0  0  0  0  0  0  0  0  0  0  0  0
    0.2569   -1.0171   -1.6382 C   0  0  1  0  0  0  0  0  0  0  0  0
    1.3182    0.0643   -1.9314 C   0  0  0  0  0  0  0  0  0  0  0  0
    1.7263    0.6645   -0.6000 C   0  0  1  0  0  0  0  0  0  0  0  0
    0.4509    1.4750   -0.0532 C   0  0  1  0  0  0  0  0  0  0  0  0
    0.2474    2.7455   -0.8509 C   0  0  0  0  0  0  0  0  0  0  0  0
   -0.8070    2.9410   -1.4444 O   0  0  0  0  0  0  0  0  0  0  0  0
    1.2542    3.6526   -0.9258 O   0  0  0  0  0  0  0  0  0  0  0  0
    1.2021    4.7886   -1.7056 C   0  0  0  0  0  0  0  0  0  0  0  0
   -0.7805    0.6445   -0.1264 N   0  0  0  0  0  0  0  0  0  0  0  0
   -1.9013    0.6328    0.6375 C   0  0  0  0  0  0  0  0  0  0  0  0
   -2.2920    1.5558    1.6062 C   0  0  0  0  0  0  0  0  0  0  0  0
   -3.4602    1.2807    2.3418 C   0  0  0  0  0  0  0  0  0  0  0  0
   -4.1918    0.0910    2.1185 C   0  0  0  0  0  0  0  0  0  0  0  0
   -3.7669   -0.8438    1.1566 C   0  0  0  0  0  0  0  0  0  0  0  0
   -2.6273   -0.5392    0.4209 C   0  0  0  0  0  0  0  0  0  0  0  0
    3.5088   -0.7943    3.4285 H   0  0  0  0  0  0  0  0  0  0  0  0
    4.0387   -1.8459    2.0615 H   0  0  0  0  0  0  0  0  0  0  0  0
    2.3515   -1.9796    2.7252 H   0  0  0  0  0  0  0  0  0  0  0  0
    2.7498    0.7950    1.8434 H   0  0  0  0  0  0  0  0  0  0  0  0
    2.4130   -2.7561    0.4928 H   0  0  0  0  0  0  0  0  0  0  0  0
    2.7476   -2.1723   -1.1631 H   0  0  0  0  0  0  0  0  0  0  0  0
    0.3225   -1.8718    0.4601 H   0  0  0  0  0  0  0  0  0  0  0  0
   -0.3592   -3.9190    0.1375 H   0  0  0  0  0  0  0  0  0  0  0  0
   -0.1312   -3.9656   -1.6428 H   0  0  0  0  0  0  0  0  0  0  0  0
   -2.6639   -3.3730   -0.5811 H   0  0  0  0  0  0  0  0  0  0  0  0
   -2.0537   -2.6416   -2.0988 H   0  0  0  0  0  0  0  0  0  0  0  0
   -0.0398   -1.4437   -2.6220 H   0  0  0  0  0  0  0  0  0  0  0  0
    0.9177    0.8388   -2.6213 H   0  0  0  0  0  0  0  0  0  0  0  0
    2.1941   -0.3899   -2.4431 H   0  0  0  0  0  0  0  0  0  0  0  0
    2.5736    1.3711   -0.7421 H   0  0  0  0  0  0  0  0  0  0  0  0
    0.6520    1.7662    0.9996 H   0  0  0  0  0  0  0  0  0  0  0  0
    2.1490    5.3544   -1.5923 H   0  0  0  0  0  0  0  0  0  0  0  0
    0.3552    5.4345   -1.3895 H   0  0  0  0  0  0  0  0  0  0  0  0
    1.0802    4.5098   -2.7750 H   0  0  0  0  0  0  0  0  0  0  0  0
   -1.7150    2.4518    1.7947 H   0  0  0  0  0  0  0  0  0  0  0  0
   -3.7921    1.9788    3.0993 H   0  0  0  0  0  0  0  0  0  0  0  0
   -5.0771   -0.1117    2.7072 H   0  0  0  0  0  0  0  0  0  0  0  0
   -4.3043   -1.7706    1.0020 H   0  0  0  0  0  0  0  0  0  0  0  0
  1  2  1  0  0  0  0
  1 25  1  0  0  0  0
  1 26  1  0  0  0  0
  1 27  1  0  0  0  0
  2  3  2  3  0  0  0
  2 28  1  0  0  0  0
  3  4  1  0  0  0  0
  4 29  1  0  0  0  0
  4 30  1  0  0  0  0
  5  4  1  0  0  0  0
  5  6  1  0  0  0  0
  5 31  1  1  0  0  0
  6  7  1  0  0  0  0
  6 32  1  0  0  0  0
  6 33  1  0  0  0  0
  7  8  1  0  0  0  0
  7 34  1  0  0  0  0
  7 35  1  0  0  0  0
  8  9  2  0  0  0  0
  9 10  1  0  0  0  0
 10 11  1  0  0  0  0
 10  5  1  0  0  0  0
 10 36  1  6  0  0  0
 11 37  1  0  0  0  0
 11 38  1  0  0  0  0
 12 11  1  0  0  0  0
 12 13  1  0  0  0  0
 12  3  1  0  0  0  0
 12 39  1  6  0  0  0
 13 14  1  0  0  0  0
 13 18  1  0  0  0  0
 13 40  1  1  0  0  0
 14 15  2  0  0  0  0
 14 16  1  0  0  0  0
 16 17  1  0  0  0  0
 17 41  1  0  0  0  0
 17 42  1  0  0  0  0
 17 43  1  0  0  0  0
 18 19  1  0  0  0  0
 18  9  1  0  0  0  0
 19 20  2  0  0  0  0
 20 21  1  0  0  0  0
 20 44  1  0  0  0  0
 21 22  2  0  0  0  0
 21 45  1  0  0  0  0
 22 23  1  0  0  0  0
 22 46  1  0  0  0  0
 23 24  2  0  0  0  0
 23 47  1  0  0  0  0
 24 19  1  0  0  0  0
 24  8  1  0  0  0  0
M  END
>  <IDENTIFIER>
CNP0134784.0

>  <Energy>
900.326

$$$$
