
 OpenBabel09072502293D

 53 57  0  0  0  0  0  0  0  0999 V2000
   -2.3581   -0.4430   -2.2148 O   0  0  0  0  0  0  0  0  0  0  0  0
   -2.7416   -0.1670   -0.7515 S   0  0  0  0  0  0  0  0  0  0  0  0
   -3.4227    1.2075   -0.8230 O   0  0  0  0  0  0  0  0  0  0  0  0
   -3.8588   -1.3806   -0.0495 C   0  0  0  0  0  0  0  0  0  0  0  0
   -3.8436   -2.7068   -0.4981 C   0  0  0  0  0  0  0  0  0  0  0  0
   -4.7086   -3.6480    0.0712 C   0  0  0  0  0  0  0  0  0  0  0  0
   -5.5889   -3.2655    1.0905 C   0  0  0  0  0  0  0  0  0  0  0  0
   -6.6703   -4.4456    1.8079 Cl  0  0  0  0  0  0  0  0  0  0  0  0
   -5.6033   -1.9409    1.5395 C   0  0  0  0  0  0  0  0  0  0  0  0
   -4.7397   -1.0004    0.9714 C   0  0  0  0  0  0  0  0  0  0  0  0
   -1.2308    0.0918    0.1581 N   0  0  0  0  0  0  0  0  0  0  0  0
   -0.5859   -1.2038    0.3911 C   0  0  0  0  0  0  0  0  0  0  0  0
    0.8199   -0.8791    0.9205 C   0  0  1  0  0  0  0  0  0  0  0  0
    1.8532   -1.9504    0.4915 C   0  0  0  0  0  0  0  0  0  0  0  0
    3.0444   -1.9724    1.2668 O   0  0  0  0  0  0  0  0  0  0  0  0
    3.9210   -0.8880    1.0337 C   0  0  0  0  0  0  0  0  0  0  0  0
    4.4840   -0.8550   -0.4025 C   0  0  0  0  0  0  0  0  0  0  0  0
    5.5624    0.2133   -0.5003 C   0  0  0  0  0  0  0  0  0  0  0  0
    5.9314   -1.2604   -0.6373 C   0  0  0  0  0  0  0  0  0  0  0  0
    1.0562    0.5592    0.3878 C   0  0  2  0  0  0  0  0  0  0  0  0
    1.0080    1.5680    1.5579 C   0  0  0  0  0  0  0  0  0  0  0  0
    1.0552    2.8550    1.0656 O   0  0  0  0  0  0  0  0  0  0  0  0
    0.2526    3.2564    0.0534 C   0  0  0  0  0  0  0  0  0  0  0  0
    0.0768    4.6242   -0.1822 C   0  0  0  0  0  0  0  0  0  0  0  0
   -0.7497    5.0561   -1.2209 C   0  0  0  0  0  0  0  0  0  0  0  0
   -1.3945    4.1230   -2.0349 C   0  0  0  0  0  0  0  0  0  0  0  0
   -1.2169    2.7545   -1.8126 C   0  0  0  0  0  0  0  0  0  0  0  0
   -0.3992    2.3029   -0.7622 C   0  0  0  0  0  0  0  0  0  0  0  0
   -0.1515    0.8145   -0.5343 C   0  0  2  0  0  0  0  0  0  0  0  0
   -3.1622   -3.0107   -1.2821 H   0  0  0  0  0  0  0  0  0  0  0  0
   -4.6924   -4.6724   -0.2776 H   0  0  0  0  0  0  0  0  0  0  0  0
   -6.2799   -1.6389    2.3290 H   0  0  0  0  0  0  0  0  0  0  0  0
   -4.7537    0.0216    1.3282 H   0  0  0  0  0  0  0  0  0  0  0  0
   -0.4957   -1.7314   -0.5907 H   0  0  0  0  0  0  0  0  0  0  0  0
   -1.1568   -1.8662    1.0771 H   0  0  0  0  0  0  0  0  0  0  0  0
    0.7489   -0.8712    2.0321 H   0  0  0  0  0  0  0  0  0  0  0  0
    2.0418   -1.9440   -0.6027 H   0  0  0  0  0  0  0  0  0  0  0  0
    1.3813   -2.9369    0.6893 H   0  0  0  0  0  0  0  0  0  0  0  0
    4.7546   -0.9992    1.7601 H   0  0  0  0  0  0  0  0  0  0  0  0
    3.4623    0.0720    1.3207 H   0  0  0  0  0  0  0  0  0  0  0  0
    3.8029   -0.6615   -1.2578 H   0  0  0  0  0  0  0  0  0  0  0  0
    6.1166    0.5540    0.4011 H   0  0  0  0  0  0  0  0  0  0  0  0
    5.7974    0.6568   -1.4911 H   0  0  0  0  0  0  0  0  0  0  0  0
    6.2650   -1.8325    0.2545 H   0  0  0  0  0  0  0  0  0  0  0  0
    5.9399   -1.7285   -1.6443 H   0  0  0  0  0  0  0  0  0  0  0  0
    1.9985    0.7129   -0.1779 H   0  0  0  0  0  0  0  0  0  0  0  0
    1.8464    1.4149    2.2677 H   0  0  0  0  0  0  0  0  0  0  0  0
    0.0579    1.4432    2.1255 H   0  0  0  0  0  0  0  0  0  0  0  0
    0.5776    5.3516    0.4442 H   0  0  0  0  0  0  0  0  0  0  0  0
   -0.8856    6.1151   -1.3988 H   0  0  0  0  0  0  0  0  0  0  0  0
   -2.0257    4.4605   -2.8468 H   0  0  0  0  0  0  0  0  0  0  0  0
   -1.7043    2.0537   -2.4741 H   0  0  0  0  0  0  0  0  0  0  0  0
    0.0777    0.3321   -1.5159 H   0  0  0  0  0  0  0  0  0  0  0  0
  1  2  2  0  0  0  0
  2  3  2  0  0  0  0
  2  4  1  0  0  0  0
  2 11  1  0  0  0  0
  4  5  2  0  0  0  0
  5  6  1  0  0  0  0
  5 30  1  0  0  0  0
  6  7  2  0  0  0  0
  6 31  1  0  0  0  0
  7  8  1  0  0  0  0
  7  9  1  0  0  0  0
  9 10  2  0  0  0  0
  9 32  1  0  0  0  0
 10  4  1  0  0  0  0
 10 33  1  0  0  0  0
 11 12  1  0  0  0  0
 12 13  1  0  0  0  0
 12 34  1  0  0  0  0
 12 35  1  0  0  0  0
 13 14  1  0  0  0  0
 13 20  1  0  0  0  0
 13 36  1  1  0  0  0
 14 15  1  0  0  0  0
 14 37  1  0  0  0  0
 14 38  1  0  0  0  0
 15 16  1  0  0  0  0
 16 17  1  0  0  0  0
 16 39  1  0  0  0  0
 16 40  1  0  0  0  0
 17 18  1  0  0  0  0
 17 41  1  0  0  0  0
 18 19  1  0  0  0  0
 18 42  1  0  0  0  0
 18 43  1  0  0  0  0
 19 17  1  0  0  0  0
 19 44  1  0  0  0  0
 19 45  1  0  0  0  0
 20 21  1  0  0  0  0
 20 46  1  6  0  0  0
 21 22  1  0  0  0  0
 21 47  1  0  0  0  0
 21 48  1  0  0  0  0
 22 23  1  0  0  0  0
 23 24  2  0  0  0  0
 24 25  1  0  0  0  0
 24 49  1  0  0  0  0
 25 26  2  0  0  0  0
 25 50  1  0  0  0  0
 26 27  1  0  0  0  0
 26 51  1  0  0  0  0
 27 28  2  0  0  0  0
 27 52  1  0  0  0  0
 28 29  1  0  0  0  0
 28 23  1  0  0  0  0
 29 11  1  0  0  0  0
 29 20  1  0  0  0  0
 29 53  1  6  0  0  0
M  END
>  <IDENTIFIER>
CNP0553789.1

>  <Energy>
2204.87

$$$$
