
 OpenBabel09062502103D

 70 75  0  0  0  0  0  0  0  0999 V2000
   -0.4845   -0.5546   -3.4257 C   0  0  0  0  0  0  0  0  0  0  0  0
    0.6978   -0.4023   -2.5040 C   0  0  0  0  0  0  0  0  0  0  0  0
    1.9039   -1.0389   -2.8064 C   0  0  0  0  0  0  0  0  0  0  0  0
    3.0184   -0.9315   -1.9586 C   0  0  0  0  0  0  0  0  0  0  0  0
    4.1449   -1.5817   -2.3044 O   0  0  0  0  0  0  0  0  0  0  0  0
    2.9510   -0.1584   -0.7632 C   0  0  0  0  0  0  0  0  0  0  0  0
    4.1598   -0.0324    0.2155 C   0  0  2  0  0  0  0  0  0  0  0  0
    3.8126    0.8617    1.4503 C   0  0  0  0  0  0  0  0  0  0  0  0
    5.4160    0.5614   -0.4499 C   0  0  0  0  0  0  0  0  0  0  0  0
    6.5569    0.1113    0.4712 C   0  0  0  0  0  0  0  0  0  0  0  0
    6.1364   -1.2737    1.0084 C   0  0  2  0  0  0  0  0  0  0  0  0
    5.6466   -2.2771   -0.0608 C   0  0  0  0  0  0  0  0  0  0  0  0
    4.6561   -1.4136    0.7452 C   0  0  2  0  0  0  0  0  0  0  0  0
    3.8123   -2.2036    1.7587 C   0  0  0  0  0  0  0  0  0  0  0  0
    1.7170    0.4841   -0.4855 C   0  0  0  0  0  0  0  0  0  0  0  0
    0.6114    0.3665   -1.3324 C   0  0  0  0  0  0  0  0  0  0  0  0
   -0.6458    1.0364   -0.9407 C   0  0  0  0  0  0  0  0  0  0  0  0
   -1.5553    0.3247   -0.1535 C   0  0  0  0  0  0  0  0  0  0  0  0
   -2.7966    0.8698    0.2853 C   0  0  0  0  0  0  0  0  0  0  0  0
   -3.7591   -0.0121    1.1714 C   0  0  1  0  0  0  0  0  0  0  0  0
   -3.1285   -1.4210    1.4628 C   0  0  0  0  0  0  0  0  0  0  0  0
   -4.0899    0.6094    2.5421 C   0  0  0  0  0  0  0  0  0  0  0  0
   -5.3382   -0.1613    2.9984 C   0  0  0  0  0  0  0  0  0  0  0  0
   -6.1008   -0.5313    1.7044 C   0  0  1  0  0  0  0  0  0  0  0  0
   -6.3805    0.6664    0.7773 C   0  0  0  0  0  0  0  0  0  0  0  0
   -5.1681   -0.2586    0.5403 C   0  0  1  0  0  0  0  0  0  0  0  0
   -5.2993   -1.1891   -0.6790 C   0  0  0  0  0  0  0  0  0  0  0  0
   -3.0624    2.2204   -0.1405 C   0  0  0  0  0  0  0  0  0  0  0  0
   -4.1747    2.9196    0.1533 O   0  0  0  0  0  0  0  0  0  0  0  0
   -2.1323    2.9220   -0.9206 C   0  0  0  0  0  0  0  0  0  0  0  0
   -0.9272    2.3512   -1.3240 C   0  0  0  0  0  0  0  0  0  0  0  0
    0.0452    3.1483   -2.1539 C   0  0  0  0  0  0  0  0  0  0  0  0
   -0.2447   -1.1956   -4.3005 H   0  0  0  0  0  0  0  0  0  0  0  0
   -0.7999    0.4404   -3.8033 H   0  0  0  0  0  0  0  0  0  0  0  0
   -1.3307   -1.0198   -2.8777 H   0  0  0  0  0  0  0  0  0  0  0  0
    1.9811   -1.6361   -3.7075 H   0  0  0  0  0  0  0  0  0  0  0  0
    4.2170   -2.1153   -3.1093 H   0  0  0  0  0  0  0  0  0  0  0  0
    3.5814    1.8995    1.1256 H   0  0  0  0  0  0  0  0  0  0  0  0
    4.6341    0.9247    2.1895 H   0  0  0  0  0  0  0  0  0  0  0  0
    2.9407    0.4604    2.0079 H   0  0  0  0  0  0  0  0  0  0  0  0
    5.3836    1.6536   -0.6519 H   0  0  0  0  0  0  0  0  0  0  0  0
    5.5906    0.0746   -1.4272 H   0  0  0  0  0  0  0  0  0  0  0  0
    6.6355    0.7907    1.3441 H   0  0  0  0  0  0  0  0  0  0  0  0
    7.5399    0.1148   -0.0455 H   0  0  0  0  0  0  0  0  0  0  0  0
    6.7102   -1.8155    1.7910 H   0  0  0  0  0  0  0  0  0  0  0  0
    5.7824   -3.3081    0.3311 H   0  0  0  0  0  0  0  0  0  0  0  0
    6.2336   -2.0190   -0.9660 H   0  0  0  0  0  0  0  0  0  0  0  0
    2.8301   -2.4484    1.3030 H   0  0  0  0  0  0  0  0  0  0  0  0
    3.6464   -1.6095    2.6793 H   0  0  0  0  0  0  0  0  0  0  0  0
    4.3033   -3.1510    2.0660 H   0  0  0  0  0  0  0  0  0  0  0  0
    1.5700    1.0852    0.3967 H   0  0  0  0  0  0  0  0  0  0  0  0
   -1.2404   -0.6735    0.0974 H   0  0  0  0  0  0  0  0  0  0  0  0
   -2.1882   -1.3141    2.0469 H   0  0  0  0  0  0  0  0  0  0  0  0
   -2.9095   -1.9742    0.5264 H   0  0  0  0  0  0  0  0  0  0  0  0
   -3.7884   -2.0962    2.0402 H   0  0  0  0  0  0  0  0  0  0  0  0
   -4.3949    1.6602    2.4230 H   0  0  0  0  0  0  0  0  0  0  0  0
   -3.2602    0.6177    3.2813 H   0  0  0  0  0  0  0  0  0  0  0  0
   -5.9403    0.4174    3.7310 H   0  0  0  0  0  0  0  0  0  0  0  0
   -5.0487   -1.1118    3.4900 H   0  0  0  0  0  0  0  0  0  0  0  0
   -7.0283   -1.1428    1.7324 H   0  0  0  0  0  0  0  0  0  0  0  0
   -6.5607    1.4927    1.4971 H   0  0  0  0  0  0  0  0  0  0  0  0
   -7.2409    0.4340    0.1137 H   0  0  0  0  0  0  0  0  0  0  0  0
   -4.6963   -0.7806   -1.5165 H   0  0  0  0  0  0  0  0  0  0  0  0
   -6.3500   -1.2934   -1.0215 H   0  0  0  0  0  0  0  0  0  0  0  0
   -4.9396   -2.2094   -0.4380 H   0  0  0  0  0  0  0  0  0  0  0  0
   -4.9214    2.6212    0.6596 H   0  0  0  0  0  0  0  0  0  0  0  0
   -2.3625    3.9397   -1.2158 H   0  0  0  0  0  0  0  0  0  0  0  0
   -0.3332    4.1715   -2.3621 H   0  0  0  0  0  0  0  0  0  0  0  0
    0.2216    2.6399   -3.1243 H   0  0  0  0  0  0  0  0  0  0  0  0
    1.0103    3.2413   -1.6120 H   0  0  0  0  0  0  0  0  0  0  0  0
  1  2  1  0  0  0  0
  1 33  1  0  0  0  0
  1 34  1  0  0  0  0
  1 35  1  0  0  0  0
  2  3  2  0  0  0  0
  3  4  1  0  0  0  0
  3 36  1  0  0  0  0
  4  5  1  0  0  0  0
  4  6  2  0  0  0  0
  5 37  1  0  0  0  0
  6  7  1  0  0  0  0
  6 15  1  0  0  0  0
  7  8  1  1  0  0  0
  7  9  1  0  0  0  0
  8 38  1  0  0  0  0
  8 39  1  0  0  0  0
  8 40  1  0  0  0  0
  9 10  1  0  0  0  0
  9 41  1  0  0  0  0
  9 42  1  0  0  0  0
 10 43  1  0  0  0  0
 10 44  1  0  0  0  0
 11 10  1  0  0  0  0
 11 12  1  0  0  0  0
 11 45  1  1  0  0  0
 12 13  1  0  0  0  0
 12 46  1  0  0  0  0
 12 47  1  0  0  0  0
 13 14  1  1  0  0  0
 13  7  1  0  0  0  0
 13 11  1  0  0  0  0
 14 48  1  0  0  0  0
 14 49  1  0  0  0  0
 14 50  1  0  0  0  0
 15 16  2  0  0  0  0
 15 51  1  0  0  0  0
 16 17  1  0  0  0  0
 16  2  1  0  0  0  0
 17 18  2  0  0  0  0
 18 19  1  0  0  0  0
 18 52  1  0  0  0  0
 19 20  1  0  0  0  0
 19 28  2  0  0  0  0
 20 21  1  1  0  0  0
 20 22  1  0  0  0  0
 21 53  1  0  0  0  0
 21 54  1  0  0  0  0
 21 55  1  0  0  0  0
 22 23  1  0  0  0  0
 22 56  1  0  0  0  0
 22 57  1  0  0  0  0
 23 58  1  0  0  0  0
 23 59  1  0  0  0  0
 24 23  1  0  0  0  0
 24 25  1  0  0  0  0
 24 60  1  6  0  0  0
 25 26  1  0  0  0  0
 25 61  1  0  0  0  0
 25 62  1  0  0  0  0
 26 27  1  6  0  0  0
 26 20  1  0  0  0  0
 26 24  1  0  0  0  0
 27 63  1  0  0  0  0
 27 64  1  0  0  0  0
 27 65  1  0  0  0  0
 28 29  1  0  0  0  0
 28 30  1  0  0  0  0
 29 66  1  0  0  0  0
 30 31  2  0  0  0  0
 30 67  1  0  0  0  0
 31 32  1  0  0  0  0
 31 17  1  0  0  0  0
 32 68  1  0  0  0  0
 32 69  1  0  0  0  0
 32 70  1  0  0  0  0
M  END
>  <IDENTIFIER>
CNP0288415.2

>  <Energy>
3411.48

$$$$
