
 OpenBabel09122518043D

117120  0  0  0  0  0  0  0  0999 V2000
    3.5108   -5.8865    2.7546 C   0  0  0  0  0  0  0  0  0  0  0  0
    3.5309   -5.0467    1.5094 C   0  0  0  0  0  0  0  0  0  0  0  0
    4.5688   -4.5072    1.1539 O   0  0  0  0  0  0  0  0  0  0  0  0
    2.3865   -4.9081    0.7912 N   0  0  0  0  0  0  0  0  0  0  0  0
    2.2600   -4.1183   -0.4334 C   0  0  2  0  0  0  0  0  0  0  0  0
    1.1402   -3.0849   -0.2432 C   0  0  2  0  0  0  0  0  0  0  0  0
    1.5098   -2.2171    0.8206 O   0  0  0  0  0  0  0  0  0  0  0  0
    2.0397   -0.9610    0.3985 C   0  0  2  0  0  0  0  0  0  0  0  0
    3.4412   -0.9319    0.6659 O   0  0  0  0  0  0  0  0  0  0  0  0
    4.0367    0.3073    0.2637 C   0  0  2  0  0  0  0  0  0  0  0  0
    5.5703    0.1763    0.4507 C   0  0  0  0  0  0  0  0  0  0  0  0
    6.5649    1.2046   -0.1926 C   0  0  1  0  0  0  0  0  0  0  0  0
    6.6564    1.0552   -1.5867 O   0  0  0  0  0  0  0  0  0  0  0  0
    6.4907    2.7016    0.2444 C   0  0  1  0  0  0  0  0  0  0  0  0
    7.7943    3.2115    0.4849 O   0  0  0  0  0  0  0  0  0  0  0  0
    7.7071    4.6303    0.3866 C   0  0  1  0  0  0  0  0  0  0  0  0
    8.8310    5.1664   -0.4268 N   0  0  0  0  0  0  0  0  0  0  0  0
    9.0872    4.6795   -1.6801 C   0  0  0  0  0  0  0  0  0  0  0  0
   10.1382    5.1750   -2.4486 C   0  0  0  0  0  0  0  0  0  0  0  0
   10.9377    6.1857   -1.9244 C   0  0  0  0  0  0  0  0  0  0  0  0
   11.8618    6.6326   -2.5817 O   0  0  0  0  0  0  0  0  0  0  0  0
   10.6852    6.6668   -0.6711 N   0  0  0  0  0  0  0  0  0  0  0  0
    9.6487    6.1712    0.0810 C   0  0  0  0  0  0  0  0  0  0  0  0
    9.4561    6.6345    1.1917 O   0  0  0  0  0  0  0  0  0  0  0  0
    6.3211    4.9895   -0.2028 C   0  0  2  0  0  0  0  0  0  0  0  0
    5.4018    5.3797    0.8005 O   0  0  0  0  0  0  0  0  0  0  0  0
    5.9094    3.6703   -0.8079 C   0  0  2  0  0  0  0  0  0  0  0  0
    4.5314    3.5614   -1.0331 O   0  0  0  0  0  0  0  0  0  0  0  0
    3.4319    1.4628    1.1174 C   0  0  2  0  0  0  0  0  0  0  0  0
    3.7456    1.3374    2.4878 O   0  0  0  0  0  0  0  0  0  0  0  0
    1.9125    1.4961    0.8916 C   0  0  2  0  0  0  0  0  0  0  0  0
    1.3049    2.5248    1.6342 O   0  0  0  0  0  0  0  0  0  0  0  0
    1.3149    0.1207    1.2217 C   0  0  1  0  0  0  0  0  0  0  0  0
   -0.1098    0.1084    0.9287 N   0  0  0  0  0  0  0  0  0  0  0  0
   -1.0571   -0.0977    1.8853 C   0  0  0  0  0  0  0  0  0  0  0  0
   -0.7346   -0.2834    3.0514 O   0  0  0  0  0  0  0  0  0  0  0  0
   -2.4892   -0.0775    1.5158 C   0  0  0  0  0  0  0  0  0  0  0  0
   -3.4612   -0.2000    2.4345 C   0  0  0  0  0  0  0  0  0  0  0  0
   -4.9139   -0.1502    2.0575 C   0  0  0  0  0  0  0  0  0  0  0  0
   -5.5759    1.0637    2.7252 C   0  0  0  0  0  0  0  0  0  0  0  0
   -7.0805    1.1810    2.4340 C   0  0  0  0  0  0  0  0  0  0  0  0
   -7.3872    1.3537    0.9390 C   0  0  0  0  0  0  0  0  0  0  0  0
   -8.8874    1.5689    0.7014 C   0  0  0  0  0  0  0  0  0  0  0  0
   -9.2371    1.7480   -0.7887 C   0  0  0  0  0  0  0  0  0  0  0  0
   -8.8849    0.5429   -1.6896 C   0  0  0  0  0  0  0  0  0  0  0  0
   -9.3983   -0.8560   -1.2683 C   0  0  0  0  0  0  0  0  0  0  0  0
  -10.9047   -1.1818   -1.4636 C   0  0  0  0  0  0  0  0  0  0  0  0
  -11.8551   -0.4021   -0.5444 C   0  0  0  0  0  0  0  0  0  0  0  0
  -11.1183   -2.6839   -1.2104 C   0  0  0  0  0  0  0  0  0  0  0  0
   -0.0664   -3.7538    0.1234 O   0  0  0  0  0  0  0  0  0  0  0  0
   -0.5697   -4.6209   -0.8984 C   0  0  1  0  0  0  0  0  0  0  0  0
   -1.3488   -3.8301   -1.9694 C   0  0  0  0  0  0  0  0  0  0  0  0
   -2.0567   -4.7039   -2.8106 O   0  0  0  0  0  0  0  0  0  0  0  0
    0.4903   -5.6515   -1.4182 C   0  0  2  0  0  0  0  0  0  0  0  0
    0.6115   -6.6786   -0.4661 O   0  0  0  0  0  0  0  0  0  0  0  0
    1.8838   -4.9910   -1.6485 C   0  0  1  0  0  0  0  0  0  0  0  0
    1.9415   -4.1864   -2.8081 O   0  0  0  0  0  0  0  0  0  0  0  0
    4.5084   -5.9158    3.2379 H   0  0  0  0  0  0  0  0  0  0  0  0
    3.2042   -6.9225    2.4960 H   0  0  0  0  0  0  0  0  0  0  0  0
    2.7726   -5.4675    3.4731 H   0  0  0  0  0  0  0  0  0  0  0  0
    1.5530   -5.3789    1.1683 H   0  0  0  0  0  0  0  0  0  0  0  0
    3.2186   -3.6052   -0.6711 H   0  0  0  0  0  0  0  0  0  0  0  0
    0.9569   -2.5234   -1.1853 H   0  0  0  0  0  0  0  0  0  0  0  0
    1.8676   -0.7460   -0.6833 H   0  0  0  0  0  0  0  0  0  0  0  0
    3.8434    0.4655   -0.8215 H   0  0  0  0  0  0  0  0  0  0  0  0
    5.8639   -0.8071    0.0192 H   0  0  0  0  0  0  0  0  0  0  0  0
    5.7808    0.1117    1.5394 H   0  0  0  0  0  0  0  0  0  0  0  0
    7.5318    0.8332    0.2134 H   0  0  0  0  0  0  0  0  0  0  0  0
    5.7459    1.1808   -1.9566 H   0  0  0  0  0  0  0  0  0  0  0  0
    5.9805    2.7361    1.2263 H   0  0  0  0  0  0  0  0  0  0  0  0
    7.7542    5.0624    1.4085 H   0  0  0  0  0  0  0  0  0  0  0  0
    8.4955    3.8869   -2.1065 H   0  0  0  0  0  0  0  0  0  0  0  0
   10.3270    4.7747   -3.4369 H   0  0  0  0  0  0  0  0  0  0  0  0
   11.2878    7.4262   -0.2787 H   0  0  0  0  0  0  0  0  0  0  0  0
    6.3600    5.8220   -0.9372 H   0  0  0  0  0  0  0  0  0  0  0  0
    5.5455    4.8550    1.6286 H   0  0  0  0  0  0  0  0  0  0  0  0
    6.4436    3.5196   -1.7651 H   0  0  0  0  0  0  0  0  0  0  0  0
    4.2896    4.2890   -1.6637 H   0  0  0  0  0  0  0  0  0  0  0  0
    3.8228    2.4313    0.8025 H   0  0  0  0  0  0  0  0  0  0  0  0
    3.6451    0.3903    2.7611 H   0  0  0  0  0  0  0  0  0  0  0  0
    1.7281    1.7067   -0.1866 H   0  0  0  0  0  0  0  0  0  0  0  0
    1.3768    2.2904    2.5958 H   0  0  0  0  0  0  0  0  0  0  0  0
    1.4964   -0.0944    2.2965 H   0  0  0  0  0  0  0  0  0  0  0  0
   -0.4077    0.2755   -0.0453 H   0  0  0  0  0  0  0  0  0  0  0  0
   -2.7506    0.0600    0.4699 H   0  0  0  0  0  0  0  0  0  0  0  0
   -3.2116   -0.3207    3.4852 H   0  0  0  0  0  0  0  0  0  0  0  0
   -5.4045   -1.0893    2.3907 H   0  0  0  0  0  0  0  0  0  0  0  0
   -5.0093   -0.0733    0.9549 H   0  0  0  0  0  0  0  0  0  0  0  0
   -5.0672    1.9927    2.3843 H   0  0  0  0  0  0  0  0  0  0  0  0
   -5.4470    0.9832    3.8273 H   0  0  0  0  0  0  0  0  0  0  0  0
   -7.4590    2.0710    2.9835 H   0  0  0  0  0  0  0  0  0  0  0  0
   -7.6067    0.2816    2.8223 H   0  0  0  0  0  0  0  0  0  0  0  0
   -7.0661    0.4404    0.4037 H   0  0  0  0  0  0  0  0  0  0  0  0
   -6.8282    2.2297    0.5428 H   0  0  0  0  0  0  0  0  0  0  0  0
   -9.2017    2.4890    1.2410 H   0  0  0  0  0  0  0  0  0  0  0  0
   -9.4647    0.7200    1.1234 H   0  0  0  0  0  0  0  0  0  0  0  0
   -8.6960    2.6371   -1.1801 H   0  0  0  0  0  0  0  0  0  0  0  0
  -10.3041    1.9986   -0.8716 H   0  0  0  0  0  0  0  0  0  0  0  0
   -7.7763    0.4766   -1.7105 H   0  0  0  0  0  0  0  0  0  0  0  0
   -9.2013    0.7550   -2.7334 H   0  0  0  0  0  0  0  0  0  0  0  0
   -9.0776   -1.0915   -0.2315 H   0  0  0  0  0  0  0  0  0  0  0  0
   -8.8505   -1.5616   -1.9327 H   0  0  0  0  0  0  0  0  0  0  0  0
  -11.1832   -0.9773   -2.5208 H   0  0  0  0  0  0  0  0  0  0  0  0
  -11.5857   -0.5510    0.5228 H   0  0  0  0  0  0  0  0  0  0  0  0
  -12.8984   -0.7521   -0.6980 H   0  0  0  0  0  0  0  0  0  0  0  0
  -11.8753    0.6692   -0.7834 H   0  0  0  0  0  0  0  0  0  0  0  0
  -10.8584   -2.9464   -0.1617 H   0  0  0  0  0  0  0  0  0  0  0  0
  -10.4872   -3.2890   -1.8957 H   0  0  0  0  0  0  0  0  0  0  0  0
  -12.1783   -2.9618   -1.3947 H   0  0  0  0  0  0  0  0  0  0  0  0
   -1.3648   -5.2395   -0.4245 H   0  0  0  0  0  0  0  0  0  0  0  0
   -0.7283   -3.1280   -2.5601 H   0  0  0  0  0  0  0  0  0  0  0  0
   -2.1009   -3.1983   -1.4484 H   0  0  0  0  0  0  0  0  0  0  0  0
   -1.4553   -4.9372   -3.5634 H   0  0  0  0  0  0  0  0  0  0  0  0
    0.1229   -6.1419   -2.3480 H   0  0  0  0  0  0  0  0  0  0  0  0
    1.1730   -7.3916   -0.8712 H   0  0  0  0  0  0  0  0  0  0  0  0
    2.6422   -5.7919   -1.7917 H   0  0  0  0  0  0  0  0  0  0  0  0
    1.0687   -4.1811   -3.2697 H   0  0  0  0  0  0  0  0  0  0  0  0
  1  2  1  0  0  0  0
  1 58  1  0  0  0  0
  1 59  1  0  0  0  0
  1 60  1  0  0  0  0
  2  3  2  0  0  0  0
  2  4  1  0  0  0  0
  4 61  1  0  0  0  0
  5  4  1  0  0  0  0
  5  6  1  0  0  0  0
  5 62  1  6  0  0  0
  6  7  1  0  0  0  0
  6 50  1  0  0  0  0
  6 63  1  6  0  0  0
  8  7  1  0  0  0  0
  8  9  1  0  0  0  0
  8 64  1  6  0  0  0
  9 10  1  0  0  0  0
 10 11  1  0  0  0  0
 10 29  1  0  0  0  0
 10 65  1  6  0  0  0
 11 12  1  0  0  0  0
 11 66  1  0  0  0  0
 11 67  1  0  0  0  0
 12 13  1  0  0  0  0
 12 14  1  0  0  0  0
 12 68  1  1  0  0  0
 13 69  1  0  0  0  0
 14 15  1  0  0  0  0
 14 70  1  1  0  0  0
 15 16  1  0  0  0  0
 16 17  1  0  0  0  0
 16 25  1  0  0  0  0
 16 71  1  1  0  0  0
 17 18  1  0  0  0  0
 18 19  2  0  0  0  0
 18 72  1  0  0  0  0
 19 20  1  0  0  0  0
 19 73  1  0  0  0  0
 20 21  2  0  0  0  0
 20 22  1  0  0  0  0
 22 23  1  0  0  0  0
 22 74  1  0  0  0  0
 23 24  2  0  0  0  0
 23 17  1  0  0  0  0
 25 26  1  0  0  0  0
 25 27  1  0  0  0  0
 25 75  1  6  0  0  0
 26 76  1  0  0  0  0
 27 28  1  0  0  0  0
 27 14  1  0  0  0  0
 27 77  1  6  0  0  0
 28 78  1  0  0  0  0
 29 30  1  0  0  0  0
 29 31  1  0  0  0  0
 29 79  1  6  0  0  0
 30 80  1  0  0  0  0
 31 32  1  0  0  0  0
 31 33  1  0  0  0  0
 31 81  1  6  0  0  0
 32 82  1  0  0  0  0
 33 34  1  0  0  0  0
 33  8  1  0  0  0  0
 33 83  1  1  0  0  0
 34 35  1  0  0  0  0
 34 84  1  0  0  0  0
 35 36  2  0  0  0  0
 35 37  1  0  0  0  0
 37 38  2  0  0  0  0
 37 85  1  0  0  0  0
 38 39  1  0  0  0  0
 38 86  1  0  0  0  0
 39 40  1  0  0  0  0
 39 87  1  0  0  0  0
 39 88  1  0  0  0  0
 40 41  1  0  0  0  0
 40 89  1  0  0  0  0
 40 90  1  0  0  0  0
 41 42  1  0  0  0  0
 41 91  1  0  0  0  0
 41 92  1  0  0  0  0
 42 43  1  0  0  0  0
 42 93  1  0  0  0  0
 42 94  1  0  0  0  0
 43 44  1  0  0  0  0
 43 95  1  0  0  0  0
 43 96  1  0  0  0  0
 44 45  1  0  0  0  0
 44 97  1  0  0  0  0
 44 98  1  0  0  0  0
 45 46  1  0  0  0  0
 45 99  1  0  0  0  0
 45100  1  0  0  0  0
 46 47  1  0  0  0  0
 46101  1  0  0  0  0
 46102  1  0  0  0  0
 47 48  1  0  0  0  0
 47 49  1  0  0  0  0
 47103  1  0  0  0  0
 48104  1  0  0  0  0
 48105  1  0  0  0  0
 48106  1  0  0  0  0
 49107  1  0  0  0  0
 49108  1  0  0  0  0
 49109  1  0  0  0  0
 50 51  1  0  0  0  0
 51 52  1  0  0  0  0
 51 54  1  0  0  0  0
 51110  1  1  0  0  0
 52 53  1  0  0  0  0
 52111  1  0  0  0  0
 52112  1  0  0  0  0
 53113  1  0  0  0  0
 54 55  1  0  0  0  0
 54 56  1  0  0  0  0
 54114  1  6  0  0  0
 55115  1  0  0  0  0
 56 57  1  0  0  0  0
 56  5  1  0  0  0  0
 56116  1  6  0  0  0
 57117  1  0  0  0  0
M  END
>  <IDENTIFIER>
CNP0352538.2

>  <Energy>
1042.41

$$$$
