
 OpenBabel09042516443D

 70 74  0  0  0  0  0  0  0  0999 V2000
   -3.6775    0.9229    0.9934 C   0  0  0  0  0  0  0  0  0  0  0  0
   -4.1022    0.3467   -0.3600 C   0  0  0  0  0  0  0  0  0  0  0  0
   -3.0537   -0.5421   -1.0732 C   0  0  2  0  0  0  0  0  0  0  0  0
   -2.7009   -1.8652   -0.2531 C   0  0  0  0  0  0  0  0  0  0  0  0
   -1.2811   -2.4261   -0.6227 C   0  0  2  0  0  0  0  0  0  0  0  0
   -1.0912   -2.3263   -2.1249 C   0  0  0  0  0  0  0  0  0  0  0  0
   -0.9544   -0.8077   -2.4546 C   0  0  0  0  0  0  0  0  0  0  0  0
   -1.7131    0.1371   -1.4450 C   0  0  1  0  0  0  0  0  0  0  0  0
   -1.5376    1.6354   -1.8527 C   0  0  0  0  0  0  0  0  0  0  0  0
   -0.7918    2.4296   -0.7511 C   0  0  0  0  0  0  0  0  0  0  0  0
   -1.2294    3.6766   -0.2275 C   0  0  0  0  0  0  0  0  0  0  0  0
   -2.3812    4.3442   -0.7052 C   0  0  0  0  0  0  0  0  0  0  0  0
   -2.7679    5.5738   -0.1674 C   0  0  0  0  0  0  0  0  0  0  0  0
   -2.0266    6.1608    0.8554 C   0  0  0  0  0  0  0  0  0  0  0  0
   -0.8904    5.5217    1.3484 C   0  0  0  0  0  0  0  0  0  0  0  0
   -0.4825    4.2876    0.8196 C   0  0  0  0  0  0  0  0  0  0  0  0
    0.6552    3.6583    1.3466 C   0  0  0  0  0  0  0  0  0  0  0  0
    1.0965    2.4265    0.8564 C   0  0  0  0  0  0  0  0  0  0  0  0
    0.3904    1.8476   -0.2072 C   0  0  0  0  0  0  0  0  0  0  0  0
    2.2953    1.7661    1.5469 C   0  0  0  0  0  0  0  0  0  0  0  0
    2.6923    0.3524    1.1123 C   0  0  0  0  0  0  0  0  0  0  0  0
    3.2053    0.0818   -0.1802 C   0  0  0  0  0  0  0  0  0  0  0  0
    3.3691    1.0628   -1.0969 O   0  0  0  0  0  0  0  0  0  0  0  0
    3.5864   -1.2232   -0.5331 C   0  0  0  0  0  0  0  0  0  0  0  0
    4.1080   -1.4230   -1.7733 O   0  0  0  0  0  0  0  0  0  0  0  0
    4.6603   -2.5973   -2.2419 C   0  0  0  0  0  0  0  0  0  0  0  0
    3.4466   -2.2717    0.3985 C   0  0  0  0  0  0  0  0  0  0  0  0
    2.9442   -2.0322    1.6849 C   0  0  0  0  0  0  0  0  0  0  0  0
    2.5940   -0.7163    2.0418 C   0  0  0  0  0  0  0  0  0  0  0  0
    2.8915   -3.1517    2.6763 C   0  0  0  0  0  0  0  0  0  0  0  0
    2.1459   -4.2938    2.6303 C   0  0  0  0  0  0  0  0  0  0  0  0
    1.0348   -4.6336    1.6837 C   0  0  0  0  0  0  0  0  0  0  0  0
    0.5177   -5.7390    1.7246 O   0  0  0  0  0  0  0  0  0  0  0  0
    0.4395   -3.5484    0.8553 C   0  0  0  0  0  0  0  0  0  0  0  0
   -0.8358   -3.7081    0.0463 C   0  0  0  0  0  0  0  0  0  0  0  0
   -1.4376   -4.7639   -0.0706 O   0  0  0  0  0  0  0  0  0  0  0  0
   -4.4962    1.5634    1.3846 H   0  0  0  0  0  0  0  0  0  0  0  0
   -2.7715    1.5481    0.8939 H   0  0  0  0  0  0  0  0  0  0  0  0
   -3.4919    0.1284    1.7409 H   0  0  0  0  0  0  0  0  0  0  0  0
   -4.3552    1.1969   -1.0288 H   0  0  0  0  0  0  0  0  0  0  0  0
   -5.0303   -0.2474   -0.2127 H   0  0  0  0  0  0  0  0  0  0  0  0
   -3.5165   -0.8298   -2.0447 H   0  0  0  0  0  0  0  0  0  0  0  0
   -3.5096   -2.6094   -0.4166 H   0  0  0  0  0  0  0  0  0  0  0  0
   -2.6419   -1.6668    0.8347 H   0  0  0  0  0  0  0  0  0  0  0  0
   -0.5235   -1.7219   -0.2318 H   0  0  0  0  0  0  0  0  0  0  0  0
   -1.9783   -2.7883   -2.6118 H   0  0  0  0  0  0  0  0  0  0  0  0
   -0.1787   -2.8446   -2.4918 H   0  0  0  0  0  0  0  0  0  0  0  0
   -1.2740   -0.6515   -3.5073 H   0  0  0  0  0  0  0  0  0  0  0  0
    0.1194   -0.5278   -2.3832 H   0  0  0  0  0  0  0  0  0  0  0  0
   -1.2536    0.1138   -0.4515 H   0  0  0  0  0  0  0  0  0  0  0  0
   -2.4887    2.0483   -2.2271 H   0  0  0  0  0  0  0  0  0  0  0  0
   -0.8508    1.6814   -2.7255 H   0  0  0  0  0  0  0  0  0  0  0  0
   -2.9960    3.9473   -1.4951 H   0  0  0  0  0  0  0  0  0  0  0  0
   -3.6496    6.0748   -0.5447 H   0  0  0  0  0  0  0  0  0  0  0  0
   -2.3322    7.1124    1.2683 H   0  0  0  0  0  0  0  0  0  0  0  0
   -0.3293    5.9943    2.1471 H   0  0  0  0  0  0  0  0  0  0  0  0
    1.1969    4.1241    2.1635 H   0  0  0  0  0  0  0  0  0  0  0  0
    0.7364    0.9027   -0.5919 H   0  0  0  0  0  0  0  0  0  0  0  0
    2.0341    1.7270    2.6269 H   0  0  0  0  0  0  0  0  0  0  0  0
    3.1811    2.4297    1.4532 H   0  0  0  0  0  0  0  0  0  0  0  0
    3.1648    1.9929   -0.9342 H   0  0  0  0  0  0  0  0  0  0  0  0
    5.0164   -2.4402   -3.2808 H   0  0  0  0  0  0  0  0  0  0  0  0
    3.9039   -3.4095   -2.2437 H   0  0  0  0  0  0  0  0  0  0  0  0
    5.5309   -2.8845   -1.6134 H   0  0  0  0  0  0  0  0  0  0  0  0
    3.7491   -3.2783    0.1405 H   0  0  0  0  0  0  0  0  0  0  0  0
    2.2315   -0.5295    3.0455 H   0  0  0  0  0  0  0  0  0  0  0  0
    3.5599   -3.0422    3.5254 H   0  0  0  0  0  0  0  0  0  0  0  0
    2.3206   -5.0187    3.4208 H   0  0  0  0  0  0  0  0  0  0  0  0
    1.1970   -3.2319    0.1231 H   0  0  0  0  0  0  0  0  0  0  0  0
    0.2319   -2.7288    1.5801 H   0  0  0  0  0  0  0  0  0  0  0  0
  1  2  1  0  0  0  0
  1 37  1  0  0  0  0
  1 38  1  0  0  0  0
  1 39  1  0  0  0  0
  2 40  1  0  0  0  0
  2 41  1  0  0  0  0
  3  2  1  0  0  0  0
  3  4  1  0  0  0  0
  3 42  1  6  0  0  0
  4 43  1  0  0  0  0
  4 44  1  0  0  0  0
  5  4  1  0  0  0  0
  5  6  1  0  0  0  0
  5 45  1  1  0  0  0
  6  7  1  0  0  0  0
  6 46  1  0  0  0  0
  6 47  1  0  0  0  0
  7 48  1  0  0  0  0
  7 49  1  0  0  0  0
  8  7  1  0  0  0  0
  8  9  1  0  0  0  0
  8  3  1  0  0  0  0
  8 50  1  1  0  0  0
  9 10  1  0  0  0  0
  9 51  1  0  0  0  0
  9 52  1  0  0  0  0
 10 11  1  0  0  0  0
 11 12  2  0  0  0  0
 12 13  1  0  0  0  0
 12 53  1  0  0  0  0
 13 14  2  0  0  0  0
 13 54  1  0  0  0  0
 14 15  1  0  0  0  0
 14 55  1  0  0  0  0
 15 16  2  0  0  0  0
 15 56  1  0  0  0  0
 16 17  1  0  0  0  0
 16 11  1  0  0  0  0
 17 18  2  0  0  0  0
 17 57  1  0  0  0  0
 18 19  1  0  0  0  0
 18 20  1  0  0  0  0
 19 10  2  0  0  0  0
 19 58  1  0  0  0  0
 20 21  1  0  0  0  0
 20 59  1  0  0  0  0
 20 60  1  0  0  0  0
 21 22  1  0  0  0  0
 22 23  1  0  0  0  0
 22 24  2  0  0  0  0
 23 61  1  0  0  0  0
 24 25  1  0  0  0  0
 24 27  1  0  0  0  0
 25 26  1  0  0  0  0
 26 62  1  0  0  0  0
 26 63  1  0  0  0  0
 26 64  1  0  0  0  0
 27 28  2  0  0  0  0
 27 65  1  0  0  0  0
 28 29  1  0  0  0  0
 28 30  1  0  0  0  0
 29 21  2  0  0  0  0
 29 66  1  0  0  0  0
 30 31  2  0  0  0  0
 30 67  1  0  0  0  0
 31 32  1  0  0  0  0
 31 68  1  0  0  0  0
 32 33  2  0  0  0  0
 32 34  1  0  0  0  0
 34 35  1  0  0  0  0
 34 69  1  0  0  0  0
 34 70  1  0  0  0  0
 35 36  2  0  0  0  0
 35  5  1  0  0  0  0
M  END
>  <IDENTIFIER>
CNP0088219.1

>  <Energy>
931.04

$$$$
