
 OpenBabel09122505263D

185193  0  0  0  0  0  0  0  0999 V2000
    6.3179    2.3585    5.0597 C   0  0  0  0  0  0  0  0  0  0  0  0
    5.1732    1.6100    4.4257 C   0  0  0  0  0  0  0  0  0  0  0  0
    3.8355    2.2933    4.2987 C   0  0  0  0  0  0  0  0  0  0  0  0
    5.3910    0.3463    3.9947 C   0  0  0  0  0  0  0  0  0  0  0  0
    4.3727   -0.5532    3.3238 C   0  0  0  0  0  0  0  0  0  0  0  0
    4.8750   -1.0928    1.9576 C   0  0  0  0  0  0  0  0  0  0  0  0
    5.1399   -0.0395    0.8107 C   0  0  1  0  0  0  0  0  0  0  0  0
    6.0812    0.9135    1.2549 O   0  0  0  0  0  0  0  0  0  0  0  0
    5.7137   -0.7673   -0.4473 C   0  0  0  0  0  0  0  0  0  0  0  0
    6.6982   -1.7439   -0.1256 O   0  0  0  0  0  0  0  0  0  0  0  0
    8.0241   -1.2440   -0.0559 C   0  0  2  0  0  0  0  0  0  0  0  0
    8.7097   -1.4955   -1.2676 O   0  0  0  0  0  0  0  0  0  0  0  0
    9.9728   -0.8079   -1.3061 C   0  0  2  0  0  0  0  0  0  0  0  0
   10.8777   -1.5066   -2.3374 C   0  0  0  0  0  0  0  0  0  0  0  0
   12.0578   -0.7441   -2.4971 O   0  0  0  0  0  0  0  0  0  0  0  0
   13.0787   -1.4882   -3.1389 C   0  0  2  0  0  0  0  0  0  0  0  0
   13.9426   -2.0818   -2.1639 O   0  0  0  0  0  0  0  0  0  0  0  0
   14.9989   -1.2476   -1.6562 C   0  0  2  0  0  0  0  0  0  0  0  0
   15.1515   -1.5649   -0.1587 C   0  0  0  0  0  0  0  0  0  0  0  0
   16.2311   -0.8763    0.4160 O   0  0  0  0  0  0  0  0  0  0  0  0
   14.7530    0.2696   -1.8915 C   0  0  1  0  0  0  0  0  0  0  0  0
   15.7585    1.0877   -1.3485 O   0  0  0  0  0  0  0  0  0  0  0  0
   14.5720    0.5709   -3.3979 C   0  0  2  0  0  0  0  0  0  0  0  0
   13.9120    1.8028   -3.5605 O   0  0  0  0  0  0  0  0  0  0  0  0
   13.8337   -0.5816   -4.1324 C   0  0  1  0  0  0  0  0  0  0  0  0
   14.7307   -1.3523   -4.9005 O   0  0  0  0  0  0  0  0  0  0  0  0
   10.6937   -0.7070    0.0946 C   0  0  1  0  0  0  0  0  0  0  0  0
   10.2875    0.4570    0.7694 O   0  0  0  0  0  0  0  0  0  0  0  0
   10.3085   -1.9267    0.9474 C   0  0  2  0  0  0  0  0  0  0  0  0
   10.8148   -3.1047    0.3558 O   0  0  0  0  0  0  0  0  0  0  0  0
    8.7528   -1.9739    1.1145 C   0  0  1  0  0  0  0  0  0  0  0  0
    8.3447   -1.4455    2.3506 O   0  0  0  0  0  0  0  0  0  0  0  0
    3.8386    0.7754    0.4603 C   0  0  1  0  0  0  0  0  0  0  0  0
    4.0578    2.0955   -0.3331 C   0  0  0  0  0  0  0  0  0  0  0  0
    2.7196    2.3823   -1.0729 C   0  0  0  0  0  0  0  0  0  0  0  0
    1.6621    1.4661   -0.4058 C   0  0  2  0  0  0  0  0  0  0  0  0
    1.2671    2.1692    0.9546 C   0  0  0  0  0  0  0  0  0  0  0  0
    2.5704    0.1955   -0.2229 C   0  0  2  0  0  0  0  0  0  0  0  0
    1.8161   -0.9477    0.4554 C   0  0  0  0  0  0  0  0  0  0  0  0
    0.5712   -1.3306   -0.3615 C   0  0  0  0  0  0  0  0  0  0  0  0
   -0.4053   -0.1320   -0.5211 C   0  0  2  0  0  0  0  0  0  0  0  0
   -1.8691   -0.5318   -1.0473 C   0  0  1  0  0  0  0  0  0  0  0  0
   -1.8243   -1.2115   -2.4542 C   0  0  0  0  0  0  0  0  0  0  0  0
   -2.5138   -1.5722   -0.0715 C   0  0  0  0  0  0  0  0  0  0  0  0
   -4.0088   -1.8335   -0.3553 C   0  0  0  0  0  0  0  0  0  0  0  0
   -4.8265   -0.5410   -0.2244 C   0  0  2  0  0  0  0  0  0  0  0  0
   -6.1982   -0.8070   -0.5265 O   0  0  0  0  0  0  0  0  0  0  0  0
   -6.9787   -1.1329    0.6137 C   0  0  2  0  0  0  0  0  0  0  0  0
   -6.8600   -2.5120    0.9063 O   0  0  0  0  0  0  0  0  0  0  0  0
   -7.4019   -3.3677   -0.1069 C   0  0  0  0  0  0  0  0  0  0  0  0
   -8.6255   -2.8033   -0.8881 C   0  0  2  0  0  0  0  0  0  0  0  0
   -8.2536   -2.0352   -2.0111 O   0  0  0  0  0  0  0  0  0  0  0  0
   -9.3801   -1.9075    0.1024 C   0  0  2  0  0  0  0  0  0  0  0  0
  -10.6179   -1.4481   -0.4188 O   0  0  0  0  0  0  0  0  0  0  0  0
  -11.6628   -2.4109   -0.2914 C   0  0  2  0  0  0  0  0  0  0  0  0
  -12.1915   -2.7449   -1.5724 O   0  0  0  0  0  0  0  0  0  0  0  0
  -12.9227   -1.6910   -2.2013 C   0  0  2  0  0  0  0  0  0  0  0  0
  -12.0007   -0.6192   -2.8277 C   0  0  0  0  0  0  0  0  0  0  0  0
  -12.7495    0.2905   -3.5893 O   0  0  0  0  0  0  0  0  0  0  0  0
  -14.0638   -1.1328   -1.2923 C   0  0  1  0  0  0  0  0  0  0  0  0
  -15.1089   -2.0715   -1.1350 O   0  0  0  0  0  0  0  0  0  0  0  0
  -13.5203   -0.7279    0.0898 C   0  0  2  0  0  0  0  0  0  0  0  0
  -12.6738    0.3825   -0.0349 O   0  0  0  0  0  0  0  0  0  0  0  0
  -12.7649   -1.9196    0.7002 C   0  0  1  0  0  0  0  0  0  0  0  0
  -13.7045   -2.9315    0.9984 O   0  0  0  0  0  0  0  0  0  0  0  0
   -8.4666   -0.6953    0.3921 C   0  0  1  0  0  0  0  0  0  0  0  0
   -8.9800   -0.0014    1.5117 O   0  0  0  0  0  0  0  0  0  0  0  0
   -8.6287    1.3765    1.4825 C   0  0  2  0  0  0  0  0  0  0  0  0
   -7.7301    1.6720    2.5587 O   0  0  0  0  0  0  0  0  0  0  0  0
   -8.4073    2.1783    3.6875 C   0  0  1  0  0  0  0  0  0  0  0  0
   -7.4438    2.2517    4.8671 C   0  0  0  0  0  0  0  0  0  0  0  0
   -9.0348    3.5763    3.3848 C   0  0  2  0  0  0  0  0  0  0  0  0
  -10.0389    3.8449    4.3335 O   0  0  0  0  0  0  0  0  0  0  0  0
   -9.5928    3.6571    1.9303 C   0  0  1  0  0  0  0  0  0  0  0  0
   -8.6691    4.2582    1.0468 O   0  0  0  0  0  0  0  0  0  0  0  0
   -9.9283    2.2357    1.4552 C   0  0  1  0  0  0  0  0  0  0  0  0
  -10.5310    2.2237    0.1867 O   0  0  0  0  0  0  0  0  0  0  0  0
   -4.3112    0.6157   -1.1510 C   0  0  0  0  0  0  0  0  0  0  0  0
   -4.7330    0.3986   -2.6259 C   0  0  0  0  0  0  0  0  0  0  0  0
   -5.0365    1.9087   -0.6737 C   0  0  0  0  0  0  0  0  0  0  0  0
   -2.7450    0.7854   -0.9625 C   0  0  2  0  0  0  0  0  0  0  0  0
   -2.0996    1.9173   -1.8208 C   0  0  0  0  0  0  0  0  0  0  0  0
   -0.7048    2.2826   -1.2740 C   0  0  0  0  0  0  0  0  0  0  0  0
    0.3183    1.0988   -1.2463 C   0  0  1  0  0  0  0  0  0  0  0  0
    0.7164    0.8024   -2.7282 C   0  0  0  0  0  0  0  0  0  0  0  0
    6.0216    3.3824    5.3695 H   0  0  0  0  0  0  0  0  0  0  0  0
    7.1521    2.4486    4.3315 H   0  0  0  0  0  0  0  0  0  0  0  0
    6.6745    1.8125    5.9580 H   0  0  0  0  0  0  0  0  0  0  0  0
    3.8534    3.3166    4.7276 H   0  0  0  0  0  0  0  0  0  0  0  0
    3.0561    1.7113    4.8333 H   0  0  0  0  0  0  0  0  0  0  0  0
    3.5688    2.3933    3.2356 H   0  0  0  0  0  0  0  0  0  0  0  0
    6.3806   -0.0808    4.1393 H   0  0  0  0  0  0  0  0  0  0  0  0
    3.3774   -0.0802    3.2274 H   0  0  0  0  0  0  0  0  0  0  0  0
    4.2326   -1.4294    3.9921 H   0  0  0  0  0  0  0  0  0  0  0  0
    4.1770   -1.8679    1.6150 H   0  0  0  0  0  0  0  0  0  0  0  0
    5.8149   -1.6415    2.1715 H   0  0  0  0  0  0  0  0  0  0  0  0
    6.7846    0.4661    1.7823 H   0  0  0  0  0  0  0  0  0  0  0  0
    6.0598   -0.0561   -1.2308 H   0  0  0  0  0  0  0  0  0  0  0  0
    4.8873   -1.3402   -0.9151 H   0  0  0  0  0  0  0  0  0  0  0  0
    8.0341   -0.1458    0.1144 H   0  0  0  0  0  0  0  0  0  0  0  0
    9.8229    0.2179   -1.7117 H   0  0  0  0  0  0  0  0  0  0  0  0
   10.3398   -1.5443   -3.3103 H   0  0  0  0  0  0  0  0  0  0  0  0
   11.1012   -2.5439   -2.0133 H   0  0  0  0  0  0  0  0  0  0  0  0
   12.6565   -2.3071   -3.7712 H   0  0  0  0  0  0  0  0  0  0  0  0
   15.9485   -1.5398   -2.1528 H   0  0  0  0  0  0  0  0  0  0  0  0
   15.2929   -2.6601   -0.0118 H   0  0  0  0  0  0  0  0  0  0  0  0
   14.2228   -1.2876    0.3856 H   0  0  0  0  0  0  0  0  0  0  0  0
   17.0561   -1.3308    0.1033 H   0  0  0  0  0  0  0  0  0  0  0  0
   13.8086    0.5069   -1.3562 H   0  0  0  0  0  0  0  0  0  0  0  0
   16.6186    0.8113   -1.7605 H   0  0  0  0  0  0  0  0  0  0  0  0
   15.5642    0.6705   -3.8908 H   0  0  0  0  0  0  0  0  0  0  0  0
   12.9840    1.6940   -3.2242 H   0  0  0  0  0  0  0  0  0  0  0  0
   13.1183   -0.1467   -4.8651 H   0  0  0  0  0  0  0  0  0  0  0  0
   15.4183   -1.7389   -4.3030 H   0  0  0  0  0  0  0  0  0  0  0  0
   11.8018   -0.6581   -0.0110 H   0  0  0  0  0  0  0  0  0  0  0  0
   10.7365    1.2203    0.3215 H   0  0  0  0  0  0  0  0  0  0  0  0
   10.7720   -1.8808    1.9565 H   0  0  0  0  0  0  0  0  0  0  0  0
   10.1286   -3.5047   -0.2387 H   0  0  0  0  0  0  0  0  0  0  0  0
    8.4676   -3.0479    1.1365 H   0  0  0  0  0  0  0  0  0  0  0  0
    8.7701   -0.5582    2.4634 H   0  0  0  0  0  0  0  0  0  0  0  0
    3.5069    1.0924    1.4437 H   0  0  0  0  0  0  0  0  0  0  0  0
    4.8673    2.0261   -1.0925 H   0  0  0  0  0  0  0  0  0  0  0  0
    4.3260    2.8987    0.3876 H   0  0  0  0  0  0  0  0  0  0  0  0
    2.9215    2.0002   -2.0921 H   0  0  0  0  0  0  0  0  0  0  0  0
    2.4600    3.4559   -1.1905 H   0  0  0  0  0  0  0  0  0  0  0  0
    2.1049    2.5305    1.5636 H   0  0  0  0  0  0  0  0  0  0  0  0
    0.6385    1.5421    1.6121 H   0  0  0  0  0  0  0  0  0  0  0  0
    0.7652    3.1370    0.7733 H   0  0  0  0  0  0  0  0  0  0  0  0
    2.8850   -0.1856   -1.2199 H   0  0  0  0  0  0  0  0  0  0  0  0
    1.5230   -0.6603    1.4866 H   0  0  0  0  0  0  0  0  0  0  0  0
    2.4441   -1.8531    0.4927 H   0  0  0  0  0  0  0  0  0  0  0  0
    0.0978   -2.1617    0.1930 H   0  0  0  0  0  0  0  0  0  0  0  0
    0.8792   -1.7202   -1.3527 H   0  0  0  0  0  0  0  0  0  0  0  0
   -0.6058    0.1989    0.5170 H   0  0  0  0  0  0  0  0  0  0  0  0
   -1.0533   -2.0062   -2.4846 H   0  0  0  0  0  0  0  0  0  0  0  0
   -1.6965   -0.5315   -3.2956 H   0  0  0  0  0  0  0  0  0  0  0  0
   -2.7372   -1.7445   -2.7305 H   0  0  0  0  0  0  0  0  0  0  0  0
   -2.4332   -1.2012    0.9748 H   0  0  0  0  0  0  0  0  0  0  0  0
   -1.9907   -2.5489   -0.1245 H   0  0  0  0  0  0  0  0  0  0  0  0
   -4.3713   -2.5718    0.3908 H   0  0  0  0  0  0  0  0  0  0  0  0
   -4.1839   -2.2928   -1.3441 H   0  0  0  0  0  0  0  0  0  0  0  0
   -4.6712   -0.1945    0.8254 H   0  0  0  0  0  0  0  0  0  0  0  0
   -6.6317   -0.5585    1.5013 H   0  0  0  0  0  0  0  0  0  0  0  0
   -7.7941   -4.2425    0.4560 H   0  0  0  0  0  0  0  0  0  0  0  0
   -6.6138   -3.7667   -0.7812 H   0  0  0  0  0  0  0  0  0  0  0  0
   -9.2454   -3.6542   -1.2447 H   0  0  0  0  0  0  0  0  0  0  0  0
   -7.4746   -2.4679   -2.4439 H   0  0  0  0  0  0  0  0  0  0  0  0
   -9.5295   -2.4572    1.0643 H   0  0  0  0  0  0  0  0  0  0  0  0
  -11.2788   -3.3646    0.1347 H   0  0  0  0  0  0  0  0  0  0  0  0
  -13.4360   -2.1457   -3.0790 H   0  0  0  0  0  0  0  0  0  0  0  0
  -11.2411   -1.1149   -3.4730 H   0  0  0  0  0  0  0  0  0  0  0  0
  -11.4356   -0.0365   -2.0820 H   0  0  0  0  0  0  0  0  0  0  0  0
  -12.9499   -0.1565   -4.4529 H   0  0  0  0  0  0  0  0  0  0  0  0
  -14.5276   -0.2528   -1.7879 H   0  0  0  0  0  0  0  0  0  0  0  0
  -14.7566   -2.9917   -1.2515 H   0  0  0  0  0  0  0  0  0  0  0  0
  -14.3840   -0.4383    0.7354 H   0  0  0  0  0  0  0  0  0  0  0  0
  -12.6261    0.8036    0.8629 H   0  0  0  0  0  0  0  0  0  0  0  0
  -12.2908   -1.6171    1.6598 H   0  0  0  0  0  0  0  0  0  0  0  0
  -13.2884   -3.8236    0.8911 H   0  0  0  0  0  0  0  0  0  0  0  0
   -8.5092   -0.0603   -0.5270 H   0  0  0  0  0  0  0  0  0  0  0  0
   -8.0525    1.6822    0.5796 H   0  0  0  0  0  0  0  0  0  0  0  0
   -9.2030    1.4462    3.9639 H   0  0  0  0  0  0  0  0  0  0  0  0
   -6.6099    2.9501    4.6367 H   0  0  0  0  0  0  0  0  0  0  0  0
   -7.0153    1.2457    5.0653 H   0  0  0  0  0  0  0  0  0  0  0  0
   -7.9723    2.6022    5.7778 H   0  0  0  0  0  0  0  0  0  0  0  0
   -8.2809    4.3882    3.4761 H   0  0  0  0  0  0  0  0  0  0  0  0
  -10.7756    3.1964    4.1853 H   0  0  0  0  0  0  0  0  0  0  0  0
  -10.4935    4.3090    1.9265 H   0  0  0  0  0  0  0  0  0  0  0  0
   -7.7562    3.9304    1.2549 H   0  0  0  0  0  0  0  0  0  0  0  0
  -10.6609    1.8177    2.1804 H   0  0  0  0  0  0  0  0  0  0  0  0
   -9.8899    2.6119   -0.4640 H   0  0  0  0  0  0  0  0  0  0  0  0
   -5.8412    0.3704   -2.7110 H   0  0  0  0  0  0  0  0  0  0  0  0
   -4.3771   -0.5380   -3.0634 H   0  0  0  0  0  0  0  0  0  0  0  0
   -4.3861    1.2420   -3.2580 H   0  0  0  0  0  0  0  0  0  0  0  0
   -6.1374    1.7895   -0.7360 H   0  0  0  0  0  0  0  0  0  0  0  0
   -4.7856    2.7953   -1.2847 H   0  0  0  0  0  0  0  0  0  0  0  0
   -4.7858    2.1379    0.3872 H   0  0  0  0  0  0  0  0  0  0  0  0
   -2.6633    1.1183    0.0998 H   0  0  0  0  0  0  0  0  0  0  0  0
   -2.6940    2.8474   -1.7453 H   0  0  0  0  0  0  0  0  0  0  0  0
   -2.0667    1.6497   -2.8928 H   0  0  0  0  0  0  0  0  0  0  0  0
   -0.9386    2.6242   -0.2503 H   0  0  0  0  0  0  0  0  0  0  0  0
   -0.2808    3.1481   -1.8286 H   0  0  0  0  0  0  0  0  0  0  0  0
   -0.1138    0.6480   -3.4084 H   0  0  0  0  0  0  0  0  0  0  0  0
    1.4034   -0.0563   -2.8346 H   0  0  0  0  0  0  0  0  0  0  0  0
    1.1800    1.6919   -3.1956 H   0  0  0  0  0  0  0  0  0  0  0  0
  1  2  1  0  0  0  0
  1 86  1  0  0  0  0
  1 87  1  0  0  0  0
  1 88  1  0  0  0  0
  2  3  1  0  0  0  0
  2  4  2  0  0  0  0
  3 89  1  0  0  0  0
  3 90  1  0  0  0  0
  3 91  1  0  0  0  0
  4  5  1  0  0  0  0
  4 92  1  0  0  0  0
  5  6  1  0  0  0  0
  5 93  1  0  0  0  0
  5 94  1  0  0  0  0
  6  7  1  0  0  0  0
  6 95  1  0  0  0  0
  6 96  1  0  0  0  0
  7  8  1  1  0  0  0
  7  9  1  0  0  0  0
  7 33  1  0  0  0  0
  8 97  1  0  0  0  0
  9 10  1  0  0  0  0
  9 98  1  0  0  0  0
  9 99  1  0  0  0  0
 11 10  1  0  0  0  0
 11 12  1  0  0  0  0
 11100  1  1  0  0  0
 12 13  1  0  0  0  0
 13 14  1  0  0  0  0
 13 27  1  0  0  0  0
 13101  1  6  0  0  0
 14 15  1  0  0  0  0
 14102  1  0  0  0  0
 14103  1  0  0  0  0
 16 15  1  0  0  0  0
 16 17  1  0  0  0  0
 16104  1  6  0  0  0
 17 18  1  0  0  0  0
 18 19  1  0  0  0  0
 18 21  1  0  0  0  0
 18105  1  6  0  0  0
 19 20  1  0  0  0  0
 19106  1  0  0  0  0
 19107  1  0  0  0  0
 20108  1  0  0  0  0
 21 22  1  0  0  0  0
 21 23  1  0  0  0  0
 21109  1  1  0  0  0
 22110  1  0  0  0  0
 23 24  1  0  0  0  0
 23 25  1  0  0  0  0
 23111  1  6  0  0  0
 24112  1  0  0  0  0
 25 26  1  0  0  0  0
 25 16  1  0  0  0  0
 25113  1  6  0  0  0
 26114  1  0  0  0  0
 27 28  1  0  0  0  0
 27 29  1  0  0  0  0
 27115  1  6  0  0  0
 28116  1  0  0  0  0
 29 30  1  0  0  0  0
 29 31  1  0  0  0  0
 29117  1  1  0  0  0
 30118  1  0  0  0  0
 31 32  1  0  0  0  0
 31 11  1  0  0  0  0
 31119  1  6  0  0  0
 32120  1  0  0  0  0
 33 34  1  0  0  0  0
 33121  1  1  0  0  0
 34 35  1  0  0  0  0
 34122  1  0  0  0  0
 34123  1  0  0  0  0
 35 36  1  0  0  0  0
 35124  1  0  0  0  0
 35125  1  0  0  0  0
 36 37  1  1  0  0  0
 36 38  1  0  0  0  0
 37126  1  0  0  0  0
 37127  1  0  0  0  0
 37128  1  0  0  0  0
 38 39  1  0  0  0  0
 38 33  1  0  0  0  0
 38129  1  6  0  0  0
 39 40  1  0  0  0  0
 39130  1  0  0  0  0
 39131  1  0  0  0  0
 40132  1  0  0  0  0
 40133  1  0  0  0  0
 41 40  1  0  0  0  0
 41 42  1  0  0  0  0
 41134  1  1  0  0  0
 42 43  1  6  0  0  0
 42 44  1  0  0  0  0
 43135  1  0  0  0  0
 43136  1  0  0  0  0
 43137  1  0  0  0  0
 44 45  1  0  0  0  0
 44138  1  0  0  0  0
 44139  1  0  0  0  0
 45 46  1  0  0  0  0
 45140  1  0  0  0  0
 45141  1  0  0  0  0
 46 47  1  0  0  0  0
 46 78  1  0  0  0  0
 46142  1  1  0  0  0
 48 47  1  0  0  0  0
 48 49  1  0  0  0  0
 48143  1  1  0  0  0
 49 50  1  0  0  0  0
 50 51  1  0  0  0  0
 50144  1  0  0  0  0
 50145  1  0  0  0  0
 51 52  1  0  0  0  0
 51 53  1  0  0  0  0
 51146  1  6  0  0  0
 52147  1  0  0  0  0
 53 54  1  0  0  0  0
 53 66  1  0  0  0  0
 53148  1  1  0  0  0
 55 54  1  0  0  0  0
 55 56  1  0  0  0  0
 55149  1  1  0  0  0
 56 57  1  0  0  0  0
 57 58  1  0  0  0  0
 57 60  1  0  0  0  0
 57150  1  6  0  0  0
 58 59  1  0  0  0  0
 58151  1  0  0  0  0
 58152  1  0  0  0  0
 59153  1  0  0  0  0
 60 61  1  0  0  0  0
 60 62  1  0  0  0  0
 60154  1  6  0  0  0
 61155  1  0  0  0  0
 62 63  1  0  0  0  0
 62 64  1  0  0  0  0
 62156  1  1  0  0  0
 63157  1  0  0  0  0
 64 65  1  0  0  0  0
 64 55  1  0  0  0  0
 64158  1  1  0  0  0
 65159  1  0  0  0  0
 66 67  1  0  0  0  0
 66 48  1  0  0  0  0
 66160  1  6  0  0  0
 68 67  1  0  0  0  0
 68 69  1  0  0  0  0
 68161  1  6  0  0  0
 69 70  1  0  0  0  0
 70 71  1  0  0  0  0
 70 72  1  0  0  0  0
 70162  1  1  0  0  0
 71163  1  0  0  0  0
 71164  1  0  0  0  0
 71165  1  0  0  0  0
 72 73  1  0  0  0  0
 72 74  1  0  0  0  0
 72166  1  1  0  0  0
 73167  1  0  0  0  0
 74 75  1  0  0  0  0
 74 76  1  0  0  0  0
 74168  1  1  0  0  0
 75169  1  0  0  0  0
 76 77  1  0  0  0  0
 76 68  1  0  0  0  0
 76170  1  1  0  0  0
 77171  1  0  0  0  0
 78 79  1  0  0  0  0
 78 80  1  0  0  0  0
 78 81  1  0  0  0  0
 79172  1  0  0  0  0
 79173  1  0  0  0  0
 79174  1  0  0  0  0
 80175  1  0  0  0  0
 80176  1  0  0  0  0
 80177  1  0  0  0  0
 81 82  1  0  0  0  0
 81 42  1  0  0  0  0
 81178  1  1  0  0  0
 82 83  1  0  0  0  0
 82179  1  0  0  0  0
 82180  1  0  0  0  0
 83 84  1  0  0  0  0
 83181  1  0  0  0  0
 83182  1  0  0  0  0
 84 85  1  6  0  0  0
 84 41  1  0  0  0  0
 84 36  1  0  0  0  0
 85183  1  0  0  0  0
 85184  1  0  0  0  0
 85185  1  0  0  0  0
M  END
>  <IDENTIFIER>
CNP0252611.1

>  <Energy>
2487.09

$$$$
