
 OpenBabel09102522023D

 15 16  0  0  0  0  0  0  0  0999 V2000
    1.4353   -1.7105    2.4790 N   0  0  0  0  0  0  0  0  0  0  0  0
    1.0240   -1.7323    1.3044 N   0  0  0  0  0  0  0  0  0  0  0  0
    0.4679   -0.5774    0.7073 C   0  0  0  0  0  0  0  0  0  0  0  0
    0.2944    0.6948    1.2774 C   0  0  0  0  0  0  0  0  0  0  0  0
   -0.2803    1.5286    0.3663 N   0  0  0  0  0  0  0  0  0  0  0  0
   -0.4452    0.7662   -0.7247 C   0  0  0  0  0  0  0  0  0  0  0  0
   -0.9433    0.9136   -1.9901 C   0  0  0  0  0  0  0  0  0  0  0  0
   -0.8060   -0.2682   -2.5873 O   0  0  0  0  0  0  0  0  0  0  0  0
   -0.2455   -1.1377   -1.7464 C   0  0  0  0  0  0  0  0  0  0  0  0
   -0.0204   -0.4725   -0.5676 C   0  0  0  0  0  0  0  0  0  0  0  0
    1.8371   -2.5599    2.8994 H   0  0  0  0  0  0  0  0  0  0  0  0
    0.5675    0.9883    2.2826 H   0  0  0  0  0  0  0  0  0  0  0  0
   -0.5348    2.5334    0.4898 H   0  0  0  0  0  0  0  0  0  0  0  0
   -1.3681    1.8028   -2.4361 H   0  0  0  0  0  0  0  0  0  0  0  0
   -0.0185   -2.1713   -1.9703 H   0  0  0  0  0  0  0  0  0  0  0  0
  1  2  2  0  0  0  0
  1 11  1  0  0  0  0
  2  3  1  0  0  0  0
  3  4  2  0  0  0  0
  4  5  1  0  0  0  0
  4 12  1  0  0  0  0
  5  6  1  0  0  0  0
  5 13  1  0  0  0  0
  6  7  2  0  0  0  0
  7  8  1  0  0  0  0
  7 14  1  0  0  0  0
  8  9  1  0  0  0  0
  9 10  2  0  0  0  0
  9 15  1  0  0  0  0
 10  3  1  0  0  0  0
 10  6  1  0  0  0  0
M  END
>  <IDENTIFIER>
CNP0000314.0

>  <Energy>
431.973

$$$$
