
 OpenBabel09072503063D

102108  0  0  0  0  0  0  0  0999 V2000
   -4.7061   -1.5784    3.2000 C   0  0  0  0  0  0  0  0  0  0  0  0
   -3.6285   -0.5440    2.8658 C   0  0  0  0  0  0  0  0  0  0  0  0
   -4.2237    0.7465    2.3265 C   0  0  0  0  0  0  0  0  0  0  0  0
   -5.0744    1.4460    3.1940 C   0  0  0  0  0  0  0  0  0  0  0  0
   -5.6882    2.6227    2.8094 C   0  0  0  0  0  0  0  0  0  0  0  0
   -5.4729    3.1503    1.5397 C   0  0  0  0  0  0  0  0  0  0  0  0
   -6.1300    4.3397    1.1851 C   0  0  0  0  0  0  0  0  0  0  0  0
   -5.9476    4.8973   -0.0745 C   0  0  0  0  0  0  0  0  0  0  0  0
   -5.1083    4.2768   -0.9911 C   0  0  0  0  0  0  0  0  0  0  0  0
   -4.4438    3.0938   -0.6581 C   0  0  0  0  0  0  0  0  0  0  0  0
   -4.6051    2.4920    0.6199 C   0  0  0  0  0  0  0  0  0  0  0  0
   -3.9564    1.2658    1.0143 C   0  0  0  0  0  0  0  0  0  0  0  0
   -3.0085    0.4993    0.0668 C   0  0  1  0  0  0  0  0  0  0  0  0
   -1.6120    0.4646    0.6065 C   0  0  0  0  0  0  0  0  0  0  0  0
   -0.6848   -0.3371    0.0796 C   0  0  0  0  0  0  0  0  0  0  0  0
   -0.9857   -1.3626   -1.0148 C   0  0  1  0  0  0  0  0  0  0  0  0
    0.0256   -2.5909   -0.9178 C   0  0  2  0  0  0  0  0  0  0  0  0
    0.2070   -3.1816    0.5152 C   0  0  0  0  0  0  0  0  0  0  0  0
   -1.0213   -3.8510    1.0692 C   0  0  0  0  0  0  0  0  0  0  0  0
   -1.6638   -3.4858    2.1678 C   0  0  0  0  0  0  0  0  0  0  0  0
   -2.7418   -4.3492    2.4221 N   0  0  0  0  0  0  0  0  0  0  0  0
   -2.7725   -5.2496    1.5161 C   0  0  0  0  0  0  0  0  0  0  0  0
   -1.6752   -5.0829    0.5196 C   0  0  0  0  0  0  0  0  0  0  0  0
    1.4010   -2.2899   -1.6132 C   0  0  2  0  0  0  0  0  0  0  0  0
    2.1816   -3.4647   -1.6509 O   0  0  0  0  0  0  0  0  0  0  0  0
    2.2267   -1.0880   -1.0857 C   0  0  0  0  0  0  0  0  0  0  0  0
    3.5043   -0.8493   -1.8733 C   0  0  0  0  0  0  0  0  0  0  0  0
    3.7924   -1.5959   -2.7968 O   0  0  0  0  0  0  0  0  0  0  0  0
    4.3556    0.3827   -1.5965 C   0  0  2  0  0  0  0  0  0  0  0  0
    5.5733    0.5195   -2.5599 C   0  0  0  0  0  0  0  0  0  0  0  0
    6.7329   -0.4209   -2.2818 C   0  0  0  0  0  0  0  0  0  0  0  0
    7.9571   -0.0226   -1.9561 C   0  0  0  0  0  0  0  0  0  0  0  0
    8.8263   -1.2200   -1.7639 C   0  0  0  0  0  0  0  0  0  0  0  0
    7.9283   -2.3156   -2.0320 N   0  0  0  0  0  0  0  0  0  0  0  0
    6.7634   -1.8799   -2.3218 C   0  0  0  0  0  0  0  0  0  0  0  0
    4.7870    0.4756   -0.1082 C   0  0  0  0  0  0  0  0  0  0  0  0
    5.4632    1.7901    0.2092 C   0  0  0  0  0  0  0  0  0  0  0  0
    6.7934    1.8216    0.6523 C   0  0  0  0  0  0  0  0  0  0  0  0
    7.4130    3.0400    0.9354 C   0  0  0  0  0  0  0  0  0  0  0  0
    6.7107    4.2449    0.7853 C   0  0  0  0  0  0  0  0  0  0  0  0
    7.3107    5.4225    1.0578 O   0  0  0  0  0  0  0  0  0  0  0  0
    5.3762    4.2316    0.3532 C   0  0  0  0  0  0  0  0  0  0  0  0
    4.7230    5.4178    0.2249 O   0  0  0  0  0  0  0  0  0  0  0  0
    3.4128    5.5780   -0.1778 C   0  0  0  0  0  0  0  0  0  0  0  0
    4.7581    2.9977    0.0668 C   0  0  0  0  0  0  0  0  0  0  0  0
   -2.4924   -1.7161   -1.0539 C   0  0  0  0  0  0  0  0  0  0  0  0
   -2.9363   -2.8480   -1.7602 C   0  0  0  0  0  0  0  0  0  0  0  0
   -4.2790   -3.1861   -1.8186 C   0  0  0  0  0  0  0  0  0  0  0  0
   -5.2446   -2.3884   -1.2118 C   0  0  0  0  0  0  0  0  0  0  0  0
   -6.5409   -2.7509   -1.3079 O   0  0  0  0  0  0  0  0  0  0  0  0
   -4.8597   -1.1995   -0.5466 C   0  0  0  0  0  0  0  0  0  0  0  0
   -5.7741   -0.3453   -0.0077 O   0  0  0  0  0  0  0  0  0  0  0  0
   -7.1475   -0.4526    0.0314 C   0  0  0  0  0  0  0  0  0  0  0  0
   -3.4742   -0.8592   -0.4658 C   0  0  0  0  0  0  0  0  0  0  0  0
   -4.2284   -2.4905    3.6110 H   0  0  0  0  0  0  0  0  0  0  0  0
   -5.2715   -1.8544    2.2860 H   0  0  0  0  0  0  0  0  0  0  0  0
   -5.4148   -1.1999    3.9638 H   0  0  0  0  0  0  0  0  0  0  0  0
   -2.9467   -1.0241    2.1503 H   0  0  0  0  0  0  0  0  0  0  0  0
   -3.0421   -0.3145    3.7815 H   0  0  0  0  0  0  0  0  0  0  0  0
   -5.2722    1.0740    4.1915 H   0  0  0  0  0  0  0  0  0  0  0  0
   -6.3440    3.1223    3.5134 H   0  0  0  0  0  0  0  0  0  0  0  0
   -6.7909    4.8379    1.8852 H   0  0  0  0  0  0  0  0  0  0  0  0
   -6.4603    5.8126   -0.3414 H   0  0  0  0  0  0  0  0  0  0  0  0
   -4.9714    4.7146   -1.9720 H   0  0  0  0  0  0  0  0  0  0  0  0
   -3.8244    2.6933   -1.4375 H   0  0  0  0  0  0  0  0  0  0  0  0
   -2.8460    1.0279   -0.8800 H   0  0  0  0  0  0  0  0  0  0  0  0
   -1.3409    1.1035    1.4437 H   0  0  0  0  0  0  0  0  0  0  0  0
    0.2872   -0.2997    0.5521 H   0  0  0  0  0  0  0  0  0  0  0  0
   -0.8148   -0.8949   -2.0084 H   0  0  0  0  0  0  0  0  0  0  0  0
   -0.3355   -3.4193   -1.5492 H   0  0  0  0  0  0  0  0  0  0  0  0
    0.5715   -2.4014    1.2126 H   0  0  0  0  0  0  0  0  0  0  0  0
    0.9765   -3.9786    0.5059 H   0  0  0  0  0  0  0  0  0  0  0  0
   -1.3980   -2.6483    2.7981 H   0  0  0  0  0  0  0  0  0  0  0  0
   -3.5126   -6.0384    1.4990 H   0  0  0  0  0  0  0  0  0  0  0  0
   -2.0763   -4.9430   -0.4971 H   0  0  0  0  0  0  0  0  0  0  0  0
   -0.9836   -5.9509    0.5385 H   0  0  0  0  0  0  0  0  0  0  0  0
    1.1656   -2.0384   -2.6720 H   0  0  0  0  0  0  0  0  0  0  0  0
    2.7202   -3.5123   -0.8183 H   0  0  0  0  0  0  0  0  0  0  0  0
    2.4735   -1.2528   -0.0168 H   0  0  0  0  0  0  0  0  0  0  0  0
    1.6247   -0.1651   -1.1959 H   0  0  0  0  0  0  0  0  0  0  0  0
    3.6769    1.2344   -1.8170 H   0  0  0  0  0  0  0  0  0  0  0  0
    5.9550    1.5603   -2.4685 H   0  0  0  0  0  0  0  0  0  0  0  0
    5.2374    0.4004   -3.6121 H   0  0  0  0  0  0  0  0  0  0  0  0
    8.2723    1.0070   -1.8466 H   0  0  0  0  0  0  0  0  0  0  0  0
    9.2062   -1.2711   -0.7219 H   0  0  0  0  0  0  0  0  0  0  0  0
    9.6670   -1.2193   -2.4891 H   0  0  0  0  0  0  0  0  0  0  0  0
    5.9507   -2.5445   -2.5612 H   0  0  0  0  0  0  0  0  0  0  0  0
    5.4533   -0.3820    0.1305 H   0  0  0  0  0  0  0  0  0  0  0  0
    3.9020    0.4039    0.5568 H   0  0  0  0  0  0  0  0  0  0  0  0
    7.3545    0.9038    0.7744 H   0  0  0  0  0  0  0  0  0  0  0  0
    8.4425    3.0477    1.2706 H   0  0  0  0  0  0  0  0  0  0  0  0
    8.2298    5.4764    1.3561 H   0  0  0  0  0  0  0  0  0  0  0  0
    3.1646    6.6590   -0.1844 H   0  0  0  0  0  0  0  0  0  0  0  0
    2.7282    5.0624    0.5294 H   0  0  0  0  0  0  0  0  0  0  0  0
    3.2739    5.1766   -1.2044 H   0  0  0  0  0  0  0  0  0  0  0  0
    3.7295    2.9678   -0.2649 H   0  0  0  0  0  0  0  0  0  0  0  0
   -2.2602   -3.4987   -2.2861 H   0  0  0  0  0  0  0  0  0  0  0  0
   -4.5726   -4.0773   -2.3594 H   0  0  0  0  0  0  0  0  0  0  0  0
   -6.8262   -3.5495   -1.7745 H   0  0  0  0  0  0  0  0  0  0  0  0
   -7.5583    0.4331    0.5582 H   0  0  0  0  0  0  0  0  0  0  0  0
   -7.4472   -1.3604    0.5962 H   0  0  0  0  0  0  0  0  0  0  0  0
   -7.5633   -0.4669   -0.9981 H   0  0  0  0  0  0  0  0  0  0  0  0
  1  2  1  0  0  0  0
  1 55  1  0  0  0  0
  1 56  1  0  0  0  0
  1 57  1  0  0  0  0
  2  3  1  0  0  0  0
  2 58  1  0  0  0  0
  2 59  1  0  0  0  0
  3  4  2  0  0  0  0
  4  5  1  0  0  0  0
  4 60  1  0  0  0  0
  5  6  2  0  0  0  0
  5 61  1  0  0  0  0
  6  7  1  0  0  0  0
  7  8  2  0  0  0  0
  7 62  1  0  0  0  0
  8  9  1  0  0  0  0
  8 63  1  0  0  0  0
  9 10  2  0  0  0  0
  9 64  1  0  0  0  0
 10 11  1  0  0  0  0
 10 65  1  0  0  0  0
 11 12  2  0  0  0  0
 11  6  1  0  0  0  0
 12  3  1  0  0  0  0
 13 12  1  0  0  0  0
 13 14  1  0  0  0  0
 13 66  1  6  0  0  0
 14 15  2  0  0  0  0
 14 67  1  0  0  0  0
 15 68  1  0  0  0  0
 16 15  1  0  0  0  0
 16 17  1  0  0  0  0
 16 46  1  0  0  0  0
 16 69  1  6  0  0  0
 17 18  1  0  0  0  0
 17 24  1  0  0  0  0
 17 70  1  6  0  0  0
 18 19  1  0  0  0  0
 18 71  1  0  0  0  0
 18 72  1  0  0  0  0
 19 20  2  0  0  0  0
 20 21  1  0  0  0  0
 20 73  1  0  0  0  0
 21 22  2  0  0  0  0
 22 23  1  0  0  0  0
 22 74  1  0  0  0  0
 23 19  1  0  0  0  0
 23 75  1  0  0  0  0
 23 76  1  0  0  0  0
 24 25  1  0  0  0  0
 24 26  1  0  0  0  0
 24 77  1  6  0  0  0
 25 78  1  0  0  0  0
 26 27  1  0  0  0  0
 26 79  1  0  0  0  0
 26 80  1  0  0  0  0
 27 28  2  0  0  0  0
 27 29  1  0  0  0  0
 29 30  1  0  0  0  0
 29 36  1  0  0  0  0
 29 81  1  6  0  0  0
 30 31  1  0  0  0  0
 30 82  1  0  0  0  0
 30 83  1  0  0  0  0
 31 32  2  0  0  0  0
 32 33  1  0  0  0  0
 32 84  1  0  0  0  0
 33 34  1  0  0  0  0
 33 85  1  0  0  0  0
 33 86  1  0  0  0  0
 34 35  2  0  0  0  0
 35 31  1  0  0  0  0
 35 87  1  0  0  0  0
 36 37  1  0  0  0  0
 36 88  1  0  0  0  0
 36 89  1  0  0  0  0
 37 38  2  0  0  0  0
 38 39  1  0  0  0  0
 38 90  1  0  0  0  0
 39 40  2  0  0  0  0
 39 91  1  0  0  0  0
 40 41  1  0  0  0  0
 40 42  1  0  0  0  0
 41 92  1  0  0  0  0
 42 43  1  0  0  0  0
 42 45  2  0  0  0  0
 43 44  1  0  0  0  0
 44 93  1  0  0  0  0
 44 94  1  0  0  0  0
 44 95  1  0  0  0  0
 45 37  1  0  0  0  0
 45 96  1  0  0  0  0
 46 47  2  0  0  0  0
 47 48  1  0  0  0  0
 47 97  1  0  0  0  0
 48 49  2  0  0  0  0
 48 98  1  0  0  0  0
 49 50  1  0  0  0  0
 49 51  1  0  0  0  0
 50 99  1  0  0  0  0
 51 52  1  0  0  0  0
 51 54  2  0  0  0  0
 52 53  1  0  0  0  0
 53100  1  0  0  0  0
 53101  1  0  0  0  0
 53102  1  0  0  0  0
 54 13  1  0  0  0  0
 54 46  1  0  0  0  0
M  END
>  <IDENTIFIER>
CNP0602713.1

>  <Energy>
849.037

$$$$
