
 OpenBabel09092521053D

 53 52  0  0  0  0  0  0  0  0999 V2000
    7.0347    3.0826   -0.3300 C   0  0  0  0  0  0  0  0  0  0  0  0
    5.7201    2.4150   -0.5757 C   0  0  0  0  0  0  0  0  0  0  0  0
    4.8878    2.9514   -1.2940 O   0  0  0  0  0  0  0  0  0  0  0  0
    5.4717    1.2141    0.0034 O   0  0  0  0  0  0  0  0  0  0  0  0
    4.3115    0.4865   -0.1866 C   0  0  0  0  0  0  0  0  0  0  0  0
    4.3555   -0.8346    0.6220 C   0  0  0  0  0  0  0  0  0  0  0  0
    4.4573   -0.5240    2.1300 C   0  0  0  0  0  0  0  0  0  0  0  0
    5.6095   -1.6417    0.2015 C   0  0  0  0  0  0  0  0  0  0  0  0
    3.0854   -1.6532    0.3514 C   0  0  0  0  0  0  0  0  0  0  0  0
    3.1845   -2.7869   -0.1004 O   0  0  0  0  0  0  0  0  0  0  0  0
    1.7006   -1.0850    0.6263 C   0  0  0  0  0  0  0  0  0  0  0  0
    0.5501   -2.0644    0.2971 C   0  0  2  0  0  0  0  0  0  0  0  0
    0.6159   -2.4981   -1.0423 O   0  0  0  0  0  0  0  0  0  0  0  0
   -0.7883   -1.4271    0.6202 C   0  0  0  0  0  0  0  0  0  0  0  0
   -1.7786   -1.2798   -0.2771 C   0  0  0  0  0  0  0  0  0  0  0  0
   -3.0553   -0.6314    0.0916 C   0  0  0  0  0  0  0  0  0  0  0  0
   -4.0395   -0.5066   -0.8182 C   0  0  0  0  0  0  0  0  0  0  0  0
   -5.4134    0.1467   -0.6248 C   0  0  0  0  0  0  0  0  0  0  0  0
   -5.5662    1.2117   -1.7360 C   0  0  0  0  0  0  0  0  0  0  0  0
   -6.4831   -0.9416   -0.8769 C   0  0  0  0  0  0  0  0  0  0  0  0
   -5.6906    0.8123    0.7879 C   0  0  2  0  0  0  0  0  0  0  0  0
   -4.8173    2.0368    1.1234 C   0  0  0  0  0  0  0  0  0  0  0  0
   -5.6551   -0.0920    1.8720 O   0  0  0  0  0  0  0  0  0  0  0  0
    7.0917    4.0529   -0.8680 H   0  0  0  0  0  0  0  0  0  0  0  0
    7.8542    2.4244   -0.6871 H   0  0  0  0  0  0  0  0  0  0  0  0
    7.1610    3.2646    0.7575 H   0  0  0  0  0  0  0  0  0  0  0  0
    4.1988    0.2555   -1.2698 H   0  0  0  0  0  0  0  0  0  0  0  0
    3.4449    1.1045    0.1347 H   0  0  0  0  0  0  0  0  0  0  0  0
    5.3869    0.0420    2.3549 H   0  0  0  0  0  0  0  0  0  0  0  0
    4.4758   -1.4663    2.7193 H   0  0  0  0  0  0  0  0  0  0  0  0
    3.5997    0.0904    2.4746 H   0  0  0  0  0  0  0  0  0  0  0  0
    6.5412   -1.0708    0.4030 H   0  0  0  0  0  0  0  0  0  0  0  0
    5.5766   -1.8744   -0.8853 H   0  0  0  0  0  0  0  0  0  0  0  0
    5.6701   -2.5979    0.7650 H   0  0  0  0  0  0  0  0  0  0  0  0
    1.5607   -0.1656    0.0200 H   0  0  0  0  0  0  0  0  0  0  0  0
    1.6287   -0.8126    1.7001 H   0  0  0  0  0  0  0  0  0  0  0  0
    0.6629   -2.9572    0.9500 H   0  0  0  0  0  0  0  0  0  0  0  0
    0.6997   -1.6934   -1.6187 H   0  0  0  0  0  0  0  0  0  0  0  0
   -0.9388   -1.0732    1.6371 H   0  0  0  0  0  0  0  0  0  0  0  0
   -1.6537   -1.6315   -1.2964 H   0  0  0  0  0  0  0  0  0  0  0  0
   -3.1622   -0.2707    1.1040 H   0  0  0  0  0  0  0  0  0  0  0  0
   -3.8542   -0.9155   -1.8100 H   0  0  0  0  0  0  0  0  0  0  0  0
   -5.4726    0.7482   -2.7427 H   0  0  0  0  0  0  0  0  0  0  0  0
   -4.7761    1.9875   -1.6666 H   0  0  0  0  0  0  0  0  0  0  0  0
   -6.5608    1.7043   -1.6790 H   0  0  0  0  0  0  0  0  0  0  0  0
   -6.3621   -1.3905   -1.8872 H   0  0  0  0  0  0  0  0  0  0  0  0
   -7.5059   -0.5108   -0.8158 H   0  0  0  0  0  0  0  0  0  0  0  0
   -6.4099   -1.7659   -0.1374 H   0  0  0  0  0  0  0  0  0  0  0  0
   -6.7332    1.1998    0.7491 H   0  0  0  0  0  0  0  0  0  0  0  0
   -3.7400    1.8016    1.1823 H   0  0  0  0  0  0  0  0  0  0  0  0
   -5.1290    2.4486    2.1067 H   0  0  0  0  0  0  0  0  0  0  0  0
   -4.9561    2.8464    0.3798 H   0  0  0  0  0  0  0  0  0  0  0  0
   -5.2343   -0.9447    1.6022 H   0  0  0  0  0  0  0  0  0  0  0  0
  1  2  1  0  0  0  0
  1 24  1  0  0  0  0
  1 25  1  0  0  0  0
  1 26  1  0  0  0  0
  2  3  2  0  0  0  0
  2  4  1  0  0  0  0
  4  5  1  0  0  0  0
  5  6  1  0  0  0  0
  5 27  1  0  0  0  0
  5 28  1  0  0  0  0
  6  7  1  0  0  0  0
  6  8  1  0  0  0  0
  6  9  1  0  0  0  0
  7 29  1  0  0  0  0
  7 30  1  0  0  0  0
  7 31  1  0  0  0  0
  8 32  1  0  0  0  0
  8 33  1  0  0  0  0
  8 34  1  0  0  0  0
  9 10  2  0  0  0  0
  9 11  1  0  0  0  0
 11 12  1  0  0  0  0
 11 35  1  0  0  0  0
 11 36  1  0  0  0  0
 12 13  1  0  0  0  0
 12 14  1  0  0  0  0
 12 37  1  1  0  0  0
 13 38  1  0  0  0  0
 14 15  2  0  0  0  0
 14 39  1  0  0  0  0
 15 16  1  0  0  0  0
 15 40  1  0  0  0  0
 16 17  2  0  0  0  0
 16 41  1  0  0  0  0
 17 18  1  0  0  0  0
 17 42  1  0  0  0  0
 18 19  1  0  0  0  0
 18 20  1  0  0  0  0
 18 21  1  0  0  0  0
 19 43  1  0  0  0  0
 19 44  1  0  0  0  0
 19 45  1  0  0  0  0
 20 46  1  0  0  0  0
 20 47  1  0  0  0  0
 20 48  1  0  0  0  0
 21 22  1  0  0  0  0
 21 23  1  0  0  0  0
 21 49  1  6  0  0  0
 22 50  1  0  0  0  0
 22 51  1  0  0  0  0
 22 52  1  0  0  0  0
 23 53  1  0  0  0  0
M  END
>  <IDENTIFIER>
CNP0438459.1

>  <Energy>
224.477

$$$$
