
 OpenBabel09062518303D

 45 47  0  0  0  0  0  0  0  0999 V2000
    6.5576    1.4080   -0.3298 C   0  0  0  0  0  0  0  0  0  0  0  0
    5.5348    0.5538    0.0289 O   0  0  0  0  0  0  0  0  0  0  0  0
    4.2040    0.7855   -0.1334 C   0  0  0  0  0  0  0  0  0  0  0  0
    3.7178    1.9805   -0.6895 C   0  0  0  0  0  0  0  0  0  0  0  0
    2.3454    2.1935   -0.8534 C   0  0  0  0  0  0  0  0  0  0  0  0
    1.9192    3.3571   -1.3938 O   0  0  0  0  0  0  0  0  0  0  0  0
    1.4233    1.1952   -0.4562 C   0  0  0  0  0  0  0  0  0  0  0  0
    0.0232    1.3461   -0.6022 C   0  0  0  0  0  0  0  0  0  0  0  0
   -0.4233    2.3608   -1.1088 O   0  0  0  0  0  0  0  0  0  0  0  0
   -0.8510    0.3072   -0.1900 C   0  0  0  0  0  0  0  0  0  0  0  0
   -2.2707    0.3748   -0.3009 C   0  0  0  0  0  0  0  0  0  0  0  0
   -2.8686    1.5059   -0.7454 O   0  0  0  0  0  0  0  0  0  0  0  0
   -3.0652    2.6065    0.0726 C   0  0  0  0  0  0  0  0  0  0  0  0
   -3.0687   -0.7542    0.0536 C   0  0  0  0  0  0  0  0  0  0  0  0
   -4.4242   -0.7804   -0.0914 O   0  0  0  0  0  0  0  0  0  0  0  0
   -5.2746    0.1587   -0.6350 C   0  0  0  0  0  0  0  0  0  0  0  0
   -2.4381   -1.9185    0.5711 C   0  0  0  0  0  0  0  0  0  0  0  0
   -3.1132   -3.0487    0.9324 O   0  0  0  0  0  0  0  0  0  0  0  0
   -4.4571   -3.3322    0.8103 C   0  0  0  0  0  0  0  0  0  0  0  0
   -1.0425   -1.9462    0.7206 C   0  0  0  0  0  0  0  0  0  0  0  0
   -0.4200   -3.0388    1.2192 O   0  0  0  0  0  0  0  0  0  0  0  0
   -0.2614   -0.8580    0.3363 C   0  0  0  0  0  0  0  0  0  0  0  0
    1.0558   -0.9550    0.4626 O   0  0  0  0  0  0  0  0  0  0  0  0
    1.9105   -0.0087    0.1034 C   0  0  0  0  0  0  0  0  0  0  0  0
    3.3056   -0.2149    0.2672 C   0  0  0  0  0  0  0  0  0  0  0  0
    3.8450   -1.3504    0.7945 O   0  0  0  0  0  0  0  0  0  0  0  0
    3.1863   -2.4736    1.2507 C   0  0  0  0  0  0  0  0  0  0  0  0
    7.5287    0.9366   -0.0746 H   0  0  0  0  0  0  0  0  0  0  0  0
    6.4718    2.3661    0.2259 H   0  0  0  0  0  0  0  0  0  0  0  0
    6.5329    1.5960   -1.4244 H   0  0  0  0  0  0  0  0  0  0  0  0
    4.4034    2.7570   -1.0021 H   0  0  0  0  0  0  0  0  0  0  0  0
    2.5280    4.0543   -1.6752 H   0  0  0  0  0  0  0  0  0  0  0  0
   -3.5732    3.4047   -0.5063 H   0  0  0  0  0  0  0  0  0  0  0  0
   -2.1092    3.0033    0.4681 H   0  0  0  0  0  0  0  0  0  0  0  0
   -3.6969    2.3359    0.9443 H   0  0  0  0  0  0  0  0  0  0  0  0
   -6.3032   -0.2563   -0.6391 H   0  0  0  0  0  0  0  0  0  0  0  0
   -4.9860    0.3819   -1.6838 H   0  0  0  0  0  0  0  0  0  0  0  0
   -5.2978    1.0750   -0.0182 H   0  0  0  0  0  0  0  0  0  0  0  0
   -4.6421   -4.3571    1.1921 H   0  0  0  0  0  0  0  0  0  0  0  0
   -4.7582   -3.3030   -0.2588 H   0  0  0  0  0  0  0  0  0  0  0  0
   -5.0629   -2.6260    1.4154 H   0  0  0  0  0  0  0  0  0  0  0  0
   -0.8883   -3.8341    1.5093 H   0  0  0  0  0  0  0  0  0  0  0  0
    3.9354   -3.2066    1.6134 H   0  0  0  0  0  0  0  0  0  0  0  0
    2.6118   -2.9456    0.4255 H   0  0  0  0  0  0  0  0  0  0  0  0
    2.5182   -2.2124    2.0982 H   0  0  0  0  0  0  0  0  0  0  0  0
  1  2  1  0  0  0  0
  1 28  1  0  0  0  0
  1 29  1  0  0  0  0
  1 30  1  0  0  0  0
  2  3  1  0  0  0  0
  3  4  2  0  0  0  0
  4  5  1  0  0  0  0
  4 31  1  0  0  0  0
  5  6  1  0  0  0  0
  5  7  2  0  0  0  0
  6 32  1  0  0  0  0
  7  8  1  0  0  0  0
  8  9  2  0  0  0  0
  8 10  1  0  0  0  0
 10 11  2  0  0  0  0
 11 12  1  0  0  0  0
 11 14  1  0  0  0  0
 12 13  1  0  0  0  0
 13 33  1  0  0  0  0
 13 34  1  0  0  0  0
 13 35  1  0  0  0  0
 14 15  1  0  0  0  0
 14 17  2  0  0  0  0
 15 16  1  0  0  0  0
 16 36  1  0  0  0  0
 16 37  1  0  0  0  0
 16 38  1  0  0  0  0
 17 18  1  0  0  0  0
 17 20  1  0  0  0  0
 18 19  1  0  0  0  0
 19 39  1  0  0  0  0
 19 40  1  0  0  0  0
 19 41  1  0  0  0  0
 20 21  1  0  0  0  0
 20 22  2  0  0  0  0
 21 42  1  0  0  0  0
 22 23  1  0  0  0  0
 22 10  1  0  0  0  0
 23 24  1  0  0  0  0
 24 25  2  0  0  0  0
 24  7  1  0  0  0  0
 25 26  1  0  0  0  0
 25  3  1  0  0  0  0
 26 27  1  0  0  0  0
 27 43  1  0  0  0  0
 27 44  1  0  0  0  0
 27 45  1  0  0  0  0
M  END
>  <IDENTIFIER>
CNP0162726.0

>  <Energy>
393.606

$$$$
