
 OpenBabel09132508053D

142148  0  0  0  0  0  0  0  0999 V2000
    7.8577    3.5386    1.7867 C   0  0  0  0  0  0  0  0  0  0  0  0
    7.6199    2.8808    0.4619 C   0  0  0  0  0  0  0  0  0  0  0  0
    8.1361    3.3472   -0.5473 O   0  0  0  0  0  0  0  0  0  0  0  0
    6.8413    1.7737    0.3960 O   0  0  0  0  0  0  0  0  0  0  0  0
    6.5970    1.0636   -0.7669 C   0  0  0  0  0  0  0  0  0  0  0  0
    5.6592   -0.1194   -0.4845 C   0  0  2  0  0  0  0  0  0  0  0  0
    4.4176    0.4042   -0.0510 O   0  0  0  0  0  0  0  0  0  0  0  0
    3.4718   -0.6396    0.1036 C   0  0  2  0  0  0  0  0  0  0  0  0
    2.1929   -0.0618    0.2827 O   0  0  0  0  0  0  0  0  0  0  0  0
    1.3096   -0.3604   -0.7926 C   0  0  1  0  0  0  0  0  0  0  0  0
    0.2775   -1.4447   -0.3507 C   0  0  0  0  0  0  0  0  0  0  0  0
   -1.0722   -0.7900   -0.6527 C   0  0  1  0  0  0  0  0  0  0  0  0
   -2.3849   -1.3967   -0.1215 C   0  0  2  0  0  0  0  0  0  0  0  0
   -2.5129   -2.8622   -0.6382 C   0  0  0  0  0  0  0  0  0  0  0  0
   -3.9201   -3.4722   -0.4712 C   0  0  0  0  0  0  0  0  0  0  0  0
   -4.9117   -2.4961   -1.1167 C   0  0  1  0  0  0  0  0  0  0  0  0
   -6.3004   -3.0171   -1.4654 C   0  0  0  0  0  0  0  0  0  0  0  0
   -6.9009   -2.0365   -2.5320 C   0  0  1  0  0  0  0  0  0  0  0  0
   -8.2858   -2.2212   -2.6512 O   0  0  0  0  0  0  0  0  0  0  0  0
   -6.5123   -0.5345   -2.3018 C   0  0  0  0  0  0  0  0  0  0  0  0
   -6.2470   -0.2665   -0.8178 C   0  0  1  0  0  0  0  0  0  0  0  0
   -7.4420   -0.6508   -0.1403 O   0  0  0  0  0  0  0  0  0  0  0  0
   -7.8896    0.2418    0.8801 C   0  0  2  0  0  0  0  0  0  0  0  0
   -7.9589   -0.4379    2.1297 O   0  0  0  0  0  0  0  0  0  0  0  0
   -8.8177   -1.5739    2.0616 C   0  0  1  0  0  0  0  0  0  0  0  0
   -8.7164   -2.3330    3.3844 C   0  0  0  0  0  0  0  0  0  0  0  0
  -10.2781   -1.1369    1.7789 C   0  0  2  0  0  0  0  0  0  0  0  0
  -11.1412   -2.2451    1.6945 O   0  0  0  0  0  0  0  0  0  0  0  0
  -10.3193   -0.3137    0.4727 C   0  0  1  0  0  0  0  0  0  0  0  0
  -11.6082    0.1725    0.1955 O   0  0  0  0  0  0  0  0  0  0  0  0
   -9.2775    0.8255    0.5176 C   0  0  1  0  0  0  0  0  0  0  0  0
   -9.6582    1.8317    1.4292 O   0  0  0  0  0  0  0  0  0  0  0  0
   -4.9768   -1.1168   -0.3247 C   0  0  1  0  0  0  0  0  0  0  0  0
   -5.1333   -1.2959    1.2188 C   0  0  0  0  0  0  0  0  0  0  0  0
   -3.5689   -0.4742   -0.6443 C   0  0  1  0  0  0  0  0  0  0  0  0
   -3.3576    0.9943   -0.1661 C   0  0  0  0  0  0  0  0  0  0  0  0
   -2.0266    1.5482   -0.7320 C   0  0  0  0  0  0  0  0  0  0  0  0
   -0.8214    0.7020   -0.2782 C   0  0  1  0  0  0  0  0  0  0  0  0
   -0.6232    0.8602    1.2754 C   0  0  0  0  0  0  0  0  0  0  0  0
    0.4658    0.8921   -1.1654 C   0  0  1  0  0  0  0  0  0  0  0  0
    1.2313    2.1926   -1.6581 C   0  0  2  0  0  0  0  0  0  0  0  0
    2.2474    1.7399   -2.7548 C   0  0  0  0  0  0  0  0  0  0  0  0
    1.9506    3.1493   -0.6550 C   0  0  1  0  0  0  0  0  0  0  0  0
    2.8499    3.9709   -1.3589 O   0  0  0  0  0  0  0  0  0  0  0  0
    0.9612    4.0565    0.1110 C   0  0  0  0  0  0  0  0  0  0  0  0
    1.6069    5.0538    1.0996 C   0  0  0  0  0  0  0  0  0  0  0  0
    2.4051    6.2332    0.4756 C   0  0  0  0  0  0  0  0  0  0  0  0
    2.9780    7.1158    1.5894 C   0  0  0  0  0  0  0  0  0  0  0  0
    1.5315    7.0917   -0.4572 C   0  0  0  0  0  0  0  0  0  0  0  0
    3.8593   -1.4678    1.3378 C   0  0  1  0  0  0  0  0  0  0  0  0
    2.8850   -2.4355    1.6403 O   0  0  0  0  0  0  0  0  0  0  0  0
    5.2076   -2.1342    1.0186 C   0  0  2  0  0  0  0  0  0  0  0  0
    5.6765   -2.9089    2.0934 O   0  0  0  0  0  0  0  0  0  0  0  0
    6.2627   -1.1034    0.5687 C   0  0  1  0  0  0  0  0  0  0  0  0
    7.2756   -1.8674   -0.0464 O   0  0  0  0  0  0  0  0  0  0  0  0
    8.6028   -1.5560    0.2932 C   0  0  2  0  0  0  0  0  0  0  0  0
    9.2339   -1.0927   -0.8810 O   0  0  0  0  0  0  0  0  0  0  0  0
    9.8201   -2.2202   -1.5223 C   0  0  0  0  0  0  0  0  0  0  0  0
    9.5643   -3.4866   -0.6753 C   0  0  2  0  0  0  0  0  0  0  0  0
   10.6869   -4.3348   -0.6476 O   0  0  0  0  0  0  0  0  0  0  0  0
    8.3413   -4.3131   -1.1790 C   0  0  0  0  0  0  0  0  0  0  0  0
    8.0849   -5.3883   -0.3124 O   0  0  0  0  0  0  0  0  0  0  0  0
    9.3377   -2.8390    0.6876 C   0  0  1  0  0  0  0  0  0  0  0  0
   10.5617   -2.5284    1.3219 O   0  0  0  0  0  0  0  0  0  0  0  0
    8.5141    4.4260    1.6743 H   0  0  0  0  0  0  0  0  0  0  0  0
    8.3445    2.8161    2.4752 H   0  0  0  0  0  0  0  0  0  0  0  0
    6.8886    3.8605    2.2232 H   0  0  0  0  0  0  0  0  0  0  0  0
    7.5554    0.7063   -1.1919 H   0  0  0  0  0  0  0  0  0  0  0  0
    6.1172    1.7330   -1.5148 H   0  0  0  0  0  0  0  0  0  0  0  0
    5.5103   -0.6520   -1.4551 H   0  0  0  0  0  0  0  0  0  0  0  0
    3.4981   -1.3375   -0.7713 H   0  0  0  0  0  0  0  0  0  0  0  0
    1.8055   -0.6749   -1.7391 H   0  0  0  0  0  0  0  0  0  0  0  0
    0.3472   -1.6134    0.7441 H   0  0  0  0  0  0  0  0  0  0  0  0
    0.4275   -2.4305   -0.8407 H   0  0  0  0  0  0  0  0  0  0  0  0
   -1.2048   -0.8725   -1.7590 H   0  0  0  0  0  0  0  0  0  0  0  0
   -2.3670   -1.4156    0.9834 H   0  0  0  0  0  0  0  0  0  0  0  0
   -1.7510   -3.5165   -0.1652 H   0  0  0  0  0  0  0  0  0  0  0  0
   -2.3086   -2.8627   -1.7327 H   0  0  0  0  0  0  0  0  0  0  0  0
   -4.1765   -3.6910    0.5844 H   0  0  0  0  0  0  0  0  0  0  0  0
   -3.9329   -4.4427   -1.0129 H   0  0  0  0  0  0  0  0  0  0  0  0
   -4.4907   -2.3388   -2.1400 H   0  0  0  0  0  0  0  0  0  0  0  0
   -6.8995   -3.0665   -0.5338 H   0  0  0  0  0  0  0  0  0  0  0  0
   -6.2773   -4.0343   -1.9122 H   0  0  0  0  0  0  0  0  0  0  0  0
   -6.4736   -2.2766   -3.5314 H   0  0  0  0  0  0  0  0  0  0  0  0
   -8.6918   -1.9899   -1.7829 H   0  0  0  0  0  0  0  0  0  0  0  0
   -7.2887    0.1333   -2.7322 H   0  0  0  0  0  0  0  0  0  0  0  0
   -5.5648   -0.3013   -2.8349 H   0  0  0  0  0  0  0  0  0  0  0  0
   -6.0636    0.8184   -0.7062 H   0  0  0  0  0  0  0  0  0  0  0  0
   -7.2041    1.1075    1.0222 H   0  0  0  0  0  0  0  0  0  0  0  0
   -8.4711   -2.2795    1.2733 H   0  0  0  0  0  0  0  0  0  0  0  0
   -9.0457   -1.6901    4.2274 H   0  0  0  0  0  0  0  0  0  0  0  0
   -7.6613   -2.6381    3.5596 H   0  0  0  0  0  0  0  0  0  0  0  0
   -9.3434   -3.2491    3.3576 H   0  0  0  0  0  0  0  0  0  0  0  0
  -10.6212   -0.5011    2.6234 H   0  0  0  0  0  0  0  0  0  0  0  0
  -10.8026   -2.8360    0.9708 H   0  0  0  0  0  0  0  0  0  0  0  0
  -10.0395   -0.9935   -0.3542 H   0  0  0  0  0  0  0  0  0  0  0  0
  -11.9142    0.6864    0.9875 H   0  0  0  0  0  0  0  0  0  0  0  0
   -9.2142    1.3038   -0.4839 H   0  0  0  0  0  0  0  0  0  0  0  0
   -9.5431    1.4905    2.3527 H   0  0  0  0  0  0  0  0  0  0  0  0
   -5.2011   -0.3084    1.7209 H   0  0  0  0  0  0  0  0  0  0  0  0
   -4.3112   -1.8386    1.7123 H   0  0  0  0  0  0  0  0  0  0  0  0
   -6.0353   -1.8912    1.4515 H   0  0  0  0  0  0  0  0  0  0  0  0
   -3.5000   -0.4156   -1.7537 H   0  0  0  0  0  0  0  0  0  0  0  0
   -3.3915    1.0578    0.9395 H   0  0  0  0  0  0  0  0  0  0  0  0
   -4.1455    1.6622   -0.5581 H   0  0  0  0  0  0  0  0  0  0  0  0
   -1.8804    2.6088   -0.4326 H   0  0  0  0  0  0  0  0  0  0  0  0
   -2.1008    1.5244   -1.8411 H   0  0  0  0  0  0  0  0  0  0  0  0
   -0.5666    1.8932    1.6214 H   0  0  0  0  0  0  0  0  0  0  0  0
    0.2684    0.3474    1.6767 H   0  0  0  0  0  0  0  0  0  0  0  0
   -1.4793    0.4460    1.8387 H   0  0  0  0  0  0  0  0  0  0  0  0
    0.0642    0.6476   -2.1793 H   0  0  0  0  0  0  0  0  0  0  0  0
    0.4860    2.8184   -2.2018 H   0  0  0  0  0  0  0  0  0  0  0  0
    3.0865    1.1672   -2.3102 H   0  0  0  0  0  0  0  0  0  0  0  0
    2.6791    2.6005   -3.3065 H   0  0  0  0  0  0  0  0  0  0  0  0
    1.7577    1.1149   -3.5304 H   0  0  0  0  0  0  0  0  0  0  0  0
    2.5552    2.5455    0.0532 H   0  0  0  0  0  0  0  0  0  0  0  0
    2.3264    4.5059   -2.0137 H   0  0  0  0  0  0  0  0  0  0  0  0
    0.3074    3.4220    0.6913 H   0  0  0  0  0  0  0  0  0  0  0  0
    0.3021    4.5993   -0.5960 H   0  0  0  0  0  0  0  0  0  0  0  0
    2.2603    4.4830    1.7956 H   0  0  0  0  0  0  0  0  0  0  0  0
    0.7815    5.4960    1.7009 H   0  0  0  0  0  0  0  0  0  0  0  0
    3.2755    5.8593   -0.0954 H   0  0  0  0  0  0  0  0  0  0  0  0
    2.1635    7.5485    2.2080 H   0  0  0  0  0  0  0  0  0  0  0  0
    3.5733    7.9454    1.1499 H   0  0  0  0  0  0  0  0  0  0  0  0
    3.6504    6.5185    2.2410 H   0  0  0  0  0  0  0  0  0  0  0  0
    0.6573    7.5016    0.0925 H   0  0  0  0  0  0  0  0  0  0  0  0
    1.1653    6.5073   -1.3244 H   0  0  0  0  0  0  0  0  0  0  0  0
    2.1240    7.9370   -0.8672 H   0  0  0  0  0  0  0  0  0  0  0  0
    3.9583   -0.7880    2.2140 H   0  0  0  0  0  0  0  0  0  0  0  0
    2.7649   -3.0092    0.8385 H   0  0  0  0  0  0  0  0  0  0  0  0
    5.0285   -2.8232    0.1605 H   0  0  0  0  0  0  0  0  0  0  0  0
    5.8247   -2.2943    2.8592 H   0  0  0  0  0  0  0  0  0  0  0  0
    6.5719   -0.5322    1.4741 H   0  0  0  0  0  0  0  0  0  0  0  0
    8.6852   -0.8159    1.1219 H   0  0  0  0  0  0  0  0  0  0  0  0
   10.9111   -2.0198   -1.5700 H   0  0  0  0  0  0  0  0  0  0  0  0
    9.4439   -2.3385   -2.5618 H   0  0  0  0  0  0  0  0  0  0  0  0
   10.9222   -4.5403   -1.5906 H   0  0  0  0  0  0  0  0  0  0  0  0
    8.5448   -4.6973   -2.2050 H   0  0  0  0  0  0  0  0  0  0  0  0
    7.4064   -3.7412   -1.2973 H   0  0  0  0  0  0  0  0  0  0  0  0
    8.7047   -6.1203   -0.5700 H   0  0  0  0  0  0  0  0  0  0  0  0
    8.7671   -3.4744    1.3997 H   0  0  0  0  0  0  0  0  0  0  0  0
   11.1009   -1.9306    0.7431 H   0  0  0  0  0  0  0  0  0  0  0  0
  1  2  1  0  0  0  0
  1 65  1  0  0  0  0
  1 66  1  0  0  0  0
  1 67  1  0  0  0  0
  2  3  2  0  0  0  0
  2  4  1  0  0  0  0
  4  5  1  0  0  0  0
  5 68  1  0  0  0  0
  5 69  1  0  0  0  0
  6  5  1  0  0  0  0
  6  7  1  0  0  0  0
  6 70  1  6  0  0  0
  7  8  1  0  0  0  0
  8  9  1  0  0  0  0
  8 50  1  0  0  0  0
  8 71  1  6  0  0  0
 10  9  1  0  0  0  0
 10 11  1  0  0  0  0
 10 72  1  6  0  0  0
 11 73  1  0  0  0  0
 11 74  1  0  0  0  0
 12 11  1  0  0  0  0
 12 13  1  0  0  0  0
 12 75  1  6  0  0  0
 13 14  1  0  0  0  0
 13 76  1  1  0  0  0
 14 15  1  0  0  0  0
 14 77  1  0  0  0  0
 14 78  1  0  0  0  0
 15 79  1  0  0  0  0
 15 80  1  0  0  0  0
 16 15  1  0  0  0  0
 16 17  1  0  0  0  0
 16 81  1  6  0  0  0
 17 18  1  0  0  0  0
 17 82  1  0  0  0  0
 17 83  1  0  0  0  0
 18 19  1  0  0  0  0
 18 20  1  0  0  0  0
 18 84  1  6  0  0  0
 19 85  1  0  0  0  0
 20 21  1  0  0  0  0
 20 86  1  0  0  0  0
 20 87  1  0  0  0  0
 21 22  1  0  0  0  0
 21 33  1  0  0  0  0
 21 88  1  1  0  0  0
 23 22  1  0  0  0  0
 23 24  1  0  0  0  0
 23 89  1  1  0  0  0
 24 25  1  0  0  0  0
 25 26  1  0  0  0  0
 25 27  1  0  0  0  0
 25 90  1  6  0  0  0
 26 91  1  0  0  0  0
 26 92  1  0  0  0  0
 26 93  1  0  0  0  0
 27 28  1  0  0  0  0
 27 29  1  0  0  0  0
 27 94  1  1  0  0  0
 28 95  1  0  0  0  0
 29 30  1  0  0  0  0
 29 31  1  0  0  0  0
 29 96  1  6  0  0  0
 30 97  1  0  0  0  0
 31 32  1  0  0  0  0
 31 23  1  0  0  0  0
 31 98  1  6  0  0  0
 32 99  1  0  0  0  0
 33 34  1  1  0  0  0
 33 35  1  0  0  0  0
 33 16  1  0  0  0  0
 34100  1  0  0  0  0
 34101  1  0  0  0  0
 34102  1  0  0  0  0
 35 36  1  0  0  0  0
 35 13  1  0  0  0  0
 35103  1  6  0  0  0
 36 37  1  0  0  0  0
 36104  1  0  0  0  0
 36105  1  0  0  0  0
 37 38  1  0  0  0  0
 37106  1  0  0  0  0
 37107  1  0  0  0  0
 38 39  1  1  0  0  0
 38 40  1  0  0  0  0
 38 12  1  0  0  0  0
 39108  1  0  0  0  0
 39109  1  0  0  0  0
 39110  1  0  0  0  0
 40 41  1  0  0  0  0
 40 10  1  0  0  0  0
 40111  1  6  0  0  0
 41 42  1  0  0  0  0
 41 43  1  0  0  0  0
 41112  1  6  0  0  0
 42113  1  0  0  0  0
 42114  1  0  0  0  0
 42115  1  0  0  0  0
 43 44  1  0  0  0  0
 43 45  1  0  0  0  0
 43116  1  1  0  0  0
 44117  1  0  0  0  0
 45 46  1  0  0  0  0
 45118  1  0  0  0  0
 45119  1  0  0  0  0
 46 47  1  0  0  0  0
 46120  1  0  0  0  0
 46121  1  0  0  0  0
 47 48  1  0  0  0  0
 47 49  1  0  0  0  0
 47122  1  0  0  0  0
 48123  1  0  0  0  0
 48124  1  0  0  0  0
 48125  1  0  0  0  0
 49126  1  0  0  0  0
 49127  1  0  0  0  0
 49128  1  0  0  0  0
 50 51  1  0  0  0  0
 50 52  1  0  0  0  0
 50129  1  1  0  0  0
 51130  1  0  0  0  0
 52 53  1  0  0  0  0
 52 54  1  0  0  0  0
 52131  1  6  0  0  0
 53132  1  0  0  0  0
 54 55  1  0  0  0  0
 54  6  1  0  0  0  0
 54133  1  1  0  0  0
 56 55  1  0  0  0  0
 56 57  1  0  0  0  0
 56134  1  1  0  0  0
 57 58  1  0  0  0  0
 58 59  1  0  0  0  0
 58135  1  0  0  0  0
 58136  1  0  0  0  0
 59 60  1  1  0  0  0
 59 61  1  0  0  0  0
 59 63  1  0  0  0  0
 60137  1  0  0  0  0
 61 62  1  0  0  0  0
 61138  1  0  0  0  0
 61139  1  0  0  0  0
 62140  1  0  0  0  0
 63 64  1  0  0  0  0
 63 56  1  0  0  0  0
 63141  1  1  0  0  0
 64142  1  0  0  0  0
M  END
>  <IDENTIFIER>
CNP0336416.2

>  <Energy>
1750.22

$$$$
