
 OpenBabel09052517003D

 61 64  0  0  0  0  0  0  0  0999 V2000
    8.0031    0.0941   -0.2686 C   0  0  0  0  0  0  0  0  0  0  0  0
    6.8419    0.8388    0.3215 C   0  0  0  0  0  0  0  0  0  0  0  0
    6.4847    0.5845    1.4631 O   0  0  0  0  0  0  0  0  0  0  0  0
    6.2149    1.7994   -0.4075 N   0  0  0  0  0  0  0  0  0  0  0  0
    5.1081    2.5935    0.0955 C   0  0  0  0  0  0  0  0  0  0  0  0
    3.8339    1.7627    0.3572 C   0  0  0  0  0  0  0  0  0  0  0  0
    3.2766    1.0859   -0.8757 C   0  0  0  0  0  0  0  0  0  0  0  0
    3.8759    1.1411   -1.9399 O   0  0  0  0  0  0  0  0  0  0  0  0
    2.0861    0.4368   -0.8176 N   0  0  0  0  0  0  0  0  0  0  0  0
    1.3348   -0.2646   -1.8098 C   0  0  0  0  0  0  0  0  0  0  0  0
    0.1942   -0.4888   -0.7875 C   0  0  0  0  0  0  0  0  0  0  0  0
   -1.0601    0.3360   -1.1943 C   0  0  0  0  0  0  0  0  0  0  0  0
   -2.2193    0.0364   -0.3292 N   0  0  0  0  0  0  0  0  0  0  0  0
   -2.1147    0.7298    0.9793 C   0  0  0  0  0  0  0  0  0  0  0  0
   -3.4276    0.6783    1.7881 C   0  0  0  0  0  0  0  0  0  0  0  0
   -4.5936    1.2540    1.0270 C   0  0  0  0  0  0  0  0  0  0  0  0
   -4.6137    2.6124    0.6695 C   0  0  0  0  0  0  0  0  0  0  0  0
   -5.7050    3.1407   -0.0270 C   0  0  0  0  0  0  0  0  0  0  0  0
   -6.7803    2.3178   -0.3738 C   0  0  0  0  0  0  0  0  0  0  0  0
   -6.7676    0.9659   -0.0232 C   0  0  0  0  0  0  0  0  0  0  0  0
   -5.6812    0.4344    0.6770 C   0  0  0  0  0  0  0  0  0  0  0  0
   -2.4872   -1.4270   -0.2026 C   0  0  0  0  0  0  0  0  0  0  0  0
   -1.4622   -2.3348   -0.9558 C   0  0  2  0  0  0  0  0  0  0  0  0
   -1.5090   -3.8022   -0.5358 C   0  0  0  0  0  0  0  0  0  0  0  0
   -0.7896   -3.7484    0.8070 C   0  0  1  0  0  0  0  0  0  0  0  0
   -0.3212   -4.9891    1.2664 O   0  0  0  0  0  0  0  0  0  0  0  0
    0.3163   -2.7001    0.5771 C   0  0  0  0  0  0  0  0  0  0  0  0
   -0.0918   -1.9380   -0.6238 N   0  0  2  0  0  0  0  0  0  0  0  0
    1.1413    0.2122    0.2349 C   0  0  0  0  0  0  0  0  0  0  0  0
    8.4090   -0.6436    0.4558 H   0  0  0  0  0  0  0  0  0  0  0  0
    8.8072    0.8116   -0.5348 H   0  0  0  0  0  0  0  0  0  0  0  0
    7.6759   -0.4426   -1.1839 H   0  0  0  0  0  0  0  0  0  0  0  0
    6.5627    2.0069   -1.3562 H   0  0  0  0  0  0  0  0  0  0  0  0
    4.8536    3.3765   -0.6550 H   0  0  0  0  0  0  0  0  0  0  0  0
    5.4177    3.1121    1.0276 H   0  0  0  0  0  0  0  0  0  0  0  0
    3.0616    2.4649    0.7379 H   0  0  0  0  0  0  0  0  0  0  0  0
    4.0154    0.9989    1.1409 H   0  0  0  0  0  0  0  0  0  0  0  0
    1.8913   -1.1815   -2.1058 H   0  0  0  0  0  0  0  0  0  0  0  0
    1.0797    0.4058   -2.6602 H   0  0  0  0  0  0  0  0  0  0  0  0
   -1.3448    0.0517   -2.2310 H   0  0  0  0  0  0  0  0  0  0  0  0
   -0.8460    1.4274   -1.2393 H   0  0  0  0  0  0  0  0  0  0  0  0
   -1.8618    1.8000    0.8138 H   0  0  0  0  0  0  0  0  0  0  0  0
   -1.3020    0.2818    1.5920 H   0  0  0  0  0  0  0  0  0  0  0  0
   -3.2975    1.2422    2.7367 H   0  0  0  0  0  0  0  0  0  0  0  0
   -3.6504   -0.3672    2.0804 H   0  0  0  0  0  0  0  0  0  0  0  0
   -3.7903    3.2628    0.9359 H   0  0  0  0  0  0  0  0  0  0  0  0
   -5.7178    4.1886   -0.2960 H   0  0  0  0  0  0  0  0  0  0  0  0
   -7.6239    2.7282   -0.9133 H   0  0  0  0  0  0  0  0  0  0  0  0
   -7.6001    0.3285   -0.2922 H   0  0  0  0  0  0  0  0  0  0  0  0
   -5.6881   -0.6159    0.9417 H   0  0  0  0  0  0  0  0  0  0  0  0
   -3.5090   -1.6486   -0.5775 H   0  0  0  0  0  0  0  0  0  0  0  0
   -2.4953   -1.6993    0.8607 H   0  0  0  0  0  0  0  0  0  0  0  0
   -1.6418   -2.2364   -2.0495 H   0  0  0  0  0  0  0  0  0  0  0  0
   -0.8682   -4.3664   -1.2510 H   0  0  0  0  0  0  0  0  0  0  0  0
   -2.5193   -4.2638   -0.5173 H   0  0  0  0  0  0  0  0  0  0  0  0
   -1.4981   -3.3605    1.5646 H   0  0  0  0  0  0  0  0  0  0  0  0
    0.2912   -5.3503    0.5743 H   0  0  0  0  0  0  0  0  0  0  0  0
    1.2811   -3.1909    0.3304 H   0  0  0  0  0  0  0  0  0  0  0  0
    0.4160   -2.0958    1.5013 H   0  0  0  0  0  0  0  0  0  0  0  0
    1.6369   -0.4105    1.0043 H   0  0  0  0  0  0  0  0  0  0  0  0
    0.7606    1.1828    0.6197 H   0  0  0  0  0  0  0  0  0  0  0  0
  1  2  1  0  0  0  0
  1 30  1  0  0  0  0
  1 31  1  0  0  0  0
  1 32  1  0  0  0  0
  2  3  2  0  0  0  0
  2  4  1  0  0  0  0
  4  5  1  0  0  0  0
  4 33  1  0  0  0  0
  5  6  1  0  0  0  0
  5 34  1  0  0  0  0
  5 35  1  0  0  0  0
  6  7  1  0  0  0  0
  6 36  1  0  0  0  0
  6 37  1  0  0  0  0
  7  8  2  0  0  0  0
  7  9  1  0  0  0  0
  9 10  1  0  0  0  0
 10 11  1  0  0  0  0
 10 38  1  0  0  0  0
 10 39  1  0  0  0  0
 11 12  1  0  0  0  0
 11 29  1  0  0  0  0
 12 13  1  0  0  0  0
 12 40  1  0  0  0  0
 12 41  1  0  0  0  0
 13 14  1  0  0  0  0
 13 22  1  0  0  0  0
 14 15  1  0  0  0  0
 14 42  1  0  0  0  0
 14 43  1  0  0  0  0
 15 16  1  0  0  0  0
 15 44  1  0  0  0  0
 15 45  1  0  0  0  0
 16 17  2  0  0  0  0
 17 18  1  0  0  0  0
 17 46  1  0  0  0  0
 18 19  2  0  0  0  0
 18 47  1  0  0  0  0
 19 20  1  0  0  0  0
 19 48  1  0  0  0  0
 20 21  2  0  0  0  0
 20 49  1  0  0  0  0
 21 16  1  0  0  0  0
 21 50  1  0  0  0  0
 22 51  1  0  0  0  0
 22 52  1  0  0  0  0
 23 22  1  0  0  0  0
 23 24  1  0  0  0  0
 23 53  1  6  0  0  0
 24 25  1  0  0  0  0
 24 54  1  0  0  0  0
 24 55  1  0  0  0  0
 25 26  1  0  0  0  0
 25 27  1  0  0  0  0
 25 56  1  1  0  0  0
 26 57  1  0  0  0  0
 27 58  1  0  0  0  0
 27 59  1  0  0  0  0
 28 27  1  1  0  0  0
 28 11  1  0  0  0  0
 28 23  1  0  0  0  0
 29  9  1  0  0  0  0
 29 60  1  0  0  0  0
 29 61  1  0  0  0  0
M  END
>  <IDENTIFIER>
CNP0274242.1

>  <Energy>
1096.14

$$$$
