
 OpenBabel09082509562D

139138  0  0  0  0  0  0  0  0999 V2000
   15.5885    9.0000    0.0000 C   0  0  0  0  0  0  0  0  0  0  0  0
   14.2894    8.2500    0.0000 C   0  0  0  0  0  0  0  0  0  0  0  0
   13.2607    7.0332    0.6541 C   0  0  0  0  0  0  0  0  0  0  0  0
   11.6913    6.7500    0.0000 C   0  0  0  0  0  0  0  0  0  0  0  0
   10.3923    6.0000    0.0000 C   0  0  0  0  0  0  0  0  0  0  0  0
    9.0933    5.2500    0.0000 C   0  0  0  0  0  0  0  0  0  0  0  0
    7.7942    4.5000    0.0000 C   0  0  0  0  0  0  0  0  0  0  0  0
    6.4952    3.7500    0.0000 C   0  0  0  0  0  0  0  0  0  0  0  0
    5.1962    3.0000    0.0000 C   0  0  0  0  0  0  0  0  0  0  0  0
    3.6982    2.7729   -0.7018 C   0  0  0  0  0  0  0  0  0  0  0  0
    2.7575    1.4672   -0.1905 C   0  0  0  0  0  0  0  0  0  0  0  0
    1.2188    1.0830   -0.7453 C   0  0  0  0  0  0  0  0  0  0  0  0
    0.4076   -0.2561   -0.2256 C   0  0  0  0  0  0  0  0  0  0  0  0
    1.0179   -0.9597    0.5634 O   0  0  0  0  0  0  0  0  0  0  0  0
   -0.9287   -0.6782   -0.5946 O   0  0  0  0  0  0  0  0  0  0  0  0
   -1.6038   -1.9255   -0.1891 C   0  0  0  0  0  0  0  0  0  0  0  0
   -3.1998   -2.3144   -0.5686 C   0  0  2  0  0  0  0  0  0  0  0  0
   -3.6622   -3.8706   -0.0385 C   0  0  0  0  0  0  0  0  0  0  0  0
   -4.9469   -4.5850   -0.2665 O   0  0  0  0  0  0  0  0  0  0  0  0
   -5.1962   -6.0000    0.0000 C   0  0  0  0  0  0  0  0  0  0  0  0
   -4.1934   -6.6627    0.2657 O   0  0  0  0  0  0  0  0  0  0  0  0
   -6.4952   -6.7500    0.0000 C   0  0  0  0  0  0  0  0  0  0  0  0
   -7.7942   -7.5000    0.0000 C   0  0  0  0  0  0  0  0  0  0  0  0
   -9.0933   -8.2500    0.0000 C   0  0  0  0  0  0  0  0  0  0  0  0
  -10.3923   -9.0000    0.0000 C   0  0  0  0  0  0  0  0  0  0  0  0
  -11.6913   -9.7500    0.0000 C   0  0  0  0  0  0  0  0  0  0  0  0
  -13.3336  -10.0765   -0.1336 C   0  0  0  0  0  0  0  0  0  0  0  0
  -13.9527  -11.6383    0.1370 C   0  0  0  0  0  0  0  0  0  0  0  0
  -15.5885  -12.0000    0.0000 C   0  0  0  0  0  0  0  0  0  0  0  0
  -16.8875  -12.7500    0.0000 C   0  0  0  0  0  2  0  0  0  0  0  0
  -18.1865  -13.5000    0.0000 C   0  0  0  0  0  0  0  0  0  0  0  0
  -19.4856  -14.2500    0.0000 C   0  0  0  0  0  0  0  0  0  0  0  0
  -20.7846  -15.0000    0.0000 C   0  0  0  0  0  2  0  0  0  0  0  0
  -22.0836  -15.7500    0.0000 C   0  0  0  0  0  0  0  0  0  0  0  0
  -23.6552  -16.2215    0.3625 C   0  0  0  0  0  0  0  0  0  0  0  0
  -24.4204  -17.5287   -0.4124 C   0  0  0  0  0  0  0  0  0  0  0  0
  -25.9808  -18.0000    0.0000 C   0  0  0  0  0  0  0  0  0  0  0  0
  -27.2798  -18.7500    0.0000 C   0  0  3  0  0  0  0  0  0  0  0  0
  -28.5788  -19.5000    0.0000 C   0  0  0  0  0  0  0  0  0  0  0  0
  -26.5298  -20.0490    0.0000 C   0  0  0  0  0  0  0  0  0  0  0  0
  -25.7798  -21.3481    0.0000 C   0  0  0  0  0  0  0  0  0  0  0  0
   -4.0039   -1.2769   -0.0520 O   0  0  0  0  0  0  0  0  0  0  0  0
   -4.8754   -0.4324   -0.7232 C   0  0  0  0  0  0  0  0  0  0  0  0
   -5.4435   -0.8127   -1.7361 O   0  0  0  0  0  0  0  0  0  0  0  0
   -5.1315    0.9920   -0.1794 C   0  0  0  0  0  0  0  0  0  0  0  0
   -6.3083    1.8881   -0.7652 C   0  0  0  0  0  0  0  0  0  0  0  0
   -6.3564    3.2912   -0.0384 C   0  0  0  0  0  0  0  0  0  0  0  0
   -7.6989    4.1269    0.0901 C   0  0  0  0  0  0  0  0  0  0  0  0
   -8.1021    5.4360   -0.7368 C   0  0  0  0  0  0  0  0  0  0  0  0
   -9.3481    6.0933    0.0000 C   0  0  0  0  0  0  0  0  0  0  0  0
  -10.0981    7.3923    0.0000 C   0  0  0  0  0  0  0  0  0  0  0  0
  -10.8481    8.6913    0.0000 C   0  0  0  0  0  0  0  0  0  0  0  0
  -11.5981    9.9904    0.0000 C   0  0  0  0  0  0  0  0  0  0  0  0
   16.2287    8.1133   -0.2049 H   0  0  0  0  0  0  0  0  0  0  0  0
   15.4196    9.6206   -0.9143 H   0  0  0  0  0  0  0  0  0  0  0  0
   16.5152    9.5350    0.0000 H   0  0  0  0  0  0  0  0  0  0  0  0
   13.5773    9.1032    0.0735 H   0  0  0  0  0  0  0  0  0  0  0  0
   14.2389    7.8882   -1.0576 H   0  0  0  0  0  0  0  0  0  0  0  0
   13.1276    7.2606    1.7323 H   0  0  0  0  0  0  0  0  0  0  0  0
   13.8148    6.0736    0.5844 H   0  0  0  0  0  0  0  0  0  0  0  0
   11.9715    6.6806   -1.0811 H   0  0  0  0  0  0  0  0  0  0  0  0
   11.3114    7.7985    0.0610 H   0  0  0  0  0  0  0  0  0  0  0  0
   11.0839    5.0995   -0.0781 H   0  0  0  0  0  0  0  0  0  0  0  0
   10.2248    6.3151    1.0636 H   0  0  0  0  0  0  0  0  0  0  0  0
    9.3250    4.8852   -1.0468 H   0  0  0  0  0  0  0  0  0  0  0  0
    9.4541    4.4426    0.7229 H   0  0  0  0  0  0  0  0  0  0  0  0
    7.5632    4.8626    1.0482 H   0  0  0  0  0  0  0  0  0  0  0  0
    7.4317    5.3096   -0.7191 H   0  0  0  0  0  0  0  0  0  0  0  0
    5.8028    4.6479    0.0901 H   0  0  0  0  0  0  0  0  0  0  0  0
    6.6595    3.4435   -1.0670 H   0  0  0  0  0  0  0  0  0  0  0  0
    4.9058    3.0362    1.0793 H   0  0  0  0  0  0  0  0  0  0  0  0
    5.5747    1.9526   -0.0910 H   0  0  0  0  0  0  0  0  0  0  0  0
    3.1128    3.7035   -0.5491 H   0  0  0  0  0  0  0  0  0  0  0  0
    3.8564    2.6481   -1.7932 H   0  0  0  0  0  0  0  0  0  0  0  0
    3.3776    0.5678   -0.3762 H   0  0  0  0  0  0  0  0  0  0  0  0
    2.6597    1.5753    0.9096 H   0  0  0  0  0  0  0  0  0  0  0  0
    0.5754    1.9573   -0.5164 H   0  0  0  0  0  0  0  0  0  0  0  0
    1.2879    0.9972   -1.8486 H   0  0  0  0  0  0  0  0  0  0  0  0
   -0.9839   -2.7630   -0.5722 H   0  0  0  0  0  0  0  0  0  0  0  0
   -1.5493   -1.9740    0.9197 H   0  0  0  0  0  0  0  0  0  0  0  0
   -3.2811   -2.3245   -1.6772 H   0  0  0  0  0  0  0  0  0  0  0  0
   -3.4832   -3.8841    1.0573 H   0  0  0  0  0  0  0  0  0  0  0  0
   -2.8790   -4.5219   -0.4815 H   0  0  0  0  0  0  0  0  0  0  0  0
   -6.0788   -7.4774   -0.7439 H   0  0  0  0  0  0  0  0  0  0  0  0
   -6.2623   -6.8901    1.1058 H   0  0  0  0  0  0  0  0  0  0  0  0
   -7.3706   -8.3930    0.5717 H   0  0  0  0  0  0  0  0  0  0  0  0
   -8.2089   -6.7693    0.7642 H   0  0  0  0  0  0  0  0  0  0  0  0
   -8.6926   -8.9818   -0.7653 H   0  0  0  0  0  0  0  0  0  0  0  0
   -9.5013   -7.3509   -0.5779 H   0  0  0  0  0  0  0  0  0  0  0  0
  -10.6787   -8.7795   -1.0821 H   0  0  0  0  0  0  0  0  0  0  0  0
  -10.8459   -8.2436    0.6939 H   0  0  0  0  0  0  0  0  0  0  0  0
  -11.3846  -10.6126   -0.6502 H   0  0  0  0  0  0  0  0  0  0  0  0
  -11.5942  -10.1794    1.0266 H   0  0  0  0  0  0  0  0  0  0  0  0
  -13.8586   -9.3932    0.5666 H   0  0  0  0  0  0  0  0  0  0  0  0
  -13.6344   -9.7881   -1.1626 H   0  0  0  0  0  0  0  0  0  0  0  0
  -13.6488  -11.9254    1.1655 H   0  0  0  0  0  0  0  0  0  0  0  0
  -13.4197  -12.3161   -0.5627 H   0  0  0  0  0  0  0  0  0  0  0  0
  -15.7107  -11.5910   -1.0247 H   0  0  0  0  0  0  0  0  0  0  0  0
  -15.9379  -11.2016    0.6874 H   0  0  0  0  0  0  0  0  0  0  0  0
  -17.8175  -14.0556    0.8960 H   0  0  0  0  0  0  0  0  0  0  0  0
  -17.8174  -14.0557   -0.8959 H   0  0  0  0  0  0  0  0  0  0  0  0
  -19.8547  -13.6942    0.8958 H   0  0  0  0  0  0  0  0  0  0  0  0
  -19.8546  -13.6945   -0.8961 H   0  0  0  0  0  0  0  0  0  0  0  0
  -22.2444  -15.6610   -1.0947 H   0  0  0  0  0  0  0  0  0  0  0  0
  -21.6238  -16.7480    0.1573 H   0  0  0  0  0  0  0  0  0  0  0  0
  -23.6749  -16.4406    1.4508 H   0  0  0  0  0  0  0  0  0  0  0  0
  -24.3012  -15.3341    0.1956 H   0  0  0  0  0  0  0  0  0  0  0  0
  -23.7706  -18.4144   -0.2516 H   0  0  0  0  0  0  0  0  0  0  0  0
  -24.4190  -17.3128   -1.5014 H   0  0  0  0  0  0  0  0  0  0  0  0
  -26.4167  -16.9806   -0.1394 H   0  0  0  0  0  0  0  0  0  0  0  0
  -25.7850  -17.9633    1.1016 H   0  0  0  0  0  0  0  0  0  0  0  0
  -27.4751  -18.4953   -1.0811 H   0  0  0  0  0  0  0  0  0  0  0  0
  -29.2491  -18.6066   -0.0703 H   0  0  0  0  0  0  0  0  0  0  0  0
  -28.6012  -19.7648    1.0903 H   0  0  0  0  0  0  0  0  0  0  0  0
  -29.5054  -20.0350    0.0000 H   0  0  0  0  0  0  0  0  0  0  0  0
  -25.9450  -19.9269   -0.9858 H   0  0  0  0  0  0  0  0  0  0  0  0
  -26.1548  -19.9583    1.0723 H   0  0  0  0  0  0  0  0  0  0  0  0
  -26.3144  -21.8810    0.8372 H   0  0  0  0  0  0  0  0  0  0  0  0
  -26.2609  -21.8414   -0.8947 H   0  0  0  0  0  0  0  0  0  0  0  0
  -25.2448  -22.2748    0.0000 H   0  0  0  0  0  0  0  0  0  0  0  0
   -4.1749    1.5486   -0.2728 H   0  0  0  0  0  0  0  0  0  0  0  0
   -5.3435    0.8666    0.9040 H   0  0  0  0  0  0  0  0  0  0  0  0
   -7.2516    1.3412   -0.5486 H   0  0  0  0  0  0  0  0  0  0  0  0
   -6.2279    2.0310   -1.8632 H   0  0  0  0  0  0  0  0  0  0  0  0
   -6.1801    2.9872    1.0183 H   0  0  0  0  0  0  0  0  0  0  0  0
   -5.4903    3.9369   -0.2965 H   0  0  0  0  0  0  0  0  0  0  0  0
   -8.5547    3.4219    0.1608 H   0  0  0  0  0  0  0  0  0  0  0  0
   -7.5774    4.5482    1.1131 H   0  0  0  0  0  0  0  0  0  0  0  0
   -8.3379    5.1978   -1.7955 H   0  0  0  0  0  0  0  0  0  0  0  0
   -7.2517    6.1489   -0.7023 H   0  0  0  0  0  0  0  0  0  0  0  0
   -9.0344    6.0866    1.0712 H   0  0  0  0  0  0  0  0  0  0  0  0
  -10.1365    5.3008   -0.0357 H   0  0  0  0  0  0  0  0  0  0  0  0
   -9.1280    7.9439    0.1190 H   0  0  0  0  0  0  0  0  0  0  0  0
  -10.3127    7.1204   -1.0797 H   0  0  0  0  0  0  0  0  0  0  0  0
  -10.4437    9.0564   -0.9976 H   0  0  0  0  0  0  0  0  0  0  0  0
  -11.8167    8.1369   -0.1279 H   0  0  0  0  0  0  0  0  0  0  0  0
  -12.1118    9.8447    0.9821 H   0  0  0  0  0  0  0  0  0  0  0  0
  -10.7251   10.6507    0.2387 H   0  0  0  0  0  0  0  0  0  0  0  0
  -12.1331   10.9171    0.0000 H   0  0  0  0  0  0  0  0  0  0  0  0
  1  2  1  0  0  0  0
  1 54  1  0  0  0  0
  1 55  1  0  0  0  0
  1 56  1  0  0  0  0
  2  3  1  0  0  0  0
  2 57  1  0  0  0  0
  2 58  1  0  0  0  0
  3  4  1  0  0  0  0
  3 59  1  0  0  0  0
  3 60  1  0  0  0  0
  4  5  1  0  0  0  0
  4 61  1  0  0  0  0
  4 62  1  0  0  0  0
  5  6  1  0  0  0  0
  5 63  1  0  0  0  0
  5 64  1  0  0  0  0
  6  7  1  0  0  0  0
  6 65  1  0  0  0  0
  6 66  1  0  0  0  0
  7  8  1  0  0  0  0
  7 67  1  0  0  0  0
  7 68  1  0  0  0  0
  8  9  1  0  0  0  0
  8 69  1  0  0  0  0
  8 70  1  0  0  0  0
  9 10  1  0  0  0  0
  9 71  1  0  0  0  0
  9 72  1  0  0  0  0
 10 11  1  0  0  0  0
 10 73  1  0  0  0  0
 10 74  1  0  0  0  0
 11 12  1  0  0  0  0
 11 75  1  0  0  0  0
 11 76  1  0  0  0  0
 12 13  1  0  0  0  0
 12 77  1  0  0  0  0
 12 78  1  0  0  0  0
 13 14  2  0  0  0  0
 13 15  1  0  0  0  0
 15 16  1  0  0  0  0
 16 79  1  0  0  0  0
 16 80  1  0  0  0  0
 17 16  1  0  0  0  0
 17 18  1  0  0  0  0
 17 42  1  0  0  0  0
 17 81  1  1  0  0  0
 18 19  1  0  0  0  0
 18 82  1  0  0  0  0
 18 83  1  0  0  0  0
 19 20  1  0  0  0  0
 20 21  2  0  0  0  0
 20 22  1  0  0  0  0
 22 23  1  0  0  0  0
 22 84  1  0  0  0  0
 22 85  1  0  0  0  0
 23 24  1  0  0  0  0
 23 86  1  0  0  0  0
 23 87  1  0  0  0  0
 24 25  1  0  0  0  0
 24 88  1  0  0  0  0
 24 89  1  0  0  0  0
 25 26  1  0  0  0  0
 25 90  1  0  0  0  0
 25 91  1  0  0  0  0
 26 27  1  0  0  0  0
 26 92  1  0  0  0  0
 26 93  1  0  0  0  0
 27 28  1  0  0  0  0
 27 94  1  0  0  0  0
 27 95  1  0  0  0  0
 28 29  1  0  0  0  0
 28 96  1  0  0  0  0
 28 97  1  0  0  0  0
 29 30  1  0  0  0  0
 29 98  1  0  0  0  0
 29 99  1  0  0  0  0
 30 31  1  0  0  0  0
 31 32  1  0  0  0  0
 31100  1  0  0  0  0
 31101  1  0  0  0  0
 32 33  1  0  0  0  0
 32102  1  0  0  0  0
 32103  1  0  0  0  0
 33 34  1  0  0  0  0
 34 35  1  0  0  0  0
 34104  1  0  0  0  0
 34105  1  0  0  0  0
 35 36  1  0  0  0  0
 35106  1  0  0  0  0
 35107  1  0  0  0  0
 36 37  1  0  0  0  0
 36108  1  0  0  0  0
 36109  1  0  0  0  0
 37 38  1  0  0  0  0
 37110  1  0  0  0  0
 37111  1  0  0  0  0
 38 39  1  0  0  0  0
 38 40  1  0  0  0  0
 38112  1  0  0  0  0
 39113  1  0  0  0  0
 39114  1  0  0  0  0
 39115  1  0  0  0  0
 40 41  1  0  0  0  0
 40116  1  0  0  0  0
 40117  1  0  0  0  0
 41118  1  0  0  0  0
 41119  1  0  0  0  0
 41120  1  0  0  0  0
 42 43  1  0  0  0  0
 43 44  2  0  0  0  0
 43 45  1  0  0  0  0
 45 46  1  0  0  0  0
 45121  1  0  0  0  0
 45122  1  0  0  0  0
 46 47  1  0  0  0  0
 46123  1  0  0  0  0
 46124  1  0  0  0  0
 47 48  1  0  0  0  0
 47125  1  0  0  0  0
 47126  1  0  0  0  0
 48 49  1  0  0  0  0
 48127  1  0  0  0  0
 48128  1  0  0  0  0
 49 50  1  0  0  0  0
 49129  1  0  0  0  0
 49130  1  0  0  0  0
 50 51  1  0  0  0  0
 50131  1  0  0  0  0
 50132  1  0  0  0  0
 51 52  1  0  0  0  0
 51133  1  0  0  0  0
 51134  1  0  0  0  0
 52 53  1  0  0  0  0
 52135  1  0  0  0  0
 52136  1  0  0  0  0
 53137  1  0  0  0  0
 53138  1  0  0  0  0
 53139  1  0  0  0  0
M  END
>  <IDENTIFIER>
CNP0543962.1

>  <Energy>
10635.3

$$$$
