
 OpenBabel09092521023D

 75 77  0  0  0  0  0  0  0  0999 V2000
    6.8447    2.7947    0.1686 C   0  0  0  0  0  0  0  0  0  0  0  0
    5.6082    2.9538    0.7606 O   0  0  0  0  0  0  0  0  0  0  0  0
    4.6080    2.0362    0.7816 C   0  0  0  0  0  0  0  0  0  0  0  0
    3.4648    2.3307    1.5105 C   0  0  0  0  0  0  0  0  0  0  0  0
    2.4103    1.4143    1.6142 C   0  0  0  0  0  0  0  0  0  0  0  0
    2.4973    0.1695    0.9416 C   0  0  0  0  0  0  0  0  0  0  0  0
    3.6485   -0.1532    0.1827 C   0  0  0  0  0  0  0  0  0  0  0  0
    4.6937    0.8020    0.1244 C   0  0  0  0  0  0  0  0  0  0  0  0
    3.8451   -1.4302   -0.4720 N   0  0  0  0  0  0  0  0  0  0  0  0
    5.1900   -2.0156   -0.4281 C   0  0  0  0  0  0  0  0  0  0  0  0
    2.8979   -2.1439   -1.1857 C   0  0  0  0  0  0  0  0  0  0  0  0
    3.2531   -3.1900   -1.7156 O   0  0  0  0  0  0  0  0  0  0  0  0
    1.4665   -1.7161   -1.5079 C   0  0  0  0  0  0  0  0  0  0  0  0
    0.4122   -2.8283   -1.1605 C   0  0  2  0  0  0  0  0  0  0  0  0
    0.8592   -4.1129   -1.5270 O   0  0  0  0  0  0  0  0  0  0  0  0
   -0.9593   -2.6092   -1.8179 C   0  0  0  0  0  0  0  0  0  0  0  0
   -0.9958   -2.5095   -3.3301 C   0  0  0  0  0  0  0  0  0  0  0  0
   -2.0798   -2.5623   -1.0359 C   0  0  0  0  0  0  0  0  0  0  0  0
   -3.5675   -2.3894   -1.4176 C   0  0  2  0  0  0  0  0  0  0  0  0
   -3.9480   -2.3882   -2.9068 C   0  0  0  0  0  0  0  0  0  0  0  0
   -4.1681   -1.1336   -0.7324 C   0  0  2  0  0  0  0  0  0  0  0  0
   -3.2982    0.1266   -0.8844 C   0  0  0  0  0  0  0  0  0  0  0  0
   -3.9326    1.3320   -0.1178 C   0  0  1  0  0  0  0  0  0  0  0  0
   -4.8648    1.9850   -0.9463 O   0  0  0  0  0  0  0  0  0  0  0  0
   -4.6245    0.9036    1.0989 N   0  0  0  0  0  0  0  0  0  0  0  0
   -4.7662   -0.4041    1.4460 C   0  0  0  0  0  0  0  0  0  0  0  0
   -5.2884   -0.7019    2.5083 O   0  0  0  0  0  0  0  0  0  0  0  0
   -4.3357   -1.3812    0.6153 O   0  0  0  0  0  0  0  0  0  0  0  0
   -2.8133    2.3620    0.2588 C   0  0  2  0  0  0  0  0  0  0  0  0
   -2.2590    2.8835   -0.9422 O   0  0  0  0  0  0  0  0  0  0  0  0
   -2.3879    4.2874   -0.9920 C   0  0  0  0  0  0  0  0  0  0  0  0
   -1.6715    1.7603    1.0769 C   0  0  0  0  0  0  0  0  0  0  0  0
   -1.8532    1.1641    2.2720 C   0  0  0  0  0  0  0  0  0  0  0  0
   -0.8230    0.4803    3.0999 C   0  0  0  0  0  0  0  0  0  0  0  0
    0.5128    0.6948    3.1840 C   0  0  0  0  0  0  0  0  0  0  0  0
    1.3282   -0.1703    4.1235 C   0  0  0  0  0  0  0  0  0  0  0  0
    1.2508    1.8234    2.4984 C   0  0  0  0  0  0  0  0  0  0  0  0
    7.4527    3.7056    0.3458 H   0  0  0  0  0  0  0  0  0  0  0  0
    6.7319    2.6491   -0.9263 H   0  0  0  0  0  0  0  0  0  0  0  0
    7.3744    1.9271    0.6182 H   0  0  0  0  0  0  0  0  0  0  0  0
    3.4120    3.2825    2.0283 H   0  0  0  0  0  0  0  0  0  0  0  0
    1.6966   -0.5493    1.0444 H   0  0  0  0  0  0  0  0  0  0  0  0
    5.5850    0.5863   -0.4469 H   0  0  0  0  0  0  0  0  0  0  0  0
    5.8985   -1.4551    0.2130 H   0  0  0  0  0  0  0  0  0  0  0  0
    5.6116   -2.0773   -1.4555 H   0  0  0  0  0  0  0  0  0  0  0  0
    5.1416   -3.0365    0.0090 H   0  0  0  0  0  0  0  0  0  0  0  0
    1.4788   -1.5642   -2.6040 H   0  0  0  0  0  0  0  0  0  0  0  0
    1.1635   -0.7413   -1.0858 H   0  0  0  0  0  0  0  0  0  0  0  0
    0.3229   -2.8435   -0.0523 H   0  0  0  0  0  0  0  0  0  0  0  0
    1.0408   -4.1183   -2.5021 H   0  0  0  0  0  0  0  0  0  0  0  0
    0.0038   -2.5968   -3.7933 H   0  0  0  0  0  0  0  0  0  0  0  0
   -1.3903   -1.5233   -3.6410 H   0  0  0  0  0  0  0  0  0  0  0  0
   -1.5721   -3.3460   -3.7638 H   0  0  0  0  0  0  0  0  0  0  0  0
   -1.9283   -2.6567    0.0363 H   0  0  0  0  0  0  0  0  0  0  0  0
   -4.1064   -3.2758   -1.0146 H   0  0  0  0  0  0  0  0  0  0  0  0
   -3.5413   -1.5157   -3.4496 H   0  0  0  0  0  0  0  0  0  0  0  0
   -5.0541   -2.3379   -3.0048 H   0  0  0  0  0  0  0  0  0  0  0  0
   -3.6636   -3.3467   -3.3822 H   0  0  0  0  0  0  0  0  0  0  0  0
   -5.1816   -0.9440   -1.1528 H   0  0  0  0  0  0  0  0  0  0  0  0
   -3.0810    0.3938   -1.9409 H   0  0  0  0  0  0  0  0  0  0  0  0
   -2.3336   -0.1327   -0.4070 H   0  0  0  0  0  0  0  0  0  0  0  0
   -5.6000    1.3479   -1.1407 H   0  0  0  0  0  0  0  0  0  0  0  0
   -5.0173    1.6294    1.7197 H   0  0  0  0  0  0  0  0  0  0  0  0
   -3.2908    3.1530    0.8897 H   0  0  0  0  0  0  0  0  0  0  0  0
   -1.8911    4.6546   -1.9130 H   0  0  0  0  0  0  0  0  0  0  0  0
   -1.8766    4.7696   -0.1289 H   0  0  0  0  0  0  0  0  0  0  0  0
   -3.4587    4.5832   -1.0492 H   0  0  0  0  0  0  0  0  0  0  0  0
   -0.6931    1.7777    0.6184 H   0  0  0  0  0  0  0  0  0  0  0  0
   -2.8485    1.0946    2.6786 H   0  0  0  0  0  0  0  0  0  0  0  0
   -1.2431   -0.2846    3.7476 H   0  0  0  0  0  0  0  0  0  0  0  0
    0.7179   -0.9493    4.6282 H   0  0  0  0  0  0  0  0  0  0  0  0
    1.7856    0.4662    4.9101 H   0  0  0  0  0  0  0  0  0  0  0  0
    2.1385   -0.6850    3.5688 H   0  0  0  0  0  0  0  0  0  0  0  0
    1.6741    2.4002    3.3510 H   0  0  0  0  0  0  0  0  0  0  0  0
    0.6350    2.5830    1.9921 H   0  0  0  0  0  0  0  0  0  0  0  0
  1  2  1  0  0  0  0
  1 38  1  0  0  0  0
  1 39  1  0  0  0  0
  1 40  1  0  0  0  0
  2  3  1  0  0  0  0
  3  4  2  0  0  0  0
  4  5  1  0  0  0  0
  4 41  1  0  0  0  0
  5  6  2  0  0  0  0
  6  7  1  0  0  0  0
  6 42  1  0  0  0  0
  7  8  2  0  0  0  0
  7  9  1  0  0  0  0
  8  3  1  0  0  0  0
  8 43  1  0  0  0  0
  9 10  1  0  0  0  0
  9 11  1  0  0  0  0
 10 44  1  0  0  0  0
 10 45  1  0  0  0  0
 10 46  1  0  0  0  0
 11 12  2  0  0  0  0
 11 13  1  0  0  0  0
 13 14  1  0  0  0  0
 13 47  1  0  0  0  0
 13 48  1  0  0  0  0
 14 15  1  0  0  0  0
 14 16  1  0  0  0  0
 14 49  1  1  0  0  0
 15 50  1  0  0  0  0
 16 17  1  0  0  0  0
 16 18  2  0  0  0  0
 17 51  1  0  0  0  0
 17 52  1  0  0  0  0
 17 53  1  0  0  0  0
 18 19  1  0  0  0  0
 18 54  1  0  0  0  0
 19 20  1  0  0  0  0
 19 21  1  0  0  0  0
 19 55  1  1  0  0  0
 20 56  1  0  0  0  0
 20 57  1  0  0  0  0
 20 58  1  0  0  0  0
 21 22  1  0  0  0  0
 21 28  1  0  0  0  0
 21 59  1  6  0  0  0
 22 23  1  0  0  0  0
 22 60  1  0  0  0  0
 22 61  1  0  0  0  0
 23 24  1  6  0  0  0
 23 25  1  0  0  0  0
 23 29  1  0  0  0  0
 24 62  1  0  0  0  0
 25 26  1  0  0  0  0
 25 63  1  0  0  0  0
 26 27  2  0  0  0  0
 26 28  1  0  0  0  0
 29 30  1  0  0  0  0
 29 32  1  0  0  0  0
 29 64  1  1  0  0  0
 30 31  1  0  0  0  0
 31 65  1  0  0  0  0
 31 66  1  0  0  0  0
 31 67  1  0  0  0  0
 32 33  2  0  0  0  0
 32 68  1  0  0  0  0
 33 34  1  0  0  0  0
 33 69  1  0  0  0  0
 34 35  2  0  0  0  0
 34 70  1  0  0  0  0
 35 36  1  0  0  0  0
 35 37  1  0  0  0  0
 36 71  1  0  0  0  0
 36 72  1  0  0  0  0
 36 73  1  0  0  0  0
 37  5  1  0  0  0  0
 37 74  1  0  0  0  0
 37 75  1  0  0  0  0
M  END
>  <IDENTIFIER>
CNP0176667.1

>  <Energy>
744.404

$$$$
