
 OpenBabel09062501213D

 74 75  0  0  0  0  0  0  0  0999 V2000
   -7.3408    1.2518    1.7641 C   0  0  0  0  0  0  0  0  0  0  0  0
   -7.8540    0.0053    1.0476 C   0  0  0  0  0  0  0  0  0  0  0  0
   -6.8156   -1.1211    0.7716 C   0  0  1  0  0  0  0  0  0  0  0  0
   -7.5975   -2.3720    0.3239 C   0  0  0  0  0  0  0  0  0  0  0  0
   -5.6495   -0.8045   -0.2290 C   0  0  2  0  0  0  0  0  0  0  0  0
   -4.6761    0.1213    0.3520 N   0  0  0  0  0  0  0  0  0  0  0  0
   -3.4148   -0.2543    0.7103 C   0  0  0  0  0  0  0  0  0  0  0  0
   -3.0719   -1.4255    0.6212 O   0  0  0  0  0  0  0  0  0  0  0  0
   -2.4205    0.7863    1.2132 C   0  0  1  0  0  0  0  0  0  0  0  0
   -1.0737    0.1480    1.6803 C   0  0  0  0  0  0  0  0  0  0  0  0
   -0.1731   -0.0950    0.4734 C   0  0  0  0  0  0  0  0  0  0  0  0
    0.2236    1.2584   -0.2037 C   0  0  2  0  0  0  0  0  0  0  0  0
    1.6591    1.6921    0.1702 C   0  0  0  0  0  0  0  0  0  0  0  0
    2.6241    0.6645   -0.1918 N   0  0  0  0  0  0  0  0  0  0  0  0
    2.8850    0.3118   -1.4872 C   0  0  0  0  0  0  0  0  0  0  0  0
    2.3433    0.9146   -2.4035 O   0  0  0  0  0  0  0  0  0  0  0  0
    3.8372   -0.8188   -1.8573 C   0  0  2  0  0  0  0  0  0  0  0  0
    3.1192   -1.9457   -2.6134 C   0  0  0  0  0  0  0  0  0  0  0  0
    2.5911   -2.8028   -1.4804 C   0  0  0  0  0  0  0  0  0  0  0  0
    3.7818   -2.8218   -0.5242 C   0  0  0  0  0  0  0  0  0  0  0  0
    4.3738   -1.5109   -0.7003 N   0  0  0  0  0  0  0  0  0  0  0  0
    5.3593   -1.0123    0.0934 C   0  0  0  0  0  0  0  0  0  0  0  0
    5.7794   -1.6746    1.0318 O   0  0  0  0  0  0  0  0  0  0  0  0
    5.8543    0.2316   -0.1618 O   0  0  0  0  0  0  0  0  0  0  0  0
    6.8285    0.9335    0.5381 C   0  0  0  0  0  0  0  0  0  0  0  0
    6.9925    2.2955   -0.1524 C   0  0  0  0  0  0  0  0  0  0  0  0
    6.3885    1.1683    1.9981 C   0  0  0  0  0  0  0  0  0  0  0  0
    8.1753    0.1849    0.4929 C   0  0  0  0  0  0  0  0  0  0  0  0
   -0.7830    2.4060    0.1175 C   0  0  0  0  0  0  0  0  0  0  0  0
   -2.2048    1.8478    0.0850 C   0  0  0  0  0  0  0  0  0  0  0  0
   -6.0993   -0.3012   -1.5929 C   0  0  0  0  0  0  0  0  0  0  0  0
   -5.8236    0.8348   -1.9477 O   0  0  0  0  0  0  0  0  0  0  0  0
   -6.7341   -1.1106   -2.4679 O   0  0  0  0  0  0  0  0  0  0  0  0
   -8.2081    1.8871    2.0424 H   0  0  0  0  0  0  0  0  0  0  0  0
   -6.7137    1.8786    1.1122 H   0  0  0  0  0  0  0  0  0  0  0  0
   -6.7988    0.9719    2.6927 H   0  0  0  0  0  0  0  0  0  0  0  0
   -8.3667    0.3033    0.1075 H   0  0  0  0  0  0  0  0  0  0  0  0
   -8.6229   -0.4224    1.7291 H   0  0  0  0  0  0  0  0  0  0  0  0
   -6.3381   -1.4045    1.7364 H   0  0  0  0  0  0  0  0  0  0  0  0
   -8.1971   -2.1744   -0.5861 H   0  0  0  0  0  0  0  0  0  0  0  0
   -8.3079   -2.6841    1.1190 H   0  0  0  0  0  0  0  0  0  0  0  0
   -6.9083   -3.2245    0.1425 H   0  0  0  0  0  0  0  0  0  0  0  0
   -5.1302   -1.7696   -0.4136 H   0  0  0  0  0  0  0  0  0  0  0  0
   -4.9199    1.1097    0.4623 H   0  0  0  0  0  0  0  0  0  0  0  0
   -2.8463    1.2666    2.1214 H   0  0  0  0  0  0  0  0  0  0  0  0
   -1.2665   -0.7772    2.2649 H   0  0  0  0  0  0  0  0  0  0  0  0
   -0.5303    0.8406    2.3608 H   0  0  0  0  0  0  0  0  0  0  0  0
   -0.7576   -0.7082   -0.2457 H   0  0  0  0  0  0  0  0  0  0  0  0
    0.7186   -0.6985    0.7415 H   0  0  0  0  0  0  0  0  0  0  0  0
    0.1905    1.0698   -1.2969 H   0  0  0  0  0  0  0  0  0  0  0  0
    1.6982    1.8569    1.2698 H   0  0  0  0  0  0  0  0  0  0  0  0
    1.9307    2.6476   -0.3301 H   0  0  0  0  0  0  0  0  0  0  0  0
    3.1041    0.1889    0.5834 H   0  0  0  0  0  0  0  0  0  0  0  0
    4.6442   -0.4175   -2.5101 H   0  0  0  0  0  0  0  0  0  0  0  0
    3.8889   -2.5565   -3.1392 H   0  0  0  0  0  0  0  0  0  0  0  0
    2.3683   -1.6163   -3.3633 H   0  0  0  0  0  0  0  0  0  0  0  0
    2.2163   -3.8082   -1.7667 H   0  0  0  0  0  0  0  0  0  0  0  0
    1.7608   -2.2368   -1.0006 H   0  0  0  0  0  0  0  0  0  0  0  0
    4.5363   -3.5872   -0.8094 H   0  0  0  0  0  0  0  0  0  0  0  0
    3.4219   -3.0001    0.5123 H   0  0  0  0  0  0  0  0  0  0  0  0
    6.0302    2.8521   -0.1414 H   0  0  0  0  0  0  0  0  0  0  0  0
    7.2985    2.1580   -1.2122 H   0  0  0  0  0  0  0  0  0  0  0  0
    7.7625    2.9113    0.3612 H   0  0  0  0  0  0  0  0  0  0  0  0
    5.4158    1.7052    2.0254 H   0  0  0  0  0  0  0  0  0  0  0  0
    7.1444    1.7780    2.5388 H   0  0  0  0  0  0  0  0  0  0  0  0
    6.2728    0.2135    2.5489 H   0  0  0  0  0  0  0  0  0  0  0  0
    8.4878    0.0201   -0.5605 H   0  0  0  0  0  0  0  0  0  0  0  0
    8.1099   -0.8019    0.9940 H   0  0  0  0  0  0  0  0  0  0  0  0
    8.9653    0.7737    1.0077 H   0  0  0  0  0  0  0  0  0  0  0  0
   -0.6477    3.2286   -0.6178 H   0  0  0  0  0  0  0  0  0  0  0  0
   -0.6116    2.8289    1.1321 H   0  0  0  0  0  0  0  0  0  0  0  0
   -2.3118    1.3796   -0.9205 H   0  0  0  0  0  0  0  0  0  0  0  0
   -2.9782    2.6420    0.1638 H   0  0  0  0  0  0  0  0  0  0  0  0
   -6.8575   -2.0548   -2.3074 H   0  0  0  0  0  0  0  0  0  0  0  0
  1  2  1  0  0  0  0
  1 34  1  0  0  0  0
  1 35  1  0  0  0  0
  1 36  1  0  0  0  0
  2  3  1  0  0  0  0
  2 37  1  0  0  0  0
  2 38  1  0  0  0  0
  3  4  1  0  0  0  0
  3  5  1  0  0  0  0
  3 39  1  1  0  0  0
  4 40  1  0  0  0  0
  4 41  1  0  0  0  0
  4 42  1  0  0  0  0
  5  6  1  0  0  0  0
  5 31  1  0  0  0  0
  5 43  1  6  0  0  0
  6  7  1  0  0  0  0
  6 44  1  0  0  0  0
  7  8  2  0  0  0  0
  9  7  1  0  0  0  0
  9 10  1  0  0  0  0
  9 45  1  1  0  0  0
 10 11  1  0  0  0  0
 10 46  1  0  0  0  0
 10 47  1  0  0  0  0
 11 12  1  0  0  0  0
 11 48  1  0  0  0  0
 11 49  1  0  0  0  0
 12 13  1  0  0  0  0
 12 29  1  0  0  0  0
 12 50  1  6  0  0  0
 13 14  1  0  0  0  0
 13 51  1  0  0  0  0
 13 52  1  0  0  0  0
 14 15  1  0  0  0  0
 14 53  1  0  0  0  0
 15 16  2  0  0  0  0
 17 15  1  0  0  0  0
 17 18  1  0  0  0  0
 17 54  1  6  0  0  0
 18 19  1  0  0  0  0
 18 55  1  0  0  0  0
 18 56  1  0  0  0  0
 19 20  1  0  0  0  0
 19 57  1  0  0  0  0
 19 58  1  0  0  0  0
 20 21  1  0  0  0  0
 20 59  1  0  0  0  0
 20 60  1  0  0  0  0
 21 22  1  0  0  0  0
 21 17  1  0  0  0  0
 22 23  2  0  0  0  0
 22 24  1  0  0  0  0
 24 25  1  0  0  0  0
 25 26  1  0  0  0  0
 25 27  1  0  0  0  0
 25 28  1  0  0  0  0
 26 61  1  0  0  0  0
 26 62  1  0  0  0  0
 26 63  1  0  0  0  0
 27 64  1  0  0  0  0
 27 65  1  0  0  0  0
 27 66  1  0  0  0  0
 28 67  1  0  0  0  0
 28 68  1  0  0  0  0
 28 69  1  0  0  0  0
 29 30  1  0  0  0  0
 29 70  1  0  0  0  0
 29 71  1  0  0  0  0
 30  9  1  0  0  0  0
 30 72  1  0  0  0  0
 30 73  1  0  0  0  0
 31 32  2  0  0  0  0
 31 33  1  0  0  0  0
 33 74  1  0  0  0  0
M  END
>  <IDENTIFIER>
CNP0280733.1

>  <Energy>
555.076

$$$$
