
 OpenBabel09042522293D

 36 38  0  0  0  0  0  0  0  0999 V2000
   -3.5817   -0.7530    0.2471 C   0  0  0  0  0  0  0  0  0  0  0  0
   -2.1661   -0.6165   -0.3268 C   0  0  2  0  0  0  0  0  0  0  0  0
   -1.1091   -1.0419    0.7161 C   0  0  0  0  0  0  0  0  0  0  0  0
    0.2915   -0.8851    0.0991 C   0  0  2  0  0  0  0  0  0  0  0  0
    1.4332   -1.4587    0.9589 C   0  0  1  0  0  0  0  0  0  0  0  0
    1.1665   -2.7739    1.3791 O   0  0  0  0  0  0  0  0  0  0  0  0
    2.6593   -1.4239    0.1856 N   0  0  0  0  0  0  0  0  0  0  0  0
    2.9277   -0.3399   -0.7000 C   0  0  0  0  0  0  0  0  0  0  0  0
    4.0543   -0.2709   -1.3155 N   0  0  0  0  0  0  0  0  0  0  0  0
    1.9431    0.6685   -0.9230 N   0  0  0  0  0  0  0  0  0  0  0  0
    0.5911    0.6018   -0.3699 C   0  0  2  0  0  0  0  0  0  0  0  0
    0.4664    1.7438    0.7075 C   0  0  2  0  0  0  0  0  0  0  0  0
    1.1832    1.4562    1.8812 O   0  0  0  0  0  0  0  0  0  0  0  0
   -0.9653    2.1712    0.9936 C   0  0  0  0  0  0  0  0  0  0  0  0
   -1.1802    3.0283    1.8362 O   0  0  0  0  0  0  0  0  0  0  0  0
   -2.0056    1.6860    0.2676 O   0  0  0  0  0  0  0  0  0  0  0  0
   -1.8826    0.8234   -0.8137 C   0  0  1  0  0  0  0  0  0  0  0  0
   -0.4627    0.9088   -1.4683 C   0  0  1  0  0  0  0  0  0  0  0  0
   -0.2271    2.1583   -2.0828 O   0  0  0  0  0  0  0  0  0  0  0  0
   -3.7693   -1.8057    0.5487 H   0  0  0  0  0  0  0  0  0  0  0  0
   -4.3324   -0.4735   -0.5225 H   0  0  0  0  0  0  0  0  0  0  0  0
   -3.7165   -0.0999    1.1353 H   0  0  0  0  0  0  0  0  0  0  0  0
   -2.0965   -1.2988   -1.2043 H   0  0  0  0  0  0  0  0  0  0  0  0
   -1.2884   -2.1048    0.9880 H   0  0  0  0  0  0  0  0  0  0  0  0
   -1.1899   -0.4398    1.6451 H   0  0  0  0  0  0  0  0  0  0  0  0
    0.2960   -1.5308   -0.8117 H   0  0  0  0  0  0  0  0  0  0  0  0
    1.5715   -0.8554    1.8692 H   0  0  0  0  0  0  0  0  0  0  0  0
    1.0896   -3.3369    0.5646 H   0  0  0  0  0  0  0  0  0  0  0  0
    3.2958   -2.2359    0.1993 H   0  0  0  0  0  0  0  0  0  0  0  0
    4.7852   -0.9852   -1.1835 H   0  0  0  0  0  0  0  0  0  0  0  0
    2.2218    1.5080   -1.4549 H   0  0  0  0  0  0  0  0  0  0  0  0
    0.9192    2.6695    0.2883 H   0  0  0  0  0  0  0  0  0  0  0  0
    0.5622    1.0349    2.5315 H   0  0  0  0  0  0  0  0  0  0  0  0
   -2.6328    1.1001   -1.5862 H   0  0  0  0  0  0  0  0  0  0  0  0
   -0.4067    0.1500   -2.2805 H   0  0  0  0  0  0  0  0  0  0  0  0
   -0.6954    2.8714   -1.5786 H   0  0  0  0  0  0  0  0  0  0  0  0
  1 20  1  0  0  0  0
  1 21  1  0  0  0  0
  1 22  1  0  0  0  0
  2  1  1  0  0  0  0
  2  3  1  0  0  0  0
  2 23  1  6  0  0  0
  3 24  1  0  0  0  0
  3 25  1  0  0  0  0
  4  3  1  0  0  0  0
  4  5  1  0  0  0  0
  4 26  1  6  0  0  0
  5  6  1  0  0  0  0
  5  7  1  0  0  0  0
  5 27  1  1  0  0  0
  6 28  1  0  0  0  0
  7  8  1  0  0  0  0
  7 29  1  0  0  0  0
  8  9  2  0  0  0  0
  8 10  1  0  0  0  0
  9 30  1  0  0  0  0
 10 31  1  0  0  0  0
 11 10  1  6  0  0  0
 11 12  1  0  0  0  0
 11  4  1  0  0  0  0
 12 13  1  0  0  0  0
 12 14  1  0  0  0  0
 12 32  1  6  0  0  0
 13 33  1  0  0  0  0
 14 15  2  0  0  0  0
 14 16  1  0  0  0  0
 17 16  1  0  0  0  0
 17 18  1  0  0  0  0
 17  2  1  0  0  0  0
 17 34  1  6  0  0  0
 18 19  1  0  0  0  0
 18 11  1  0  0  0  0
 18 35  1  6  0  0  0
 19 36  1  0  0  0  0
M  END
>  <IDENTIFIER>
CNP0488204.2

>  <Energy>
314.401

$$$$
