
 OpenBabel09112514223D

 55 58  0  0  0  0  0  0  0  0999 V2000
    4.9772    0.6321   -1.0437 C   0  0  0  0  0  0  0  0  0  0  0  0
    4.1034   -0.3518   -0.2293 C   0  0  2  0  0  0  0  0  0  0  0  0
    2.8541   -0.7849   -0.9994 C   0  0  0  0  0  0  0  0  0  0  0  0
    1.6348    0.0548   -0.4351 C   0  0  1  0  0  0  0  0  0  0  0  0
    0.8353    0.5085   -1.6832 C   0  0  0  0  0  0  0  0  0  0  0  0
   -0.5800    1.0095   -1.4401 C   0  0  0  0  0  0  0  0  0  0  0  0
   -1.3915   -0.0988   -0.7196 C   0  0  2  0  0  0  0  0  0  0  0  0
   -2.9777    0.0347   -0.8437 C   0  0  2  0  0  0  0  0  0  0  0  0
   -3.3902   -0.1155   -2.3368 C   0  0  0  0  0  0  0  0  0  0  0  0
   -3.6374    1.3634   -0.3507 C   0  0  0  0  0  0  0  0  0  0  0  0
   -3.1036    2.4865   -1.0018 O   0  0  0  0  0  0  0  0  0  0  0  0
   -3.6104   -1.1675   -0.0861 C   0  0  0  0  0  0  0  0  0  0  0  0
   -3.1200   -1.2848    1.3639 C   0  0  0  0  0  0  0  0  0  0  0  0
   -1.5964   -1.4973    1.3904 C   0  0  0  0  0  0  0  0  0  0  0  0
   -0.7938   -0.3374    0.7234 C   0  0  2  0  0  0  0  0  0  0  0  0
   -0.9337    0.9359    1.6253 C   0  0  0  0  0  0  0  0  0  0  0  0
    0.7408   -0.8116    0.5678 C   0  0  2  0  0  0  0  0  0  0  0  0
    1.4373   -0.9430    1.9716 C   0  0  0  0  0  0  0  0  0  0  0  0
    2.9619   -0.9115    1.9202 C   0  0  0  0  0  0  0  0  0  0  0  0
    3.4962    0.2716    1.0251 C   0  0  2  0  0  0  0  0  0  0  0  0
    2.3515    1.1344    0.4011 C   0  0  0  0  0  0  0  0  0  0  0  0
    5.3904    0.1047   -1.9300 H   0  0  0  0  0  0  0  0  0  0  0  0
    5.8319    0.9762   -0.4238 H   0  0  0  0  0  0  0  0  0  0  0  0
    4.4397    1.5183   -1.4280 H   0  0  0  0  0  0  0  0  0  0  0  0
    4.7872   -1.2032   -0.0110 H   0  0  0  0  0  0  0  0  0  0  0  0
    2.6614   -1.8684   -0.8490 H   0  0  0  0  0  0  0  0  0  0  0  0
    3.0485   -0.6719   -2.0904 H   0  0  0  0  0  0  0  0  0  0  0  0
    0.7101   -0.3803   -2.3448 H   0  0  0  0  0  0  0  0  0  0  0  0
    1.4227    1.2542   -2.2625 H   0  0  0  0  0  0  0  0  0  0  0  0
   -0.9945    1.2140   -2.4452 H   0  0  0  0  0  0  0  0  0  0  0  0
   -0.5746    1.9698   -0.8948 H   0  0  0  0  0  0  0  0  0  0  0  0
   -1.1931   -1.0495   -1.2696 H   0  0  0  0  0  0  0  0  0  0  0  0
   -3.0367    0.7275   -2.9622 H   0  0  0  0  0  0  0  0  0  0  0  0
   -4.4972   -0.1442   -2.4385 H   0  0  0  0  0  0  0  0  0  0  0  0
   -2.9931   -1.0586   -2.7702 H   0  0  0  0  0  0  0  0  0  0  0  0
   -3.6572    1.5057    0.7395 H   0  0  0  0  0  0  0  0  0  0  0  0
   -4.7251    1.3343   -0.5793 H   0  0  0  0  0  0  0  0  0  0  0  0
   -2.6021    3.0082   -0.3225 H   0  0  0  0  0  0  0  0  0  0  0  0
   -3.3341   -2.1168   -0.5993 H   0  0  0  0  0  0  0  0  0  0  0  0
   -4.7207   -1.0986   -0.1049 H   0  0  0  0  0  0  0  0  0  0  0  0
   -3.6071   -2.1675    1.8320 H   0  0  0  0  0  0  0  0  0  0  0  0
   -3.4173   -0.4014    1.9605 H   0  0  0  0  0  0  0  0  0  0  0  0
   -1.3950   -2.4455    0.8432 H   0  0  0  0  0  0  0  0  0  0  0  0
   -1.2688   -1.6477    2.4410 H   0  0  0  0  0  0  0  0  0  0  0  0
   -0.6291    0.7540    2.6709 H   0  0  0  0  0  0  0  0  0  0  0  0
   -1.9565    1.2647    1.7688 H   0  0  0  0  0  0  0  0  0  0  0  0
   -0.3856    1.8106    1.2445 H   0  0  0  0  0  0  0  0  0  0  0  0
    0.6930   -1.8132    0.0877 H   0  0  0  0  0  0  0  0  0  0  0  0
    1.0537   -1.8049    2.5561 H   0  0  0  0  0  0  0  0  0  0  0  0
    1.2449   -0.0427    2.5722 H   0  0  0  0  0  0  0  0  0  0  0  0
    3.3366   -1.9004    1.5758 H   0  0  0  0  0  0  0  0  0  0  0  0
    3.3405   -0.7937    2.9600 H   0  0  0  0  0  0  0  0  0  0  0  0
    4.2571    0.8508    1.5922 H   0  0  0  0  0  0  0  0  0  0  0  0
    2.7649    1.9306   -0.2443 H   0  0  0  0  0  0  0  0  0  0  0  0
    1.7344    1.6642    1.1448 H   0  0  0  0  0  0  0  0  0  0  0  0
  1 22  1  0  0  0  0
  1 23  1  0  0  0  0
  1 24  1  0  0  0  0
  2  1  1  0  0  0  0
  2  3  1  0  0  0  0
  2 25  1  1  0  0  0
  3 26  1  0  0  0  0
  3 27  1  0  0  0  0
  4  3  1  6  0  0  0
  4  5  1  0  0  0  0
  5  6  1  0  0  0  0
  5 28  1  0  0  0  0
  5 29  1  0  0  0  0
  6 30  1  0  0  0  0
  6 31  1  0  0  0  0
  7  6  1  0  0  0  0
  7  8  1  0  0  0  0
  7 32  1  6  0  0  0
  8  9  1  6  0  0  0
  8 10  1  0  0  0  0
  8 12  1  0  0  0  0
  9 33  1  0  0  0  0
  9 34  1  0  0  0  0
  9 35  1  0  0  0  0
 10 11  1  0  0  0  0
 10 36  1  0  0  0  0
 10 37  1  0  0  0  0
 11 38  1  0  0  0  0
 12 13  1  0  0  0  0
 12 39  1  0  0  0  0
 12 40  1  0  0  0  0
 13 14  1  0  0  0  0
 13 41  1  0  0  0  0
 13 42  1  0  0  0  0
 14 15  1  0  0  0  0
 14 43  1  0  0  0  0
 14 44  1  0  0  0  0
 15 16  1  1  0  0  0
 15 17  1  0  0  0  0
 15  7  1  0  0  0  0
 16 45  1  0  0  0  0
 16 46  1  0  0  0  0
 16 47  1  0  0  0  0
 17 18  1  0  0  0  0
 17  4  1  0  0  0  0
 17 48  1  6  0  0  0
 18 19  1  0  0  0  0
 18 49  1  0  0  0  0
 18 50  1  0  0  0  0
 19 51  1  0  0  0  0
 19 52  1  0  0  0  0
 20 19  1  0  0  0  0
 20 21  1  0  0  0  0
 20  2  1  0  0  0  0
 20 53  1  1  0  0  0
 21  4  1  0  0  0  0
 21 54  1  0  0  0  0
 21 55  1  0  0  0  0
M  END
>  <IDENTIFIER>
CNP0224227.2

>  <Energy>
784.746

$$$$
