
 OpenBabel09132505063D

 68 70  0  0  0  0  0  0  0  0999 V2000
    7.2047   -0.4500    3.1962 C   0  0  0  0  0  0  0  0  0  0  0  0
    7.4274   -1.4976    2.1032 C   0  0  0  0  0  0  0  0  0  0  0  0
    6.1169   -2.0988    1.5742 C   0  0  0  0  0  0  0  0  0  0  0  0
    5.2626   -1.0794    0.8586 C   0  0  0  0  0  0  0  0  0  0  0  0
    4.9008   -1.2467   -0.4264 C   0  0  0  0  0  0  0  0  0  0  0  0
    4.0524   -0.2953   -1.2477 C   0  0  0  0  0  0  0  0  0  0  0  0
    3.5097    0.9783   -0.5544 C   0  0  2  0  0  0  0  0  0  0  0  0
    2.4669    0.7603    0.5522 C   0  0  0  0  0  0  0  0  0  0  0  0
    1.1463    0.1522    0.0351 C   0  0  2  0  0  0  0  0  0  0  0  0
    1.1546   -1.3560    0.0177 C   0  0  0  0  0  0  0  0  0  0  0  0
    0.1007   -2.1622   -0.2360 C   0  0  0  0  0  0  0  0  0  0  0  0
   -1.3460   -1.8305   -0.4943 C   0  0  0  0  0  0  0  0  0  0  0  0
   -2.0500   -2.8336   -1.3904 C   0  0  0  0  0  0  0  0  0  0  0  0
   -2.0295   -0.7690    0.0589 C   0  0  0  0  0  0  0  0  0  0  0  0
   -3.5066   -0.4798   -0.1929 C   0  0  1  0  0  0  0  0  0  0  0  0
   -4.3467   -1.1315    0.8782 C   0  0  0  0  0  0  0  0  0  0  0  0
   -5.6646   -1.2511    0.6446 C   0  0  0  0  0  0  0  0  0  0  0  0
   -6.2267   -0.6138   -0.6204 C   0  0  1  0  0  0  0  0  0  0  0  0
   -7.6329   -0.6593   -0.6332 O   0  0  0  0  0  0  0  0  0  0  0  0
   -5.6916    0.8411   -0.6257 C   0  0  1  0  0  0  0  0  0  0  0  0
   -6.1795    1.4156    0.5746 O   0  0  0  0  0  0  0  0  0  0  0  0
   -4.0839    0.9277   -0.7444 C   0  0  1  0  0  0  0  0  0  0  0  0
   -3.5702    2.3588   -0.2872 C   0  0  0  0  0  0  0  0  0  0  0  0
   -4.5452    3.5154   -0.0137 C   0  0  0  0  0  0  0  0  0  0  0  0
   -2.2875    2.8213   -0.1670 C   0  0  0  0  0  0  0  0  0  0  0  0
   -0.9621    2.2515   -0.4388 C   0  0  0  0  0  0  0  0  0  0  0  0
   -0.6808    1.2666   -1.2863 C   0  0  0  0  0  0  0  0  0  0  0  0
    0.7247    0.7300   -1.3764 C   0  0  1  0  0  0  0  0  0  0  0  0
    1.6991    1.7504   -1.9692 C   0  0  0  0  0  0  0  0  0  0  0  0
    1.3118    2.5398   -2.9955 O   0  0  0  0  0  0  0  0  0  0  0  0
    2.9205    1.8459   -1.5563 N   0  0  0  0  0  0  0  0  0  0  0  0
    8.1865   -0.0897    3.5688 H   0  0  0  0  0  0  0  0  0  0  0  0
    6.6471   -0.8977    4.0467 H   0  0  0  0  0  0  0  0  0  0  0  0
    6.6427    0.4243    2.8101 H   0  0  0  0  0  0  0  0  0  0  0  0
    8.0327   -2.3198    2.5431 H   0  0  0  0  0  0  0  0  0  0  0  0
    8.0054   -1.0514    1.2647 H   0  0  0  0  0  0  0  0  0  0  0  0
    5.5406   -2.5278    2.4215 H   0  0  0  0  0  0  0  0  0  0  0  0
    6.3754   -2.9336    0.8859 H   0  0  0  0  0  0  0  0  0  0  0  0
    4.9509   -0.2091    1.4143 H   0  0  0  0  0  0  0  0  0  0  0  0
    5.2479   -2.1317   -0.9522 H   0  0  0  0  0  0  0  0  0  0  0  0
    3.2088   -0.8611   -1.6916 H   0  0  0  0  0  0  0  0  0  0  0  0
    4.6992    0.0306   -2.0911 H   0  0  0  0  0  0  0  0  0  0  0  0
    4.3831    1.5154   -0.1250 H   0  0  0  0  0  0  0  0  0  0  0  0
    2.2352    1.7843    0.9257 H   0  0  0  0  0  0  0  0  0  0  0  0
    2.8283    0.1926    1.4318 H   0  0  0  0  0  0  0  0  0  0  0  0
    0.4473    0.4290    0.8442 H   0  0  0  0  0  0  0  0  0  0  0  0
    2.1087   -1.8489    0.1820 H   0  0  0  0  0  0  0  0  0  0  0  0
    0.3548   -3.2165   -0.3088 H   0  0  0  0  0  0  0  0  0  0  0  0
   -1.3729   -3.6462   -1.7279 H   0  0  0  0  0  0  0  0  0  0  0  0
   -2.4211   -2.3330   -2.3102 H   0  0  0  0  0  0  0  0  0  0  0  0
   -2.8943   -3.3075   -0.8458 H   0  0  0  0  0  0  0  0  0  0  0  0
   -1.5533   -0.1267    0.7771 H   0  0  0  0  0  0  0  0  0  0  0  0
   -3.7559   -1.1400   -1.0377 H   0  0  0  0  0  0  0  0  0  0  0  0
   -3.9083   -1.5299    1.7891 H   0  0  0  0  0  0  0  0  0  0  0  0
   -6.3120   -1.7134    1.3838 H   0  0  0  0  0  0  0  0  0  0  0  0
   -5.8718   -1.1451   -1.5285 H   0  0  0  0  0  0  0  0  0  0  0  0
   -7.9666   -0.2697    0.2191 H   0  0  0  0  0  0  0  0  0  0  0  0
   -6.1240    1.4141   -1.4742 H   0  0  0  0  0  0  0  0  0  0  0  0
   -5.5210    1.2671    1.3023 H   0  0  0  0  0  0  0  0  0  0  0  0
   -3.8037    0.8855   -1.8203 H   0  0  0  0  0  0  0  0  0  0  0  0
   -5.5964    3.3732   -0.3039 H   0  0  0  0  0  0  0  0  0  0  0  0
   -4.2638    4.3850   -0.6492 H   0  0  0  0  0  0  0  0  0  0  0  0
   -4.4898    3.8282    1.0509 H   0  0  0  0  0  0  0  0  0  0  0  0
   -2.1591    3.8345    0.2149 H   0  0  0  0  0  0  0  0  0  0  0  0
   -0.1359    2.7169    0.0937 H   0  0  0  0  0  0  0  0  0  0  0  0
   -1.4599    0.8097   -1.8854 H   0  0  0  0  0  0  0  0  0  0  0  0
    0.6888   -0.0859   -2.1321 H   0  0  0  0  0  0  0  0  0  0  0  0
    0.4243    2.4953   -3.3769 H   0  0  0  0  0  0  0  0  0  0  0  0
  1  2  1  0  0  0  0
  1 32  1  0  0  0  0
  1 33  1  0  0  0  0
  1 34  1  0  0  0  0
  2  3  1  0  0  0  0
  2 35  1  0  0  0  0
  2 36  1  0  0  0  0
  3  4  1  0  0  0  0
  3 37  1  0  0  0  0
  3 38  1  0  0  0  0
  4  5  2  0  0  0  0
  4 39  1  0  0  0  0
  5  6  1  0  0  0  0
  5 40  1  0  0  0  0
  6 41  1  0  0  0  0
  6 42  1  0  0  0  0
  7  6  1  0  0  0  0
  7  8  1  0  0  0  0
  7 43  1  1  0  0  0
  8 44  1  0  0  0  0
  8 45  1  0  0  0  0
  9  8  1  0  0  0  0
  9 10  1  0  0  0  0
  9 46  1  1  0  0  0
 10 11  2  0  0  0  0
 10 47  1  0  0  0  0
 11 12  1  0  0  0  0
 11 48  1  0  0  0  0
 12 13  1  0  0  0  0
 12 14  2  0  0  0  0
 13 49  1  0  0  0  0
 13 50  1  0  0  0  0
 13 51  1  0  0  0  0
 14 15  1  0  0  0  0
 14 52  1  0  0  0  0
 15 16  1  0  0  0  0
 15 53  1  6  0  0  0
 16 17  2  0  0  0  0
 16 54  1  0  0  0  0
 17 18  1  0  0  0  0
 17 55  1  0  0  0  0
 18 19  1  0  0  0  0
 18 20  1  0  0  0  0
 18 56  1  6  0  0  0
 19 57  1  0  0  0  0
 20 21  1  0  0  0  0
 20 22  1  0  0  0  0
 20 58  1  6  0  0  0
 21 59  1  0  0  0  0
 22 23  1  0  0  0  0
 22 15  1  0  0  0  0
 22 60  1  6  0  0  0
 23 24  1  0  0  0  0
 23 25  2  0  0  0  0
 24 61  1  0  0  0  0
 24 62  1  0  0  0  0
 24 63  1  0  0  0  0
 25 26  1  0  0  0  0
 25 64  1  0  0  0  0
 26 27  2  0  0  0  0
 26 65  1  0  0  0  0
 27 28  1  0  0  0  0
 27 66  1  0  0  0  0
 28 29  1  0  0  0  0
 28  9  1  0  0  0  0
 28 67  1  6  0  0  0
 29 30  1  0  0  0  0
 29 31  2  0  0  0  0
 30 68  1  0  0  0  0
 31  7  1  0  0  0  0
M  END
>  <IDENTIFIER>
CNP0501390.1

>  <Energy>
934.892

$$$$
