
 OpenBabel09112508093D

139147  0  0  0  0  0  0  0  0999 V2000
   -1.0052    2.4183   -2.9931 C   0  0  0  0  0  0  0  0  0  0  0  0
   -1.0416    2.0905   -1.6212 O   0  0  0  0  0  0  0  0  0  0  0  0
   -0.4902    0.8010   -1.3954 C   0  0  2  0  0  0  0  0  0  0  0  0
   -1.6277   -0.2370   -1.3039 C   0  0  0  0  0  0  0  0  0  0  0  0
   -2.5153    0.0663   -0.0795 C   0  0  1  0  0  0  0  0  0  0  0  0
   -3.5141   -0.9431    0.0109 O   0  0  0  0  0  0  0  0  0  0  0  0
   -4.8608   -0.4691   -0.0164 C   0  0  1  0  0  0  0  0  0  0  0  0
   -5.5577   -1.0130   -1.2735 C   0  0  0  0  0  0  0  0  0  0  0  0
   -7.0261   -0.6009   -1.2335 C   0  0  0  0  0  0  0  0  0  0  0  0
   -7.4677    0.2405   -2.1784 C   0  0  0  0  0  0  0  0  0  0  0  0
   -8.8495    0.7733   -2.2392 C   0  0  0  0  0  0  0  0  0  0  0  0
   -9.6721    0.6927   -0.9224 C   0  0  1  0  0  0  0  0  0  0  0  0
  -11.1260    0.7625   -1.3805 C   0  0  0  0  0  0  0  0  0  0  0  0
  -11.4776   -0.0105   -2.2731 O   0  0  0  0  0  0  0  0  0  0  0  0
  -12.0864    1.4560   -0.7116 O   0  0  0  0  0  0  0  0  0  0  0  0
  -13.3749    0.9349   -0.7094 C   0  0  2  0  0  0  0  0  0  0  0  0
  -14.3912    1.6519    0.1443 C   0  0  0  0  0  0  0  0  0  0  0  0
  -15.4505    0.7227    0.3263 O   0  0  0  0  0  0  0  0  0  0  0  0
  -14.8809   -0.5890    0.2496 C   0  0  2  0  0  0  0  0  0  0  0  0
  -15.6276   -1.4339   -0.7843 C   0  0  0  0  0  0  0  0  0  0  0  0
  -14.8984   -1.1627    1.5037 O   0  0  0  0  0  0  0  0  0  0  0  0
  -13.7167   -0.9771    2.1160 C   0  0  0  0  0  0  0  0  0  0  0  0
  -12.7935   -0.5052    1.2870 C   0  0  0  0  0  0  0  0  0  0  0  0
  -11.4267   -0.0248    1.7274 C   0  0  0  0  0  0  0  0  0  0  0  0
  -10.1037   -0.6959    1.2837 C   0  0  0  0  0  0  0  0  0  0  0  0
   -9.4458   -0.6548   -0.1613 C   0  0  2  0  0  0  0  0  0  0  0  0
   -7.8891   -1.1049   -0.0661 C   0  0  1  0  0  0  0  0  0  0  0  0
   -7.9206   -2.6622   -0.0649 C   0  0  0  0  0  0  0  0  0  0  0  0
   -7.1159   -0.5697    1.2018 C   0  0  0  0  0  0  0  0  0  0  0  0
   -5.6007   -0.9262    1.2619 C   0  0  1  0  0  0  0  0  0  0  0  0
   -5.4319   -2.3048    1.4681 O   0  0  0  0  0  0  0  0  0  0  0  0
  -13.3995   -0.4326   -0.0794 C   0  0  2  0  0  0  0  0  0  0  0  0
   -1.7231    0.0150    1.0993 O   0  0  0  0  0  0  0  0  0  0  0  0
   -0.7315    1.0359    1.0939 C   0  0  1  0  0  0  0  0  0  0  0  0
   -0.0214    1.0332    2.4481 C   0  0  0  0  0  0  0  0  0  0  0  0
    0.2885    0.8270   -0.0623 C   0  0  1  0  0  0  0  0  0  0  0  0
    0.9773   -0.4037    0.1320 O   0  0  0  0  0  0  0  0  0  0  0  0
    2.3867   -0.3343   -0.0929 C   0  0  1  0  0  0  0  0  0  0  0  0
    3.0929   -1.0719    1.0665 C   0  0  0  0  0  0  0  0  0  0  0  0
    4.3883   -1.7683    0.5828 C   0  0  2  0  0  0  0  0  0  0  0  0
    5.2371   -2.1139    1.6483 O   0  0  0  0  0  0  0  0  0  0  0  0
    5.0973   -0.9580   -0.5133 C   0  0  2  0  0  0  0  0  0  0  0  0
    5.5397    0.3083   -0.0253 O   0  0  0  0  0  0  0  0  0  0  0  0
    6.9325    0.3444    0.3141 C   0  0  1  0  0  0  0  0  0  0  0  0
    7.5770    1.6114   -0.2991 C   0  0  0  0  0  0  0  0  0  0  0  0
    8.8122    2.0900    0.5078 C   0  0  1  0  0  0  0  0  0  0  0  0
    8.3753    2.9999    1.5101 O   0  0  0  0  0  0  0  0  0  0  0  0
    8.9418    4.2772    1.3092 C   0  0  0  0  0  0  0  0  0  0  0  0
    9.4926    0.9106    1.2163 C   0  0  2  0  0  0  0  0  0  0  0  0
   10.0382    0.0023    0.2599 O   0  0  0  0  0  0  0  0  0  0  0  0
   11.4707   -0.0205    0.2548 C   0  0  2  0  0  0  0  0  0  0  0  0
   11.9614    0.7502   -0.8298 O   0  0  0  0  0  0  0  0  0  0  0  0
   13.3676    0.9847   -0.6734 C   0  0  2  0  0  0  0  0  0  0  0  0
   13.8911    1.7546   -1.8939 C   0  0  0  0  0  0  0  0  0  0  0  0
   13.2397    2.9913   -2.0119 O   0  0  0  0  0  0  0  0  0  0  0  0
   14.1879   -0.3457   -0.4473 C   0  0  1  0  0  0  0  0  0  0  0  0
   14.8139   -0.3759    0.8145 O   0  0  0  0  0  0  0  0  0  0  0  0
   13.2971   -1.5896   -0.6531 C   0  0  2  0  0  0  0  0  0  0  0  0
   13.0408   -1.7489   -2.0316 O   0  0  0  0  0  0  0  0  0  0  0  0
   11.9603   -1.4894    0.1422 C   0  0  1  0  0  0  0  0  0  0  0  0
   12.0454   -2.0744    1.4207 O   0  0  0  0  0  0  0  0  0  0  0  0
    8.4293    0.2175    2.1427 C   0  0  2  0  0  0  0  0  0  0  0  0
    8.7693   -1.2485    2.4371 C   0  0  0  0  0  0  0  0  0  0  0  0
    7.0677    0.3528    1.7168 O   0  0  0  0  0  0  0  0  0  0  0  0
    4.0689   -0.7567   -1.6938 C   0  0  1  0  0  0  0  0  0  0  0  0
    4.3620   -1.7542   -2.8194 C   0  0  0  0  0  0  0  0  0  0  0  0
    2.6948   -0.9520   -1.3245 O   0  0  0  0  0  0  0  0  0  0  0  0
   -1.5468    3.3756   -3.1380 H   0  0  0  0  0  0  0  0  0  0  0  0
   -1.5256    1.6541   -3.6114 H   0  0  0  0  0  0  0  0  0  0  0  0
    0.0420    2.5727   -3.3323 H   0  0  0  0  0  0  0  0  0  0  0  0
    0.2325    0.5103   -2.1972 H   0  0  0  0  0  0  0  0  0  0  0  0
   -1.1939   -1.2541   -1.1890 H   0  0  0  0  0  0  0  0  0  0  0  0
   -2.2357   -0.2256   -2.2355 H   0  0  0  0  0  0  0  0  0  0  0  0
   -2.9445    1.0888   -0.1992 H   0  0  0  0  0  0  0  0  0  0  0  0
   -4.9551    0.6411   -0.0535 H   0  0  0  0  0  0  0  0  0  0  0  0
   -5.4696   -2.1160   -1.3308 H   0  0  0  0  0  0  0  0  0  0  0  0
   -5.0329   -0.6046   -2.1624 H   0  0  0  0  0  0  0  0  0  0  0  0
   -6.8033    0.5399   -2.9847 H   0  0  0  0  0  0  0  0  0  0  0  0
   -9.2927    0.1885   -3.0762 H   0  0  0  0  0  0  0  0  0  0  0  0
   -8.8400    1.8370   -2.5648 H   0  0  0  0  0  0  0  0  0  0  0  0
   -9.3683    1.5114   -0.2365 H   0  0  0  0  0  0  0  0  0  0  0  0
  -13.7874    0.8669   -1.7446 H   0  0  0  0  0  0  0  0  0  0  0  0
  -14.7371    2.5816   -0.3544 H   0  0  0  0  0  0  0  0  0  0  0  0
  -13.9739    1.9109    1.1436 H   0  0  0  0  0  0  0  0  0  0  0  0
  -16.6940   -1.5331   -0.4908 H   0  0  0  0  0  0  0  0  0  0  0  0
  -15.1805   -2.4488   -0.8489 H   0  0  0  0  0  0  0  0  0  0  0  0
  -15.5768   -0.9541   -1.7850 H   0  0  0  0  0  0  0  0  0  0  0  0
  -13.5726   -1.1392    3.1759 H   0  0  0  0  0  0  0  0  0  0  0  0
  -11.4260   -0.1066    2.8396 H   0  0  0  0  0  0  0  0  0  0  0  0
  -11.3592    1.0635    1.5277 H   0  0  0  0  0  0  0  0  0  0  0  0
  -10.0982   -1.7379    1.6618 H   0  0  0  0  0  0  0  0  0  0  0  0
   -9.4322   -0.0947    1.9191 H   0  0  0  0  0  0  0  0  0  0  0  0
   -9.9625   -1.3962   -0.8126 H   0  0  0  0  0  0  0  0  0  0  0  0
   -8.4666   -3.0498    0.8192 H   0  0  0  0  0  0  0  0  0  0  0  0
   -6.9327   -3.1457   -0.0672 H   0  0  0  0  0  0  0  0  0  0  0  0
   -8.4284   -3.0378   -0.9794 H   0  0  0  0  0  0  0  0  0  0  0  0
   -7.5514   -0.9622    2.1441 H   0  0  0  0  0  0  0  0  0  0  0  0
   -7.1985    0.5412    1.2050 H   0  0  0  0  0  0  0  0  0  0  0  0
   -5.1698   -0.3864    2.1388 H   0  0  0  0  0  0  0  0  0  0  0  0
   -4.5500   -2.4328    1.9070 H   0  0  0  0  0  0  0  0  0  0  0  0
  -12.9375   -1.2448   -0.6814 H   0  0  0  0  0  0  0  0  0  0  0  0
   -1.2195    2.0351    0.9955 H   0  0  0  0  0  0  0  0  0  0  0  0
    0.4706    0.0555    2.6314 H   0  0  0  0  0  0  0  0  0  0  0  0
   -0.7598    1.2115    3.2592 H   0  0  0  0  0  0  0  0  0  0  0  0
    0.7452    1.8369    2.4833 H   0  0  0  0  0  0  0  0  0  0  0  0
    0.9690    1.7064   -0.0665 H   0  0  0  0  0  0  0  0  0  0  0  0
    2.7899    0.7071   -0.1204 H   0  0  0  0  0  0  0  0  0  0  0  0
    2.4524   -1.8732    1.4973 H   0  0  0  0  0  0  0  0  0  0  0  0
    3.2702   -0.3185    1.8656 H   0  0  0  0  0  0  0  0  0  0  0  0
    4.0746   -2.7170    0.0927 H   0  0  0  0  0  0  0  0  0  0  0  0
    5.3075   -1.3286    2.2485 H   0  0  0  0  0  0  0  0  0  0  0  0
    5.9468   -1.5581   -0.9110 H   0  0  0  0  0  0  0  0  0  0  0  0
    7.5105   -0.5255   -0.0768 H   0  0  0  0  0  0  0  0  0  0  0  0
    6.8627    2.4632   -0.3445 H   0  0  0  0  0  0  0  0  0  0  0  0
    7.8466    1.3551   -1.3472 H   0  0  0  0  0  0  0  0  0  0  0  0
    9.5320    2.5619   -0.2096 H   0  0  0  0  0  0  0  0  0  0  0  0
    8.6110    4.9452    2.1299 H   0  0  0  0  0  0  0  0  0  0  0  0
    8.5871    4.7202    0.3520 H   0  0  0  0  0  0  0  0  0  0  0  0
   10.0539    4.2351    1.3489 H   0  0  0  0  0  0  0  0  0  0  0  0
   10.2702    1.3249    1.8963 H   0  0  0  0  0  0  0  0  0  0  0  0
   11.9187    0.3790    1.1961 H   0  0  0  0  0  0  0  0  0  0  0  0
   13.5353    1.6816    0.1801 H   0  0  0  0  0  0  0  0  0  0  0  0
   13.7809    1.1625   -2.8296 H   0  0  0  0  0  0  0  0  0  0  0  0
   14.9769    1.9582   -1.7605 H   0  0  0  0  0  0  0  0  0  0  0  0
   12.3659    2.8151   -2.4464 H   0  0  0  0  0  0  0  0  0  0  0  0
   15.0233   -0.4096   -1.1811 H   0  0  0  0  0  0  0  0  0  0  0  0
   14.2104    0.0189    1.4918 H   0  0  0  0  0  0  0  0  0  0  0  0
   13.8364   -2.5163   -0.3550 H   0  0  0  0  0  0  0  0  0  0  0  0
   12.3847   -1.0681   -2.3295 H   0  0  0  0  0  0  0  0  0  0  0  0
   11.2303   -2.1004   -0.4305 H   0  0  0  0  0  0  0  0  0  0  0  0
   12.7937   -1.6503    1.9103 H   0  0  0  0  0  0  0  0  0  0  0  0
    8.4660    0.7721    3.1054 H   0  0  0  0  0  0  0  0  0  0  0  0
    8.7229   -1.8552    1.5066 H   0  0  0  0  0  0  0  0  0  0  0  0
    8.0399   -1.6698    3.1598 H   0  0  0  0  0  0  0  0  0  0  0  0
    9.7894   -1.3304    2.8657 H   0  0  0  0  0  0  0  0  0  0  0  0
    4.2105    0.2493   -2.1494 H   0  0  0  0  0  0  0  0  0  0  0  0
    4.2498   -2.7982   -2.4568 H   0  0  0  0  0  0  0  0  0  0  0  0
    5.3956   -1.6111   -3.2022 H   0  0  0  0  0  0  0  0  0  0  0  0
    3.6573   -1.5900   -3.6623 H   0  0  0  0  0  0  0  0  0  0  0  0
  1  2  1  0  0  0  0
  1 68  1  0  0  0  0
  1 69  1  0  0  0  0
  1 70  1  0  0  0  0
  3  2  1  0  0  0  0
  3  4  1  0  0  0  0
  3 71  1  6  0  0  0
  4  5  1  0  0  0  0
  4 72  1  0  0  0  0
  4 73  1  0  0  0  0
  5  6  1  0  0  0  0
  5 33  1  0  0  0  0
  5 74  1  6  0  0  0
  7  6  1  0  0  0  0
  7  8  1  0  0  0  0
  7 75  1  6  0  0  0
  8  9  1  0  0  0  0
  8 76  1  0  0  0  0
  8 77  1  0  0  0  0
  9 10  2  0  0  0  0
 10 11  1  0  0  0  0
 10 78  1  0  0  0  0
 11 79  1  0  0  0  0
 11 80  1  0  0  0  0
 12 11  1  0  0  0  0
 12 13  1  0  0  0  0
 12 81  1  1  0  0  0
 13 14  2  0  0  0  0
 13 15  1  0  0  0  0
 15 16  1  0  0  0  0
 16 17  1  0  0  0  0
 16 82  1  6  0  0  0
 17 18  1  0  0  0  0
 17 83  1  0  0  0  0
 17 84  1  0  0  0  0
 18 19  1  0  0  0  0
 19 20  1  6  0  0  0
 19 21  1  0  0  0  0
 20 85  1  0  0  0  0
 20 86  1  0  0  0  0
 20 87  1  0  0  0  0
 21 22  1  0  0  0  0
 22 23  2  0  0  0  0
 22 88  1  0  0  0  0
 23 24  1  0  0  0  0
 24 25  1  0  0  0  0
 24 89  1  0  0  0  0
 24 90  1  0  0  0  0
 25 91  1  0  0  0  0
 25 92  1  0  0  0  0
 26 25  1  0  0  0  0
 26 27  1  0  0  0  0
 26 12  1  0  0  0  0
 26 93  1  6  0  0  0
 27 28  1  1  0  0  0
 27 29  1  0  0  0  0
 27  9  1  0  0  0  0
 28 94  1  0  0  0  0
 28 95  1  0  0  0  0
 28 96  1  0  0  0  0
 29 30  1  0  0  0  0
 29 97  1  0  0  0  0
 29 98  1  0  0  0  0
 30 31  1  0  0  0  0
 30  7  1  0  0  0  0
 30 99  1  1  0  0  0
 31100  1  0  0  0  0
 32 23  1  0  0  0  0
 32 16  1  0  0  0  0
 32 19  1  0  0  0  0
 32101  1  6  0  0  0
 33 34  1  0  0  0  0
 34 35  1  0  0  0  0
 34 36  1  0  0  0  0
 34102  1  6  0  0  0
 35103  1  0  0  0  0
 35104  1  0  0  0  0
 35105  1  0  0  0  0
 36 37  1  0  0  0  0
 36  3  1  0  0  0  0
 36106  1  6  0  0  0
 38 37  1  0  0  0  0
 38 39  1  0  0  0  0
 38107  1  6  0  0  0
 39 40  1  0  0  0  0
 39108  1  0  0  0  0
 39109  1  0  0  0  0
 40 41  1  0  0  0  0
 40 42  1  0  0  0  0
 40110  1  6  0  0  0
 41111  1  0  0  0  0
 42 43  1  0  0  0  0
 42 65  1  0  0  0  0
 42112  1  6  0  0  0
 44 43  1  0  0  0  0
 44 45  1  0  0  0  0
 44113  1  6  0  0  0
 45 46  1  0  0  0  0
 45114  1  0  0  0  0
 45115  1  0  0  0  0
 46 47  1  0  0  0  0
 46 49  1  0  0  0  0
 46116  1  6  0  0  0
 47 48  1  0  0  0  0
 48117  1  0  0  0  0
 48118  1  0  0  0  0
 48119  1  0  0  0  0
 49 50  1  0  0  0  0
 49 62  1  0  0  0  0
 49120  1  1  0  0  0
 51 50  1  0  0  0  0
 51 52  1  0  0  0  0
 51121  1  1  0  0  0
 52 53  1  0  0  0  0
 53 54  1  0  0  0  0
 53 56  1  0  0  0  0
 53122  1  1  0  0  0
 54 55  1  0  0  0  0
 54123  1  0  0  0  0
 54124  1  0  0  0  0
 55125  1  0  0  0  0
 56 57  1  0  0  0  0
 56 58  1  0  0  0  0
 56126  1  6  0  0  0
 57127  1  0  0  0  0
 58 59  1  0  0  0  0
 58 60  1  0  0  0  0
 58128  1  1  0  0  0
 59129  1  0  0  0  0
 60 61  1  0  0  0  0
 60 51  1  0  0  0  0
 60130  1  6  0  0  0
 61131  1  0  0  0  0
 62 63  1  0  0  0  0
 62 64  1  0  0  0  0
 62132  1  1  0  0  0
 63133  1  0  0  0  0
 63134  1  0  0  0  0
 63135  1  0  0  0  0
 64 44  1  0  0  0  0
 65 66  1  0  0  0  0
 65 67  1  0  0  0  0
 65136  1  6  0  0  0
 66137  1  0  0  0  0
 66138  1  0  0  0  0
 66139  1  0  0  0  0
 67 38  1  0  0  0  0
M  END
>  <IDENTIFIER>
CNP0225148.8

>  <Energy>
2078.68

$$$$
