
 OpenBabel09082522443D

 83 88  0  0  0  0  0  0  0  0999 V2000
    2.3714   -5.6764    3.6318 C   0  0  0  0  0  0  0  0  0  0  0  0
    2.7829   -4.3537    2.9871 C   0  0  2  0  0  0  0  0  0  0  0  0
    1.8747   -4.0090    1.9620 O   0  0  0  0  0  0  0  0  0  0  0  0
    2.0614   -2.6567    1.5227 C   0  0  1  0  0  0  0  0  0  0  0  0
    1.2236   -1.8049    2.2781 O   0  0  0  0  0  0  0  0  0  0  0  0
    0.1757   -1.2034    1.5416 C   0  0  1  0  0  0  0  0  0  0  0  0
   -1.1618   -1.4835    2.2377 C   0  0  2  0  0  0  0  0  0  0  0  0
   -1.7977   -2.7883    1.8251 C   0  0  0  0  0  0  0  0  0  0  0  0
   -2.9468   -2.7926    1.1284 C   0  0  0  0  0  0  0  0  0  0  0  0
   -3.5359   -1.6270    0.7415 O   0  0  0  0  0  0  0  0  0  0  0  0
   -2.8492   -0.4230    0.6786 C   0  0  1  0  0  0  0  0  0  0  0  0
   -3.7889    0.6372    0.5965 O   0  0  0  0  0  0  0  0  0  0  0  0
   -4.0162    1.1259   -0.7146 C   0  0  2  0  0  0  0  0  0  0  0  0
   -3.8702    2.5369   -0.6682 O   0  0  0  0  0  0  0  0  0  0  0  0
   -4.1521    3.2187   -1.8920 C   0  0  2  0  0  0  0  0  0  0  0  0
   -4.9613    4.4883   -1.5602 C   0  0  0  0  0  0  0  0  0  0  0  0
   -6.1554    4.1890   -0.8905 O   0  0  0  0  0  0  0  0  0  0  0  0
   -4.7902    2.3360   -3.0145 C   0  0  1  0  0  0  0  0  0  0  0  0
   -3.7804    1.5157   -3.5539 O   0  0  0  0  0  0  0  0  0  0  0  0
   -5.9245    1.4530   -2.4493 C   0  0  2  0  0  0  0  0  0  0  0  0
   -7.0703    2.2349   -2.2294 O   0  0  0  0  0  0  0  0  0  0  0  0
   -5.4614    0.7532   -1.1332 C   0  0  1  0  0  0  0  0  0  0  0  0
   -5.6228   -0.6391   -1.2218 O   0  0  0  0  0  0  0  0  0  0  0  0
   -2.0320   -0.2432    1.9709 C   0  0  2  0  0  0  0  0  0  0  0  0
   -0.9964    0.8980    1.8868 C   0  0  1  0  0  0  0  0  0  0  0  0
   -1.2892    2.3288    1.4357 C   0  0  0  0  0  0  0  0  0  0  0  0
   -2.2163    2.9341    2.2945 O   0  0  0  0  0  0  0  0  0  0  0  0
    0.0001    0.8376    2.8801 O   0  0  0  0  0  0  0  0  0  0  0  0
    0.3187    0.3170    1.5949 C   0  0  1  0  0  0  0  0  0  0  0  0
    3.5308   -2.1330    1.6510 C   0  0  2  0  0  0  0  0  0  0  0  0
    3.7463   -1.0989    0.7576 O   0  0  0  0  0  0  0  0  0  0  0  0
    4.0840    0.1811    1.0804 C   0  0  0  0  0  0  0  0  0  0  0  0
    4.1560    0.5348    2.2492 O   0  0  0  0  0  0  0  0  0  0  0  0
    4.3698    1.1630    0.0143 C   0  0  0  0  0  0  0  0  0  0  0  0
    4.3278    0.8260   -1.2895 C   0  0  0  0  0  0  0  0  0  0  0  0
    4.6142    1.7557   -2.4190 C   0  0  0  0  0  0  0  0  0  0  0  0
    4.5469    1.2474   -3.7296 C   0  0  0  0  0  0  0  0  0  0  0  0
    4.8085    2.0702   -4.8291 C   0  0  0  0  0  0  0  0  0  0  0  0
    5.1403    3.4116   -4.6362 C   0  0  0  0  0  0  0  0  0  0  0  0
    5.2115    3.9329   -3.3436 C   0  0  0  0  0  0  0  0  0  0  0  0
    4.9516    3.1152   -2.2385 C   0  0  0  0  0  0  0  0  0  0  0  0
    4.4884   -3.2985    1.3708 C   0  0  2  0  0  0  0  0  0  0  0  0
    4.3021   -3.7663    0.0528 O   0  0  0  0  0  0  0  0  0  0  0  0
    4.2381   -4.4201    2.4333 C   0  0  1  0  0  0  0  0  0  0  0  0
    5.1467   -4.3324    3.4991 O   0  0  0  0  0  0  0  0  0  0  0  0
    1.3383   -5.5943    4.0322 H   0  0  0  0  0  0  0  0  0  0  0  0
    3.0572   -5.9274    4.4683 H   0  0  0  0  0  0  0  0  0  0  0  0
    2.3978   -6.4955    2.8817 H   0  0  0  0  0  0  0  0  0  0  0  0
    2.7096   -3.5811    3.7899 H   0  0  0  0  0  0  0  0  0  0  0  0
    1.8424   -2.6770    0.4317 H   0  0  0  0  0  0  0  0  0  0  0  0
    0.1093   -1.4709    0.4616 H   0  0  0  0  0  0  0  0  0  0  0  0
   -0.9819   -1.4792    3.3381 H   0  0  0  0  0  0  0  0  0  0  0  0
   -1.3216   -3.7264    2.0934 H   0  0  0  0  0  0  0  0  0  0  0  0
   -3.4139   -3.7369    0.8680 H   0  0  0  0  0  0  0  0  0  0  0  0
   -2.1219   -0.4689   -0.1654 H   0  0  0  0  0  0  0  0  0  0  0  0
   -3.2789    0.7227   -1.4396 H   0  0  0  0  0  0  0  0  0  0  0  0
   -3.1932    3.6001   -2.3079 H   0  0  0  0  0  0  0  0  0  0  0  0
   -5.1467    5.0588   -2.5009 H   0  0  0  0  0  0  0  0  0  0  0  0
   -4.3556    5.1361   -0.8896 H   0  0  0  0  0  0  0  0  0  0  0  0
   -6.8592    4.7759   -1.2732 H   0  0  0  0  0  0  0  0  0  0  0  0
   -5.1515    2.9842   -3.8456 H   0  0  0  0  0  0  0  0  0  0  0  0
   -4.1723    1.0217   -4.3201 H   0  0  0  0  0  0  0  0  0  0  0  0
   -6.1910    0.7065   -3.2318 H   0  0  0  0  0  0  0  0  0  0  0  0
   -7.7559    1.6550   -1.8071 H   0  0  0  0  0  0  0  0  0  0  0  0
   -6.1133    1.1135   -0.3066 H   0  0  0  0  0  0  0  0  0  0  0  0
   -4.9933   -0.9616   -1.9195 H   0  0  0  0  0  0  0  0  0  0  0  0
   -2.7595   -0.1120    2.8033 H   0  0  0  0  0  0  0  0  0  0  0  0
   -1.6392    2.3381    0.3834 H   0  0  0  0  0  0  0  0  0  0  0  0
   -0.3599    2.9377    1.4462 H   0  0  0  0  0  0  0  0  0  0  0  0
   -3.1180    2.6626    1.9853 H   0  0  0  0  0  0  0  0  0  0  0  0
    1.1519    0.8960    1.1443 H   0  0  0  0  0  0  0  0  0  0  0  0
    3.7194   -1.8076    2.6993 H   0  0  0  0  0  0  0  0  0  0  0  0
    4.6225    2.1673    0.3272 H   0  0  0  0  0  0  0  0  0  0  0  0
    4.0733   -0.1985   -1.5494 H   0  0  0  0  0  0  0  0  0  0  0  0
    4.2921    0.2091   -3.9041 H   0  0  0  0  0  0  0  0  0  0  0  0
    4.7539    1.6662   -5.8317 H   0  0  0  0  0  0  0  0  0  0  0  0
    5.3427    4.0474   -5.4886 H   0  0  0  0  0  0  0  0  0  0  0  0
    5.4691    4.9738   -3.1963 H   0  0  0  0  0  0  0  0  0  0  0  0
    5.0193    3.5625   -1.2591 H   0  0  0  0  0  0  0  0  0  0  0  0
    5.5513   -2.9802    1.4390 H   0  0  0  0  0  0  0  0  0  0  0  0
    3.5290   -4.3877    0.0302 H   0  0  0  0  0  0  0  0  0  0  0  0
    4.4354   -5.3883    1.9202 H   0  0  0  0  0  0  0  0  0  0  0  0
    5.0735   -3.4217    3.8900 H   0  0  0  0  0  0  0  0  0  0  0  0
  1 46  1  0  0  0  0
  1 47  1  0  0  0  0
  1 48  1  0  0  0  0
  2  1  1  0  0  0  0
  2  3  1  0  0  0  0
  2 49  1  1  0  0  0
  3  4  1  0  0  0  0
  4  5  1  0  0  0  0
  4 30  1  0  0  0  0
  4 50  1  6  0  0  0
  6  5  1  0  0  0  0
  6  7  1  0  0  0  0
  6 51  1  6  0  0  0
  7  8  1  0  0  0  0
  7 52  1  1  0  0  0
  8  9  2  0  0  0  0
  8 53  1  0  0  0  0
  9 10  1  0  0  0  0
  9 54  1  0  0  0  0
 10 11  1  0  0  0  0
 11 12  1  0  0  0  0
 11 55  1  6  0  0  0
 13 12  1  0  0  0  0
 13 14  1  0  0  0  0
 13 56  1  6  0  0  0
 14 15  1  0  0  0  0
 15 16  1  0  0  0  0
 15 18  1  0  0  0  0
 15 57  1  6  0  0  0
 16 17  1  0  0  0  0
 16 58  1  0  0  0  0
 16 59  1  0  0  0  0
 17 60  1  0  0  0  0
 18 19  1  0  0  0  0
 18 20  1  0  0  0  0
 18 61  1  6  0  0  0
 19 62  1  0  0  0  0
 20 21  1  0  0  0  0
 20 22  1  0  0  0  0
 20 63  1  6  0  0  0
 21 64  1  0  0  0  0
 22 23  1  0  0  0  0
 22 13  1  0  0  0  0
 22 65  1  1  0  0  0
 23 66  1  0  0  0  0
 24 11  1  0  0  0  0
 24 25  1  0  0  0  0
 24  7  1  0  0  0  0
 24 67  1  1  0  0  0
 25 26  1  6  0  0  0
 25 28  1  0  0  0  0
 26 27  1  0  0  0  0
 26 68  1  0  0  0  0
 26 69  1  0  0  0  0
 27 70  1  0  0  0  0
 29 28  1  0  0  0  0
 29  6  1  0  0  0  0
 29 25  1  0  0  0  0
 29 71  1  6  0  0  0
 30 31  1  0  0  0  0
 30 42  1  0  0  0  0
 30 72  1  1  0  0  0
 31 32  1  0  0  0  0
 32 33  2  0  0  0  0
 32 34  1  0  0  0  0
 34 35  2  0  0  0  0
 34 73  1  0  0  0  0
 35 36  1  0  0  0  0
 35 74  1  0  0  0  0
 36 37  2  0  0  0  0
 37 38  1  0  0  0  0
 37 75  1  0  0  0  0
 38 39  2  0  0  0  0
 38 76  1  0  0  0  0
 39 40  1  0  0  0  0
 39 77  1  0  0  0  0
 40 41  2  0  0  0  0
 40 78  1  0  0  0  0
 41 36  1  0  0  0  0
 41 79  1  0  0  0  0
 42 43  1  0  0  0  0
 42 44  1  0  0  0  0
 42 80  1  1  0  0  0
 43 81  1  0  0  0  0
 44 45  1  0  0  0  0
 44  2  1  0  0  0  0
 44 82  1  6  0  0  0
 45 83  1  0  0  0  0
M  END
>  <IDENTIFIER>
CNP0316948.1

>  <Energy>
2518.26

$$$$
