
 OpenBabel09082502573D

 82 86  0  0  0  0  0  0  0  0999 V2000
   -6.4538    1.5162   -1.1328 C   0  0  0  0  0  0  0  0  0  0  0  0
   -5.3147    1.3239   -0.1082 C   0  0  0  0  0  0  0  0  0  0  0  0
   -5.2425    2.5942    0.7694 C   0  0  0  0  0  0  0  0  0  0  0  0
   -5.6193    0.1153    0.8523 C   0  0  0  0  0  0  0  0  0  0  0  0
   -5.2353   -1.2102    0.2019 C   0  0  0  0  0  0  0  0  0  0  0  0
   -3.6978   -1.2795   -0.1416 C   0  0  2  0  0  0  0  0  0  0  0  0
   -3.6215   -1.9977   -1.5295 C   0  0  0  0  0  0  0  0  0  0  0  0
   -2.9311   -2.1324    0.9059 C   0  0  0  0  0  0  0  0  0  0  0  0
   -1.4132   -2.2148    0.5901 C   0  0  0  0  0  0  0  0  0  0  0  0
   -0.7078   -0.8119    0.4937 C   0  0  2  0  0  0  0  0  0  0  0  0
   -0.7682   -0.2168    1.9611 C   0  0  0  0  0  0  0  0  0  0  0  0
   -1.5245    0.1053   -0.5272 C   0  0  2  0  0  0  0  0  0  0  0  0
   -0.8707    1.5055   -0.6268 C   0  0  0  0  0  0  0  0  0  0  0  0
    0.5993    1.4288   -1.0660 C   0  0  0  0  0  0  0  0  0  0  0  0
    1.4427    0.5444   -0.1122 C   0  0  2  0  0  0  0  0  0  0  0  0
    3.0178    0.7009   -0.3173 C   0  0  1  0  0  0  0  0  0  0  0  0
    3.4718    0.4177   -1.7832 C   0  0  0  0  0  0  0  0  0  0  0  0
    3.4145    2.2014    0.0235 C   0  0  0  0  0  0  0  0  0  0  0  0
    4.7111    2.3767    0.8579 C   0  0  0  0  0  0  0  0  0  0  0  0
    5.7741    1.3748    0.4270 C   0  0  0  0  0  0  0  0  0  0  0  0
    5.3272   -0.0930    0.7582 C   0  0  0  0  0  0  0  0  0  0  0  0
    6.0716   -1.0565   -0.1990 C   0  0  0  0  0  0  0  0  0  0  0  0
    5.7992   -0.4390    2.1983 C   0  0  0  0  0  0  0  0  0  0  0  0
    3.7394   -0.2314    0.7193 C   0  0  2  0  0  0  0  0  0  0  0  0
    3.2272   -1.6942    0.6633 C   0  0  0  0  0  0  0  0  0  0  0  0
    1.7185   -1.7468    0.9717 C   0  0  0  0  0  0  0  0  0  0  0  0
    0.8364   -0.9257   -0.0230 C   0  0  1  0  0  0  0  0  0  0  0  0
    0.8836   -1.6765   -1.4008 C   0  0  0  0  0  0  0  0  0  0  0  0
   -3.0386    0.1685   -0.1284 C   0  0  1  0  0  0  0  0  0  0  0  0
   -3.9619    1.1333   -0.8975 C   0  0  0  0  0  0  0  0  0  0  0  0
   -7.4238    1.6794   -0.6155 H   0  0  0  0  0  0  0  0  0  0  0  0
   -6.5594    0.6277   -1.7891 H   0  0  0  0  0  0  0  0  0  0  0  0
   -6.2512    2.3962   -1.7808 H   0  0  0  0  0  0  0  0  0  0  0  0
   -6.1957    2.7465    1.3208 H   0  0  0  0  0  0  0  0  0  0  0  0
   -5.0594    3.4950    0.1441 H   0  0  0  0  0  0  0  0  0  0  0  0
   -4.4178    2.5187    1.5099 H   0  0  0  0  0  0  0  0  0  0  0  0
   -6.6860    0.1305    1.1659 H   0  0  0  0  0  0  0  0  0  0  0  0
   -5.0214    0.1833    1.7881 H   0  0  0  0  0  0  0  0  0  0  0  0
   -5.8580   -1.2601   -0.7161 H   0  0  0  0  0  0  0  0  0  0  0  0
   -5.5424   -2.0833    0.8181 H   0  0  0  0  0  0  0  0  0  0  0  0
   -4.0686   -3.0128   -1.4528 H   0  0  0  0  0  0  0  0  0  0  0  0
   -2.6025   -2.1232   -1.9323 H   0  0  0  0  0  0  0  0  0  0  0  0
   -4.1933   -1.4527   -2.3072 H   0  0  0  0  0  0  0  0  0  0  0  0
   -3.3432   -3.1656    0.9279 H   0  0  0  0  0  0  0  0  0  0  0  0
   -3.1006   -1.7195    1.9191 H   0  0  0  0  0  0  0  0  0  0  0  0
   -1.3302   -2.7745   -0.3499 H   0  0  0  0  0  0  0  0  0  0  0  0
   -0.9209   -2.8425    1.3626 H   0  0  0  0  0  0  0  0  0  0  0  0
   -1.7816   -0.1149    2.3746 H   0  0  0  0  0  0  0  0  0  0  0  0
   -0.3436    0.7919    2.0797 H   0  0  0  0  0  0  0  0  0  0  0  0
   -0.2764   -0.8810    2.6950 H   0  0  0  0  0  0  0  0  0  0  0  0
   -1.4882   -0.3115   -1.5463 H   0  0  0  0  0  0  0  0  0  0  0  0
   -0.9416    2.0353    0.3446 H   0  0  0  0  0  0  0  0  0  0  0  0
   -1.3917    2.1269   -1.3818 H   0  0  0  0  0  0  0  0  0  0  0  0
    0.9890    2.4677   -1.0857 H   0  0  0  0  0  0  0  0  0  0  0  0
    0.6512    1.0412   -2.1029 H   0  0  0  0  0  0  0  0  0  0  0  0
    1.3203    0.9696    0.8957 H   0  0  0  0  0  0  0  0  0  0  0  0
    2.8841    1.0192   -2.5045 H   0  0  0  0  0  0  0  0  0  0  0  0
    3.4408   -0.6315   -2.0855 H   0  0  0  0  0  0  0  0  0  0  0  0
    4.5118    0.7189   -1.9685 H   0  0  0  0  0  0  0  0  0  0  0  0
    2.6398    2.7230    0.6265 H   0  0  0  0  0  0  0  0  0  0  0  0
    3.4833    2.7824   -0.9230 H   0  0  0  0  0  0  0  0  0  0  0  0
    4.5012    2.2039    1.9354 H   0  0  0  0  0  0  0  0  0  0  0  0
    5.0640    3.4259    0.7595 H   0  0  0  0  0  0  0  0  0  0  0  0
    6.7577    1.5920    0.8980 H   0  0  0  0  0  0  0  0  0  0  0  0
    5.9346    1.5376   -0.6548 H   0  0  0  0  0  0  0  0  0  0  0  0
    7.1705   -0.9150   -0.1078 H   0  0  0  0  0  0  0  0  0  0  0  0
    5.8062   -0.8965   -1.2586 H   0  0  0  0  0  0  0  0  0  0  0  0
    5.8528   -2.1162    0.0487 H   0  0  0  0  0  0  0  0  0  0  0  0
    6.9024   -0.3370    2.2885 H   0  0  0  0  0  0  0  0  0  0  0  0
    5.5432   -1.4822    2.4745 H   0  0  0  0  0  0  0  0  0  0  0  0
    5.3394    0.2367    2.9500 H   0  0  0  0  0  0  0  0  0  0  0  0
    3.3897    0.1620    1.7027 H   0  0  0  0  0  0  0  0  0  0  0  0
    3.7304   -2.2998    1.4440 H   0  0  0  0  0  0  0  0  0  0  0  0
    3.4675   -2.1648   -0.3086 H   0  0  0  0  0  0  0  0  0  0  0  0
    1.6355   -1.3445    1.9969 H   0  0  0  0  0  0  0  0  0  0  0  0
    1.3859   -2.8067    1.0015 H   0  0  0  0  0  0  0  0  0  0  0  0
    0.4985   -2.7078   -1.3226 H   0  0  0  0  0  0  0  0  0  0  0  0
    1.8853   -1.8579   -1.7811 H   0  0  0  0  0  0  0  0  0  0  0  0
    0.3356   -1.1690   -2.2122 H   0  0  0  0  0  0  0  0  0  0  0  0
   -3.0419    0.5970    0.8868 H   0  0  0  0  0  0  0  0  0  0  0  0
   -4.1260    0.6973   -1.9026 H   0  0  0  0  0  0  0  0  0  0  0  0
   -3.5278    2.1352   -1.0819 H   0  0  0  0  0  0  0  0  0  0  0  0
  1  2  1  0  0  0  0
  1 31  1  0  0  0  0
  1 32  1  0  0  0  0
  1 33  1  0  0  0  0
  2  3  1  0  0  0  0
  2  4  1  0  0  0  0
  3 34  1  0  0  0  0
  3 35  1  0  0  0  0
  3 36  1  0  0  0  0
  4  5  1  0  0  0  0
  4 37  1  0  0  0  0
  4 38  1  0  0  0  0
  5  6  1  0  0  0  0
  5 39  1  0  0  0  0
  5 40  1  0  0  0  0
  6  7  1  6  0  0  0
  6  8  1  0  0  0  0
  7 41  1  0  0  0  0
  7 42  1  0  0  0  0
  7 43  1  0  0  0  0
  8  9  1  0  0  0  0
  8 44  1  0  0  0  0
  8 45  1  0  0  0  0
  9 10  1  0  0  0  0
  9 46  1  0  0  0  0
  9 47  1  0  0  0  0
 10 11  1  1  0  0  0
 10 12  1  0  0  0  0
 11 48  1  0  0  0  0
 11 49  1  0  0  0  0
 11 50  1  0  0  0  0
 12 13  1  0  0  0  0
 12 29  1  0  0  0  0
 12 51  1  6  0  0  0
 13 14  1  0  0  0  0
 13 52  1  0  0  0  0
 13 53  1  0  0  0  0
 14 54  1  0  0  0  0
 14 55  1  0  0  0  0
 15 14  1  0  0  0  0
 15 16  1  0  0  0  0
 15 56  1  1  0  0  0
 16 17  1  6  0  0  0
 16 18  1  0  0  0  0
 17 57  1  0  0  0  0
 17 58  1  0  0  0  0
 17 59  1  0  0  0  0
 18 19  1  0  0  0  0
 18 60  1  0  0  0  0
 18 61  1  0  0  0  0
 19 20  1  0  0  0  0
 19 62  1  0  0  0  0
 19 63  1  0  0  0  0
 20 21  1  0  0  0  0
 20 64  1  0  0  0  0
 20 65  1  0  0  0  0
 21 22  1  0  0  0  0
 21 23  1  0  0  0  0
 21 24  1  0  0  0  0
 22 66  1  0  0  0  0
 22 67  1  0  0  0  0
 22 68  1  0  0  0  0
 23 69  1  0  0  0  0
 23 70  1  0  0  0  0
 23 71  1  0  0  0  0
 24 25  1  0  0  0  0
 24 16  1  0  0  0  0
 24 72  1  1  0  0  0
 25 26  1  0  0  0  0
 25 73  1  0  0  0  0
 25 74  1  0  0  0  0
 26 27  1  0  0  0  0
 26 75  1  0  0  0  0
 26 76  1  0  0  0  0
 27 28  1  6  0  0  0
 27 10  1  0  0  0  0
 27 15  1  0  0  0  0
 28 77  1  0  0  0  0
 28 78  1  0  0  0  0
 28 79  1  0  0  0  0
 29 30  1  0  0  0  0
 29  6  1  0  0  0  0
 29 80  1  1  0  0  0
 30  2  1  0  0  0  0
 30 81  1  0  0  0  0
 30 82  1  0  0  0  0
M  END
>  <IDENTIFIER>
CNP0200091.7

>  <Energy>
896.679

$$$$
