
 OpenBabel09092512513D

 49 53  0  0  0  0  0  0  0  0999 V2000
   -5.5232   -1.3716    1.0285 C   0  0  0  0  0  0  0  0  0  0  0  0
   -5.0280    0.0305    1.3887 C   0  0  0  0  0  0  0  0  0  0  0  0
   -3.6501    0.0758    1.5214 O   0  0  0  0  0  0  0  0  0  0  0  0
   -2.7681   -0.0975    0.5019 C   0  0  0  0  0  0  0  0  0  0  0  0
   -3.1806   -0.3337   -0.6266 O   0  0  0  0  0  0  0  0  0  0  0  0
   -1.4262   -0.0015    0.7304 N   0  0  0  0  0  0  0  0  0  0  0  0
   -0.8560    0.2304    2.0478 C   0  0  0  0  0  0  0  0  0  0  0  0
    0.5357   -0.3417    1.8598 C   0  0  2  0  0  0  0  0  0  0  0  0
    1.5153   -0.0197    2.7853 O   0  0  0  0  0  0  0  0  0  0  0  0
    2.7963   -0.4184    2.5185 C   0  0  0  0  0  0  0  0  0  0  0  0
    3.6342   -0.4095    3.4063 O   0  0  0  0  0  0  0  0  0  0  0  0
    3.1284   -0.9178    1.1431 C   0  0  0  0  0  0  0  0  0  0  0  0
    4.3131   -1.6346    0.8760 C   0  0  0  0  0  0  0  0  0  0  0  0
    4.4819   -2.1419   -0.4093 C   0  0  0  0  0  0  0  0  0  0  0  0
    3.5682   -1.9576   -1.3870 C   0  0  0  0  0  0  0  0  0  0  0  0
    2.3940   -1.2359   -1.1874 C   0  0  0  0  0  0  0  0  0  0  0  0
    2.1677   -0.6977    0.0982 C   0  0  0  0  0  0  0  0  0  0  0  0
    0.9317    0.1131    0.4644 C   0  0  2  0  0  0  0  0  0  0  0  0
    1.3168    1.6042    0.4807 C   0  0  0  0  0  0  0  0  0  0  0  0
    0.6393    2.5605   -0.1772 C   0  0  0  0  0  0  0  0  0  0  0  0
   -0.6189    2.2575   -0.9365 C   0  0  1  0  0  0  0  0  0  0  0  0
   -0.7802    3.1818   -2.0003 O   0  0  0  0  0  0  0  0  0  0  0  0
   -2.0294    3.8366   -1.8923 C   0  0  0  0  0  0  0  0  0  0  0  0
   -0.5752    0.8221   -1.4794 C   0  0  0  0  0  0  0  0  0  0  0  0
   -0.3957   -0.1690   -0.3000 C   0  0  2  0  0  0  0  0  0  0  0  0
    3.9840   -2.5704   -2.4982 O   0  0  0  0  0  0  0  0  0  0  0  0
    5.2047   -3.1773   -2.2123 C   0  0  0  0  0  0  0  0  0  0  0  0
    5.4916   -2.8760   -0.8831 O   0  0  0  0  0  0  0  0  0  0  0  0
   -6.6313   -1.3641    0.9578 H   0  0  0  0  0  0  0  0  0  0  0  0
   -5.2169   -2.0955    1.8121 H   0  0  0  0  0  0  0  0  0  0  0  0
   -5.1222   -1.7075    0.0507 H   0  0  0  0  0  0  0  0  0  0  0  0
   -5.4828    0.3188    2.3589 H   0  0  0  0  0  0  0  0  0  0  0  0
   -5.3570    0.7642    0.6201 H   0  0  0  0  0  0  0  0  0  0  0  0
   -1.3749   -0.3292    2.8560 H   0  0  0  0  0  0  0  0  0  0  0  0
   -0.8531    1.3226    2.2560 H   0  0  0  0  0  0  0  0  0  0  0  0
    0.4135   -1.4549    1.8402 H   0  0  0  0  0  0  0  0  0  0  0  0
    5.0525   -1.8214    1.6442 H   0  0  0  0  0  0  0  0  0  0  0  0
    1.6908   -1.1081   -1.9971 H   0  0  0  0  0  0  0  0  0  0  0  0
    2.1965    1.9106    1.0401 H   0  0  0  0  0  0  0  0  0  0  0  0
    0.9841    3.5890   -0.1189 H   0  0  0  0  0  0  0  0  0  0  0  0
   -1.4428    2.3172   -0.1840 H   0  0  0  0  0  0  0  0  0  0  0  0
   -2.1524    4.5207   -2.7559 H   0  0  0  0  0  0  0  0  0  0  0  0
   -2.0741    4.4562   -0.9683 H   0  0  0  0  0  0  0  0  0  0  0  0
   -2.8707    3.1073   -1.9250 H   0  0  0  0  0  0  0  0  0  0  0  0
    0.2616    0.7163   -2.2022 H   0  0  0  0  0  0  0  0  0  0  0  0
   -1.5096    0.6151   -2.0365 H   0  0  0  0  0  0  0  0  0  0  0  0
   -0.4389   -1.2226   -0.6558 H   0  0  0  0  0  0  0  0  0  0  0  0
    5.9971   -2.7724   -2.8757 H   0  0  0  0  0  0  0  0  0  0  0  0
    5.1230   -4.2779   -2.3438 H   0  0  0  0  0  0  0  0  0  0  0  0
  1  2  1  0  0  0  0
  1 29  1  0  0  0  0
  1 30  1  0  0  0  0
  1 31  1  0  0  0  0
  2  3  1  0  0  0  0
  2 32  1  0  0  0  0
  2 33  1  0  0  0  0
  3  4  1  0  0  0  0
  4  5  2  0  0  0  0
  4  6  1  0  0  0  0
  6  7  1  0  0  0  0
  7 34  1  0  0  0  0
  7 35  1  0  0  0  0
  8  7  1  0  0  0  0
  8  9  1  0  0  0  0
  8 36  1  6  0  0  0
  9 10  1  0  0  0  0
 10 11  2  0  0  0  0
 10 12  1  0  0  0  0
 12 13  2  0  0  0  0
 13 14  1  0  0  0  0
 13 37  1  0  0  0  0
 14 15  2  0  0  0  0
 15 16  1  0  0  0  0
 15 26  1  0  0  0  0
 16 17  2  0  0  0  0
 16 38  1  0  0  0  0
 17 12  1  0  0  0  0
 18 17  1  6  0  0  0
 18 19  1  0  0  0  0
 18  8  1  0  0  0  0
 19 20  2  0  0  0  0
 19 39  1  0  0  0  0
 20 21  1  0  0  0  0
 20 40  1  0  0  0  0
 21 22  1  0  0  0  0
 21 24  1  0  0  0  0
 21 41  1  1  0  0  0
 22 23  1  0  0  0  0
 23 42  1  0  0  0  0
 23 43  1  0  0  0  0
 23 44  1  0  0  0  0
 24 45  1  0  0  0  0
 24 46  1  0  0  0  0
 25 24  1  0  0  0  0
 25  6  1  0  0  0  0
 25 18  1  0  0  0  0
 25 47  1  6  0  0  0
 26 27  1  0  0  0  0
 27 28  1  0  0  0  0
 27 48  1  0  0  0  0
 27 49  1  0  0  0  0
 28 14  1  0  0  0  0
M  END
>  <IDENTIFIER>
CNP0393386.1

>  <Energy>
597.811

$$$$
