
 OpenBabel09122518193D

 55 57  0  0  0  0  0  0  0  0999 V2000
    7.8954    1.6723   -0.6047 C   0  0  0  0  0  0  0  0  0  0  0  0
    6.4658    1.3174   -0.8795 C   0  0  0  0  0  0  0  0  0  0  0  0
    5.8081    0.4647   -0.0746 C   0  0  0  0  0  0  0  0  0  0  0  0
    4.3897    0.0378   -0.2513 C   0  0  0  0  0  0  0  0  0  0  0  0
    3.8591   -0.8714    0.6740 C   0  0  0  0  0  0  0  0  0  0  0  0
    2.5314   -1.3224    0.5696 C   0  0  0  0  0  0  0  0  0  0  0  0
    2.0017   -2.2138    1.4474 O   0  0  0  0  0  0  0  0  0  0  0  0
    2.6393   -2.7610    2.5407 C   0  0  0  0  0  0  0  0  0  0  0  0
    1.7175   -0.8494   -0.4730 C   0  0  0  0  0  0  0  0  0  0  0  0
    0.4391   -1.2970   -0.5608 O   0  0  0  0  0  0  0  0  0  0  0  0
   -0.6486   -0.6545    0.0151 C   0  0  2  0  0  0  0  0  0  0  0  0
   -1.1117   -1.4836    1.2255 C   0  0  0  0  0  0  0  0  0  0  0  0
   -1.8002   -0.5468   -1.0184 C   0  0  2  0  0  0  0  0  0  0  0  0
   -1.4039    0.1301   -2.1848 O   0  0  0  0  0  0  0  0  0  0  0  0
   -3.0492    0.0918   -0.4298 C   0  0  0  0  0  0  0  0  0  0  0  0
   -4.1943   -0.7115   -0.1824 C   0  0  0  0  0  0  0  0  0  0  0  0
   -5.3627   -0.1520    0.3933 C   0  0  0  0  0  0  0  0  0  0  0  0
   -6.4709   -0.8778    0.6878 O   0  0  0  0  0  0  0  0  0  0  0  0
   -6.5806   -2.2473    0.5633 C   0  0  0  0  0  0  0  0  0  0  0  0
   -5.3410    1.2112    0.6734 C   0  0  0  0  0  0  0  0  0  0  0  0
   -6.3118    1.9647    1.2000 O   0  0  0  0  0  0  0  0  0  0  0  0
   -5.8280    3.2658    1.2949 C   0  0  0  0  0  0  0  0  0  0  0  0
   -4.5240    3.2377    0.8076 O   0  0  0  0  0  0  0  0  0  0  0  0
   -4.2605    1.9814    0.4390 C   0  0  0  0  0  0  0  0  0  0  0  0
   -3.0830    1.4684   -0.1006 C   0  0  0  0  0  0  0  0  0  0  0  0
    2.2319    0.0560   -1.4176 C   0  0  0  0  0  0  0  0  0  0  0  0
    1.4247    0.4751   -2.4276 O   0  0  0  0  0  0  0  0  0  0  0  0
    1.7763    1.3465   -3.4385 C   0  0  0  0  0  0  0  0  0  0  0  0
    3.5679    0.4964   -1.2986 C   0  0  0  0  0  0  0  0  0  0  0  0
    8.2619    2.3830   -1.3747 H   0  0  0  0  0  0  0  0  0  0  0  0
    8.5246    0.7575   -0.6321 H   0  0  0  0  0  0  0  0  0  0  0  0
    7.9822    2.1489    0.3946 H   0  0  0  0  0  0  0  0  0  0  0  0
    5.9968    1.7716   -1.7424 H   0  0  0  0  0  0  0  0  0  0  0  0
    6.3530    0.0509    0.7713 H   0  0  0  0  0  0  0  0  0  0  0  0
    4.4899   -1.2305    1.4772 H   0  0  0  0  0  0  0  0  0  0  0  0
    1.9392   -3.4474    3.0593 H   0  0  0  0  0  0  0  0  0  0  0  0
    2.9384   -1.9597    3.2495 H   0  0  0  0  0  0  0  0  0  0  0  0
    3.5295   -3.3405    2.2166 H   0  0  0  0  0  0  0  0  0  0  0  0
   -0.3607    0.3592    0.3772 H   0  0  0  0  0  0  0  0  0  0  0  0
   -1.3950   -2.5102    0.9055 H   0  0  0  0  0  0  0  0  0  0  0  0
   -1.9811   -1.0118    1.7277 H   0  0  0  0  0  0  0  0  0  0  0  0
   -0.3055   -1.5561    1.9800 H   0  0  0  0  0  0  0  0  0  0  0  0
   -2.0369   -1.5924   -1.3189 H   0  0  0  0  0  0  0  0  0  0  0  0
   -1.0495    1.0155   -1.9139 H   0  0  0  0  0  0  0  0  0  0  0  0
   -4.1601   -1.7665   -0.4188 H   0  0  0  0  0  0  0  0  0  0  0  0
   -7.5888   -2.5638    0.8992 H   0  0  0  0  0  0  0  0  0  0  0  0
   -5.8227   -2.7495    1.2038 H   0  0  0  0  0  0  0  0  0  0  0  0
   -6.4444   -2.5519   -0.4957 H   0  0  0  0  0  0  0  0  0  0  0  0
   -5.8335    3.5999    2.3539 H   0  0  0  0  0  0  0  0  0  0  0  0
   -6.4518    3.9497    0.6778 H   0  0  0  0  0  0  0  0  0  0  0  0
   -2.2342    2.1171   -0.2631 H   0  0  0  0  0  0  0  0  0  0  0  0
    0.9057    1.4928   -4.1107 H   0  0  0  0  0  0  0  0  0  0  0  0
    2.6151    0.9270   -4.0333 H   0  0  0  0  0  0  0  0  0  0  0  0
    2.0640    2.3318   -3.0139 H   0  0  0  0  0  0  0  0  0  0  0  0
    3.9555    1.1899   -2.0249 H   0  0  0  0  0  0  0  0  0  0  0  0
  1  2  1  0  0  0  0
  1 30  1  0  0  0  0
  1 31  1  0  0  0  0
  1 32  1  0  0  0  0
  2  3  2  0  0  0  0
  2 33  1  0  0  0  0
  3  4  1  0  0  0  0
  3 34  1  0  0  0  0
  4  5  2  0  0  0  0
  5  6  1  0  0  0  0
  5 35  1  0  0  0  0
  6  7  1  0  0  0  0
  6  9  2  0  0  0  0
  7  8  1  0  0  0  0
  8 36  1  0  0  0  0
  8 37  1  0  0  0  0
  8 38  1  0  0  0  0
  9 10  1  0  0  0  0
  9 26  1  0  0  0  0
 10 11  1  0  0  0  0
 11 12  1  0  0  0  0
 11 13  1  0  0  0  0
 11 39  1  1  0  0  0
 12 40  1  0  0  0  0
 12 41  1  0  0  0  0
 12 42  1  0  0  0  0
 13 14  1  0  0  0  0
 13 15  1  0  0  0  0
 13 43  1  6  0  0  0
 14 44  1  0  0  0  0
 15 16  2  0  0  0  0
 16 17  1  0  0  0  0
 16 45  1  0  0  0  0
 17 18  1  0  0  0  0
 17 20  2  0  0  0  0
 18 19  1  0  0  0  0
 19 46  1  0  0  0  0
 19 47  1  0  0  0  0
 19 48  1  0  0  0  0
 20 21  1  0  0  0  0
 21 22  1  0  0  0  0
 22 23  1  0  0  0  0
 22 49  1  0  0  0  0
 22 50  1  0  0  0  0
 23 24  1  0  0  0  0
 24 25  2  0  0  0  0
 24 20  1  0  0  0  0
 25 15  1  0  0  0  0
 25 51  1  0  0  0  0
 26 27  1  0  0  0  0
 26 29  2  0  0  0  0
 27 28  1  0  0  0  0
 28 52  1  0  0  0  0
 28 53  1  0  0  0  0
 28 54  1  0  0  0  0
 29  4  1  0  0  0  0
 29 55  1  0  0  0  0
M  END
>  <IDENTIFIER>
CNP0123937.1

>  <Energy>
432.35

$$$$
