
 OpenBabel09092520183D

 44 47  0  0  0  0  0  0  0  0999 V2000
   -4.6184    2.3396   -0.0359 C   0  0  0  0  0  0  0  0  0  0  0  0
   -4.0376    1.0490    0.5723 C   0  0  0  0  0  0  0  0  0  0  0  0
   -4.6801    0.8471    1.9599 C   0  0  0  0  0  0  0  0  0  0  0  0
   -2.6664    1.2160    0.7593 O   0  0  0  0  0  0  0  0  0  0  0  0
   -1.7017    0.3166    0.4219 C   0  0  0  0  0  0  0  0  0  0  0  0
   -0.3723    0.7158    0.4434 C   0  0  0  0  0  0  0  0  0  0  0  0
    0.6409   -0.1584    0.0537 C   0  0  0  0  0  0  0  0  0  0  0  0
    0.3427   -1.4749   -0.3723 C   0  0  0  0  0  0  0  0  0  0  0  0
   -1.0294   -1.8968   -0.3793 C   0  0  0  0  0  0  0  0  0  0  0  0
   -1.4347   -3.1349   -0.7536 O   0  0  0  0  0  0  0  0  0  0  0  0
   -2.0350   -0.9927    0.0278 C   0  0  0  0  0  0  0  0  0  0  0  0
   -3.4969   -1.3798    0.0482 C   0  0  0  0  0  0  0  0  0  0  0  0
   -4.3389   -0.1692   -0.3751 C   0  0  2  0  0  0  0  0  0  0  0  0
   -4.0843    0.1284   -1.7314 O   0  0  0  0  0  0  0  0  0  0  0  0
    1.4465   -2.2737   -0.7626 C   0  0  0  0  0  0  0  0  0  0  0  0
    1.2922   -3.4190   -1.1450 O   0  0  0  0  0  0  0  0  0  0  0  0
    2.7560   -1.7537   -0.7178 C   0  0  0  0  0  0  0  0  0  0  0  0
    3.7946   -2.5304   -1.0913 O   0  0  0  0  0  0  0  0  0  0  0  0
    2.9551   -0.4226   -0.2744 C   0  0  0  0  0  0  0  0  0  0  0  0
    4.2859    0.2807   -0.1685 C   0  0  0  0  0  0  0  0  0  0  0  0
    5.5249   -0.2693   -0.5827 C   0  0  0  0  0  0  0  0  0  0  0  0
    6.7134    0.4565   -0.4489 C   0  0  0  0  0  0  0  0  0  0  0  0
    6.7007    1.7377    0.0970 C   0  0  0  0  0  0  0  0  0  0  0  0
    5.4971    2.3016    0.5105 C   0  0  0  0  0  0  0  0  0  0  0  0
    4.3046    1.5858    0.3790 C   0  0  0  0  0  0  0  0  0  0  0  0
    1.8887    0.2857    0.0834 O   0  0  0  0  0  0  0  0  0  0  0  0
   -4.4238    3.2053    0.6331 H   0  0  0  0  0  0  0  0  0  0  0  0
   -5.7156    2.2449   -0.1850 H   0  0  0  0  0  0  0  0  0  0  0  0
   -4.1456    2.5665   -1.0146 H   0  0  0  0  0  0  0  0  0  0  0  0
   -4.4822    1.7287    2.6072 H   0  0  0  0  0  0  0  0  0  0  0  0
   -4.2646   -0.0380    2.4808 H   0  0  0  0  0  0  0  0  0  0  0  0
   -5.7806    0.7212    1.8679 H   0  0  0  0  0  0  0  0  0  0  0  0
   -0.1224    1.7244    0.7505 H   0  0  0  0  0  0  0  0  0  0  0  0
   -0.8875   -3.8671   -1.0500 H   0  0  0  0  0  0  0  0  0  0  0  0
   -3.7647   -1.6743    1.0825 H   0  0  0  0  0  0  0  0  0  0  0  0
   -3.7142   -2.2540   -0.6012 H   0  0  0  0  0  0  0  0  0  0  0  0
   -5.4201   -0.4201   -0.3093 H   0  0  0  0  0  0  0  0  0  0  0  0
   -3.1714    0.5062   -1.8144 H   0  0  0  0  0  0  0  0  0  0  0  0
    3.7000   -3.4418   -1.4020 H   0  0  0  0  0  0  0  0  0  0  0  0
    5.6234   -1.2441   -1.0177 H   0  0  0  0  0  0  0  0  0  0  0  0
    7.6505    0.0214   -0.7725 H   0  0  0  0  0  0  0  0  0  0  0  0
    7.6237    2.2939    0.1985 H   0  0  0  0  0  0  0  0  0  0  0  0
    5.4858    3.2975    0.9347 H   0  0  0  0  0  0  0  0  0  0  0  0
    3.3940    2.0651    0.7150 H   0  0  0  0  0  0  0  0  0  0  0  0
  1  2  1  0  0  0  0
  1 27  1  0  0  0  0
  1 28  1  0  0  0  0
  1 29  1  0  0  0  0
  2  3  1  0  0  0  0
  2  4  1  0  0  0  0
  3 30  1  0  0  0  0
  3 31  1  0  0  0  0
  3 32  1  0  0  0  0
  4  5  1  0  0  0  0
  5  6  2  0  0  0  0
  6  7  1  0  0  0  0
  6 33  1  0  0  0  0
  7  8  2  0  0  0  0
  8  9  1  0  0  0  0
  8 15  1  0  0  0  0
  9 10  1  0  0  0  0
  9 11  2  0  0  0  0
 10 34  1  0  0  0  0
 11 12  1  0  0  0  0
 11  5  1  0  0  0  0
 12 13  1  0  0  0  0
 12 35  1  0  0  0  0
 12 36  1  0  0  0  0
 13 14  1  0  0  0  0
 13  2  1  0  0  0  0
 13 37  1  1  0  0  0
 14 38  1  0  0  0  0
 15 16  2  0  0  0  0
 15 17  1  0  0  0  0
 17 18  1  0  0  0  0
 17 19  2  0  0  0  0
 18 39  1  0  0  0  0
 19 20  1  0  0  0  0
 19 26  1  0  0  0  0
 20 21  2  0  0  0  0
 21 22  1  0  0  0  0
 21 40  1  0  0  0  0
 22 23  2  0  0  0  0
 22 41  1  0  0  0  0
 23 24  1  0  0  0  0
 23 42  1  0  0  0  0
 24 25  2  0  0  0  0
 24 43  1  0  0  0  0
 25 20  1  0  0  0  0
 25 44  1  0  0  0  0
 26  7  1  0  0  0  0
M  END
>  <IDENTIFIER>
CNP0201777.0

>  <Energy>
365.318

$$$$
