
 OpenBabel09092514422D

138137  0  0  0  0  0  0  0  0999 V2000
   -3.7500   -6.4952    0.0000 C   0  0  0  0  0  0  0  0  0  0  0  0
   -3.0000   -5.1962    0.0000 C   0  0  0  0  0  0  0  0  0  0  0  0
   -3.2514   -3.6967   -0.2545 C   0  0  0  0  0  0  0  0  0  0  0  0
   -1.8357   -2.9654   -0.1723 C   0  0  0  0  0  0  0  0  0  0  0  0
   -1.8869   -1.4585   -0.4564 C   0  0  0  0  0  0  0  0  0  0  0  0
   -0.6048   -0.5932   -0.4744 C   0  0  0  0  0  0  0  0  0  0  0  0
    0.7343   -0.7913   -0.2542 C   0  0  0  0  0  0  0  0  0  0  0  0
    1.4692   -2.0590    0.1348 C   0  0  0  0  0  0  0  0  0  0  0  0
    3.0168   -2.0555    0.3652 C   0  0  0  0  0  0  0  0  0  0  0  0
    4.0298   -1.1238    0.2664 C   0  0  0  0  0  0  0  0  0  0  0  0
    3.8888    0.3125   -0.1637 C   0  0  0  0  0  0  0  0  0  0  0  0
    5.0594    1.3157   -0.2715 C   0  0  0  0  0  0  0  0  0  0  0  0
    6.4036    1.4105   -0.0166 C   0  0  0  0  0  0  0  0  0  0  0  0
    7.4649    0.4869    0.5573 C   0  0  0  0  0  0  0  0  0  0  0  0
    8.6323    0.3566   -0.4211 C   0  0  0  0  0  0  0  0  0  0  0  0
    9.9106    0.8383   -0.3066 C   0  0  0  0  0  0  0  0  0  0  0  0
   10.5169    1.6752    0.8233 C   0  0  0  0  0  0  0  0  0  0  0  0
   12.0088    2.0550    0.5205 C   0  0  0  0  0  2  0  0  0  0  0  0
   12.6435    3.1219    1.4693 C   0  0  0  0  0  0  0  0  0  0  0  0
   14.1100    3.4915    1.1701 C   0  0  0  0  0  0  0  0  0  0  0  0
   14.7148    2.9169    0.2771 O   0  0  0  0  0  0  0  0  0  0  0  0
   14.7223    4.5005    1.8863 O   0  0  0  0  0  0  0  0  0  0  0  0
   16.0429    4.9847    1.7805 C   0  0  0  0  0  0  0  0  0  0  0  0
   16.0264    6.4516    1.2575 C   0  0  1  0  0  0  0  0  0  0  0  0
   15.3199    6.4599   -0.1329 C   0  0  0  0  0  0  0  0  0  0  0  0
   13.9019    6.6962    0.0000 O   0  0  0  0  0  0  0  0  0  0  0  0
   13.9019    8.1962    0.0000 C   0  0  0  0  0  2  0  0  0  0  0  0
   13.9019    9.6962    0.0000 C   0  0  0  0  0  2  0  0  0  0  0  0
   13.9019   11.1962    0.0000 C   0  0  0  0  0  2  0  0  0  0  0  0
   13.9019   12.6962    0.0000 C   0  0  0  0  0  2  0  0  0  0  0  0
   13.9019   14.1962    0.0000 C   0  0  0  0  0  2  0  0  0  0  0  0
   13.9019   15.6962    0.0000 C   0  0  0  0  0  2  0  0  0  0  0  0
   13.9019   17.1962    0.0000 C   0  0  0  0  0  2  0  0  0  0  0  0
   13.9019   18.6962    0.0000 C   0  0  0  0  0  2  0  0  0  0  0  0
   13.9019   20.1962    0.0000 C   0  0  0  0  0  2  0  0  0  0  0  0
   13.9019   21.6962    0.0000 C   0  0  0  0  0  2  0  0  0  0  0  0
   13.9019   23.1962    0.0000 C   0  0  0  0  0  2  0  0  0  0  0  0
   13.9019   24.6962    0.0000 C   0  0  0  0  0  2  0  0  0  0  0  0
   13.9019   26.1962    0.0000 C   0  0  0  0  0  2  0  0  0  0  0  0
   13.9019   27.6962    0.0000 C   0  0  0  0  0  2  0  0  0  0  0  0
   13.9019   29.1962    0.0000 C   0  0  0  0  0  2  0  0  0  0  0  0
   13.9019   30.6962    0.0000 C   0  0  0  0  0  2  0  0  0  0  0  0
   13.9019   32.1962    0.0000 C   0  0  0  0  0  2  0  0  0  0  0  0
   13.9019   33.6962    0.0000 C   0  0  0  0  0  0  0  0  0  0  0  0
   17.2247    7.2373    1.3581 O   0  0  0  0  0  0  0  0  0  0  0  0
   18.5295    7.2225    0.8752 C   0  0  0  0  0  0  0  0  0  0  0  0
   18.9130    6.2760    0.2066 O   0  0  0  0  0  0  0  0  0  0  0  0
   19.5517    8.3867    1.2385 C   0  0  0  0  0  0  0  0  0  0  0  0
   20.2500    9.0933    0.0000 C   0  0  0  0  0  0  0  0  0  0  0  0
   21.0000   10.3923    0.0000 C   0  0  0  0  0  0  0  0  0  0  0  0
   21.7500   11.6913    0.0000 C   0  0  0  0  0  0  0  0  0  0  0  0
   22.0991   13.3217   -0.2038 C   0  0  0  0  0  0  0  0  0  0  0  0
   23.6226   13.9627    0.1990 C   0  0  0  0  0  0  0  0  0  0  0  0
   24.0000   15.5885    0.0000 C   0  0  0  0  0  0  0  0  0  0  0  0
   24.7500   16.8875    0.0000 C   0  0  0  0  0  2  0  0  0  0  0  0
   25.5000   18.1865    0.0000 C   0  0  0  0  0  0  0  0  0  0  0  0
   26.2500   19.4856    0.0000 C   0  0  0  0  0  0  0  0  0  0  0  0
   27.0000   20.7846    0.0000 C   0  0  0  0  0  2  0  0  0  0  0  0
   27.7500   22.0836    0.0000 C   0  0  0  0  0  0  0  0  0  0  0  0
   28.3409   23.5913    0.4524 C   0  0  0  0  0  0  0  0  0  0  0  0
   29.4592   24.4668   -0.4879 C   0  0  0  0  0  0  0  0  0  0  0  0
   30.0000   25.9808    0.0000 C   0  0  0  0  0  0  0  0  0  0  0  0
   30.7500   27.2798    0.0000 C   0  0  0  0  0  0  0  0  0  0  0  0
   31.5000   28.5788    0.0000 C   0  0  0  0  0  0  0  0  0  0  0  0
   32.2500   29.8779    0.0000 C   0  0  0  0  0  0  0  0  0  0  0  0
   33.0000   31.1769    0.0000 C   0  0  0  0  0  0  0  0  0  0  0  0
   -4.4201   -6.2313    0.8475 H   0  0  0  0  0  0  0  0  0  0  0  0
   -2.9117   -7.1577    0.3250 H   0  0  0  0  0  0  0  0  0  0  0  0
   -4.2850   -7.4218    0.0000 H   0  0  0  0  0  0  0  0  0  0  0  0
   -2.2285   -5.4241   -0.7728 H   0  0  0  0  0  0  0  0  0  0  0  0
   -2.4734   -5.1881    0.9880 H   0  0  0  0  0  0  0  0  0  0  0  0
   -3.9485   -3.2880    0.5077 H   0  0  0  0  0  0  0  0  0  0  0  0
   -3.6901   -3.5593   -1.2659 H   0  0  0  0  0  0  0  0  0  0  0  0
   -1.3982   -3.1137    0.8386 H   0  0  0  0  0  0  0  0  0  0  0  0
   -1.1506   -3.4163   -0.9226 H   0  0  0  0  0  0  0  0  0  0  0  0
   -2.3515   -1.3407   -1.4590 H   0  0  0  0  0  0  0  0  0  0  0  0
   -2.5740   -1.0035    0.2887 H   0  0  0  0  0  0  0  0  0  0  0  0
   -0.8477    0.4359   -0.7291 H   0  0  0  0  0  0  0  0  0  0  0  0
    1.3269    0.0965   -0.3727 H   0  0  0  0  0  0  0  0  0  0  0  0
    1.0135   -2.4083    1.0849 H   0  0  0  0  0  0  0  0  0  0  0  0
    1.2611   -2.8192   -0.6470 H   0  0  0  0  0  0  0  0  0  0  0  0
    3.3659   -3.0363    0.6781 H   0  0  0  0  0  0  0  0  0  0  0  0
    5.0295   -1.4633    0.5070 H   0  0  0  0  0  0  0  0  0  0  0  0
    3.4447    0.2739   -1.1810 H   0  0  0  0  0  0  0  0  0  0  0  0
    3.1733    0.7888    0.5376 H   0  0  0  0  0  0  0  0  0  0  0  0
    4.6675    2.2500   -0.6682 H   0  0  0  0  0  0  0  0  0  0  0  0
    6.8259    2.3854   -0.2538 H   0  0  0  0  0  0  0  0  0  0  0  0
    7.0645   -0.5143    0.8068 H   0  0  0  0  0  0  0  0  0  0  0  0
    7.8337    0.9560    1.4933 H   0  0  0  0  0  0  0  0  0  0  0  0
    8.4023   -0.1823   -1.3374 H   0  0  0  0  0  0  0  0  0  0  0  0
   10.5719    0.6199   -1.1419 H   0  0  0  0  0  0  0  0  0  0  0  0
    9.9216    2.6073    0.9189 H   0  0  0  0  0  0  0  0  0  0  0  0
   10.4681    1.1109    1.7781 H   0  0  0  0  0  0  0  0  0  0  0  0
   12.0373    4.0465    1.3798 H   0  0  0  0  0  0  0  0  0  0  0  0
   12.5796    2.7580    2.5159 H   0  0  0  0  0  0  0  0  0  0  0  0
   16.6574    4.3549    1.1004 H   0  0  0  0  0  0  0  0  0  0  0  0
   16.5074    4.9539    2.7878 H   0  0  0  0  0  0  0  0  0  0  0  0
   15.3440    6.9953    1.9466 H   0  0  0  0  0  0  0  0  0  0  0  0
   15.5006    5.5155   -0.6898 H   0  0  0  0  0  0  0  0  0  0  0  0
   15.8331    7.1960   -0.8051 H   0  0  0  0  0  0  0  0  0  0  0  0
   14.8077   33.7764   -0.6355 H   0  0  0  0  0  0  0  0  0  0  0  0
   12.9961   33.7764   -0.6355 H   0  0  0  0  0  0  0  0  0  0  0  0
   13.9019   34.7662    0.0000 H   0  0  0  0  0  0  0  0  0  0  0  0
   18.9827    9.1490    1.8119 H   0  0  0  0  0  0  0  0  0  0  0  0
   20.3513    7.9882    1.8975 H   0  0  0  0  0  0  0  0  0  0  0  0
   20.8643    8.3294   -0.5283 H   0  0  0  0  0  0  0  0  0  0  0  0
   19.3473    9.2509   -0.6517 H   0  0  0  0  0  0  0  0  0  0  0  0
   20.9124   10.4722   -1.1168 H   0  0  0  0  0  0  0  0  0  0  0  0
   20.1389   10.9049    0.4944 H   0  0  0  0  0  0  0  0  0  0  0  0
   22.0528   11.6593    1.0735 H   0  0  0  0  0  0  0  0  0  0  0  0
   22.6691   11.3404   -0.5340 H   0  0  0  0  0  0  0  0  0  0  0  0
   21.9287   13.5542   -1.2759 H   0  0  0  0  0  0  0  0  0  0  0  0
   21.3442   13.8894    0.3800 H   0  0  0  0  0  0  0  0  0  0  0  0
   24.3721   13.3899   -0.3866 H   0  0  0  0  0  0  0  0  0  0  0  0
   23.7935   13.7255    1.2701 H   0  0  0  0  0  0  0  0  0  0  0  0
   23.1324   15.9769    0.5732 H   0  0  0  0  0  0  0  0  0  0  0  0
   23.7051   15.6447   -1.0686 H   0  0  0  0  0  0  0  0  0  0  0  0
   26.0557   17.8174   -0.8959 H   0  0  0  0  0  0  0  0  0  0  0  0
   26.0556   17.8175    0.8960 H   0  0  0  0  0  0  0  0  0  0  0  0
   25.6941   19.8548    0.8958 H   0  0  0  0  0  0  0  0  0  0  0  0
   25.6945   19.8546   -0.8961 H   0  0  0  0  0  0  0  0  0  0  0  0
   27.4042   22.3957   -1.0076 H   0  0  0  0  0  0  0  0  0  0  0  0
   28.7456   21.6171   -0.1526 H   0  0  0  0  0  0  0  0  0  0  0  0
   28.8042   23.4628    1.4533 H   0  0  0  0  0  0  0  0  0  0  0  0
   27.4555   24.2480    0.5847 H   0  0  0  0  0  0  0  0  0  0  0  0
   30.3544   23.8223   -0.6161 H   0  0  0  0  0  0  0  0  0  0  0  0
   29.0012   24.5952   -1.4916 H   0  0  0  0  0  0  0  0  0  0  0  0
   28.9356   26.3307    0.1306 H   0  0  0  0  0  0  0  0  0  0  0  0
   30.3652   25.6106    0.9885 H   0  0  0  0  0  0  0  0  0  0  0  0
   30.1868   27.6800    0.8982 H   0  0  0  0  0  0  0  0  0  0  0  0
   30.2035   27.5803   -0.9359 H   0  0  0  0  0  0  0  0  0  0  0  0
   32.1250   28.2185    0.8733 H   0  0  0  0  0  0  0  0  0  0  0  0
   32.1214   28.2200   -0.8724 H   0  0  0  0  0  0  0  0  0  0  0  0
   31.6346   30.1716    0.9040 H   0  0  0  0  0  0  0  0  0  0  0  0
   31.7097   30.1994   -0.9328 H   0  0  0  0  0  0  0  0  0  0  0  0
   33.5554   31.0082    0.9529 H   0  0  0  0  0  0  0  0  0  0  0  0
   32.1662   31.9296    0.0950 H   0  0  0  0  0  0  0  0  0  0  0  0
   33.5350   32.1035    0.0000 H   0  0  0  0  0  0  0  0  0  0  0  0
  1  2  1  0  0  0  0
  1 67  1  0  0  0  0
  1 68  1  0  0  0  0
  1 69  1  0  0  0  0
  2  3  1  0  0  0  0
  2 70  1  0  0  0  0
  2 71  1  0  0  0  0
  3  4  1  0  0  0  0
  3 72  1  0  0  0  0
  3 73  1  0  0  0  0
  4  5  1  0  0  0  0
  4 74  1  0  0  0  0
  4 75  1  0  0  0  0
  5  6  1  0  0  0  0
  5 76  1  0  0  0  0
  5 77  1  0  0  0  0
  6  7  2  0  0  0  0
  6 78  1  0  0  0  0
  7  8  1  0  0  0  0
  7 79  1  0  0  0  0
  8  9  1  0  0  0  0
  8 80  1  0  0  0  0
  8 81  1  0  0  0  0
  9 10  2  0  0  0  0
  9 82  1  0  0  0  0
 10 11  1  0  0  0  0
 10 83  1  0  0  0  0
 11 12  1  0  0  0  0
 11 84  1  0  0  0  0
 11 85  1  0  0  0  0
 12 13  2  0  0  0  0
 12 86  1  0  0  0  0
 13 14  1  0  0  0  0
 13 87  1  0  0  0  0
 14 15  1  0  0  0  0
 14 88  1  0  0  0  0
 14 89  1  0  0  0  0
 15 16  2  0  0  0  0
 15 90  1  0  0  0  0
 16 17  1  0  0  0  0
 16 91  1  0  0  0  0
 17 18  1  0  0  0  0
 17 92  1  0  0  0  0
 17 93  1  0  0  0  0
 18 19  1  0  0  0  0
 19 20  1  0  0  0  0
 19 94  1  0  0  0  0
 19 95  1  0  0  0  0
 20 21  2  0  0  0  0
 20 22  1  0  0  0  0
 22 23  1  0  0  0  0
 23 96  1  0  0  0  0
 23 97  1  0  0  0  0
 24 23  1  0  0  0  0
 24 25  1  0  0  0  0
 24 45  1  0  0  0  0
 24 98  1  6  0  0  0
 25 26  1  0  0  0  0
 25 99  1  0  0  0  0
 25100  1  0  0  0  0
 26 27  1  0  0  0  0
 27 28  1  0  0  0  0
 28 29  1  0  0  0  0
 29 30  1  0  0  0  0
 30 31  1  0  0  0  0
 31 32  1  0  0  0  0
 32 33  1  0  0  0  0
 33 34  1  0  0  0  0
 34 35  1  0  0  0  0
 35 36  1  0  0  0  0
 36 37  1  0  0  0  0
 37 38  1  0  0  0  0
 38 39  1  0  0  0  0
 39 40  1  0  0  0  0
 40 41  1  0  0  0  0
 41 42  1  0  0  0  0
 42 43  1  0  0  0  0
 43 44  1  0  0  0  0
 44101  1  0  0  0  0
 44102  1  0  0  0  0
 44103  1  0  0  0  0
 45 46  1  0  0  0  0
 46 47  2  0  0  0  0
 46 48  1  0  0  0  0
 48 49  1  0  0  0  0
 48104  1  0  0  0  0
 48105  1  0  0  0  0
 49 50  1  0  0  0  0
 49106  1  0  0  0  0
 49107  1  0  0  0  0
 50 51  1  0  0  0  0
 50108  1  0  0  0  0
 50109  1  0  0  0  0
 51 52  1  0  0  0  0
 51110  1  0  0  0  0
 51111  1  0  0  0  0
 52 53  1  0  0  0  0
 52112  1  0  0  0  0
 52113  1  0  0  0  0
 53 54  1  0  0  0  0
 53114  1  0  0  0  0
 53115  1  0  0  0  0
 54 55  1  0  0  0  0
 54116  1  0  0  0  0
 54117  1  0  0  0  0
 55 56  1  0  0  0  0
 56 57  1  0  0  0  0
 56118  1  0  0  0  0
 56119  1  0  0  0  0
 57 58  1  0  0  0  0
 57120  1  0  0  0  0
 57121  1  0  0  0  0
 58 59  1  0  0  0  0
 59 60  1  0  0  0  0
 59122  1  0  0  0  0
 59123  1  0  0  0  0
 60 61  1  0  0  0  0
 60124  1  0  0  0  0
 60125  1  0  0  0  0
 61 62  1  0  0  0  0
 61126  1  0  0  0  0
 61127  1  0  0  0  0
 62 63  1  0  0  0  0
 62128  1  0  0  0  0
 62129  1  0  0  0  0
 63 64  1  0  0  0  0
 63130  1  0  0  0  0
 63131  1  0  0  0  0
 64 65  1  0  0  0  0
 64132  1  0  0  0  0
 64133  1  0  0  0  0
 65 66  1  0  0  0  0
 65134  1  0  0  0  0
 65135  1  0  0  0  0
 66136  1  0  0  0  0
 66137  1  0  0  0  0
 66138  1  0  0  0  0
M  END
>  <IDENTIFIER>
CNP0588033.1

>  <Energy>
9983.72

$$$$
