
 OpenBabel09132507543D

 53 56  0  0  0  0  0  0  0  0999 V2000
   -4.5511    1.4962    1.9434 C   0  0  0  0  0  0  0  0  0  0  0  0
   -4.2123    0.4667    1.4145 C   0  0  0  0  0  0  0  0  0  0  0  0
   -3.8040   -0.8075    0.7665 C   0  0  2  0  0  0  0  0  0  0  0  0
   -4.8536   -1.2375   -0.0663 O   0  0  0  0  0  0  0  0  0  0  0  0
   -3.4442   -1.8452    1.8773 C   0  0  0  0  0  0  0  0  0  0  0  0
   -1.9037   -1.7750    2.0582 C   0  0  0  0  0  0  0  0  0  0  0  0
   -1.4788   -0.5949    1.1849 C   0  0  1  0  0  0  0  0  0  0  0  0
   -0.0009   -0.4633    0.7547 C   0  0  2  0  0  0  0  0  0  0  0  0
    0.9543   -0.4521    2.0002 C   0  0  0  0  0  0  0  0  0  0  0  0
    1.9840    0.6902    1.9732 C   0  0  0  0  0  0  0  0  0  0  0  0
    2.5602    0.8378    0.5960 C   0  0  0  0  0  0  0  0  0  0  0  0
    3.9442    0.8635    0.3774 C   0  0  0  0  0  0  0  0  0  0  0  0
    4.4497    1.0139   -0.9283 C   0  0  0  0  0  0  0  0  0  0  0  0
    5.7807    1.0399   -1.1999 O   0  0  0  0  0  0  0  0  0  0  0  0
    6.7944    0.9009   -0.2747 C   0  0  0  0  0  0  0  0  0  0  0  0
    3.5537    1.1413   -1.9945 C   0  0  0  0  0  0  0  0  0  0  0  0
    2.1727    1.1054   -1.7804 C   0  0  0  0  0  0  0  0  0  0  0  0
    1.6561    0.9453   -0.4805 C   0  0  0  0  0  0  0  0  0  0  0  0
    0.1645    0.8220   -0.1362 C   0  0  1  0  0  0  0  0  0  0  0  0
   -0.8177    0.8314   -1.3570 C   0  0  1  0  0  0  0  0  0  0  0  0
   -0.4437   -0.1705   -2.2886 O   0  0  0  0  0  0  0  0  0  0  0  0
   -0.8959    0.1468   -3.5900 C   0  0  0  0  0  0  0  0  0  0  0  0
   -2.2840    0.6283   -0.8590 C   0  0  0  0  0  0  0  0  0  0  0  0
   -2.4542   -0.6678   -0.0058 C   0  0  2  0  0  0  0  0  0  0  0  0
   -2.2631   -1.9420   -0.9065 C   0  0  0  0  0  0  0  0  0  0  0  0
   -4.8502    2.3985    2.4079 H   0  0  0  0  0  0  0  0  0  0  0  0
   -5.5932   -1.5472    0.5204 H   0  0  0  0  0  0  0  0  0  0  0  0
   -3.6823   -2.8807    1.5485 H   0  0  0  0  0  0  0  0  0  0  0  0
   -4.0178   -1.6702    2.8143 H   0  0  0  0  0  0  0  0  0  0  0  0
   -1.4581   -2.6970    1.6247 H   0  0  0  0  0  0  0  0  0  0  0  0
   -1.5715   -1.7135    3.1156 H   0  0  0  0  0  0  0  0  0  0  0  0
   -1.7049    0.3237    1.7765 H   0  0  0  0  0  0  0  0  0  0  0  0
    0.2969   -1.3323    0.1289 H   0  0  0  0  0  0  0  0  0  0  0  0
    1.4733   -1.4349    2.0392 H   0  0  0  0  0  0  0  0  0  0  0  0
    0.3970   -0.3419    2.9555 H   0  0  0  0  0  0  0  0  0  0  0  0
    2.7541    0.5558    2.7633 H   0  0  0  0  0  0  0  0  0  0  0  0
    1.4486    1.6383    2.1981 H   0  0  0  0  0  0  0  0  0  0  0  0
    4.6129    0.7691    1.2224 H   0  0  0  0  0  0  0  0  0  0  0  0
    7.7716    0.9572   -0.7967 H   0  0  0  0  0  0  0  0  0  0  0  0
    6.7198   -0.0863    0.2298 H   0  0  0  0  0  0  0  0  0  0  0  0
    6.7453    1.7182    0.4758 H   0  0  0  0  0  0  0  0  0  0  0  0
    3.9313    1.2608   -3.0026 H   0  0  0  0  0  0  0  0  0  0  0  0
    1.5326    1.2012   -2.6401 H   0  0  0  0  0  0  0  0  0  0  0  0
   -0.1099    1.6969    0.4951 H   0  0  0  0  0  0  0  0  0  0  0  0
   -0.7312    1.8447   -1.8186 H   0  0  0  0  0  0  0  0  0  0  0  0
   -0.5358   -0.6418   -4.2820 H   0  0  0  0  0  0  0  0  0  0  0  0
   -0.4714    1.1079   -3.9533 H   0  0  0  0  0  0  0  0  0  0  0  0
   -2.0036    0.1449   -3.6522 H   0  0  0  0  0  0  0  0  0  0  0  0
   -3.0097    0.6395   -1.6977 H   0  0  0  0  0  0  0  0  0  0  0  0
   -2.5165    1.5138   -0.2300 H   0  0  0  0  0  0  0  0  0  0  0  0
   -2.9774   -1.9116   -1.7558 H   0  0  0  0  0  0  0  0  0  0  0  0
   -2.4534   -2.8916   -0.3718 H   0  0  0  0  0  0  0  0  0  0  0  0
   -1.2493   -2.0594   -1.3172 H   0  0  0  0  0  0  0  0  0  0  0  0
  1  2  3  0  0  0  0
  1 26  1  0  0  0  0
  3  2  1  1  0  0  0
  3  4  1  0  0  0  0
  3  5  1  0  0  0  0
  4 27  1  0  0  0  0
  5  6  1  0  0  0  0
  5 28  1  0  0  0  0
  5 29  1  0  0  0  0
  6 30  1  0  0  0  0
  6 31  1  0  0  0  0
  7  6  1  0  0  0  0
  7  8  1  0  0  0  0
  7 32  1  1  0  0  0
  8  9  1  0  0  0  0
  8 33  1  6  0  0  0
  9 10  1  0  0  0  0
  9 34  1  0  0  0  0
  9 35  1  0  0  0  0
 10 11  1  0  0  0  0
 10 36  1  0  0  0  0
 10 37  1  0  0  0  0
 11 12  2  0  0  0  0
 12 13  1  0  0  0  0
 12 38  1  0  0  0  0
 13 14  1  0  0  0  0
 13 16  2  0  0  0  0
 14 15  1  0  0  0  0
 15 39  1  0  0  0  0
 15 40  1  0  0  0  0
 15 41  1  0  0  0  0
 16 17  1  0  0  0  0
 16 42  1  0  0  0  0
 17 18  2  0  0  0  0
 17 43  1  0  0  0  0
 18 11  1  0  0  0  0
 19 18  1  0  0  0  0
 19 20  1  0  0  0  0
 19  8  1  0  0  0  0
 19 44  1  1  0  0  0
 20 21  1  0  0  0  0
 20 23  1  0  0  0  0
 20 45  1  6  0  0  0
 21 22  1  0  0  0  0
 22 46  1  0  0  0  0
 22 47  1  0  0  0  0
 22 48  1  0  0  0  0
 23 24  1  0  0  0  0
 23 49  1  0  0  0  0
 23 50  1  0  0  0  0
 24 25  1  6  0  0  0
 24  3  1  0  0  0  0
 24  7  1  0  0  0  0
 25 51  1  0  0  0  0
 25 52  1  0  0  0  0
 25 53  1  0  0  0  0
M  END
>  <IDENTIFIER>
CNP0220968.1

>  <Energy>
644.275

$$$$
