
 OpenBabel09092523433D

 36 38  0  0  0  0  0  0  0  0999 V2000
    4.1452    0.8171   -0.3961 C   0  0  0  0  0  0  0  0  0  0  0  0
    2.8109    1.0309   -1.0525 C   0  0  0  0  0  0  0  0  0  0  0  0
    2.6015    0.5491   -2.1556 O   0  0  0  0  0  0  0  0  0  0  0  0
    1.7345    1.8531   -0.3828 C   0  0  0  0  0  0  0  0  0  0  0  0
    1.2889    1.2497    0.9609 C   0  0  0  0  0  0  0  0  0  0  0  0
    0.7048   -0.1267    0.7947 C   0  0  0  0  0  0  0  0  0  0  0  0
   -0.5218   -0.4809    0.2084 C   0  0  0  0  0  0  0  0  0  0  0  0
   -1.5353    0.4711   -0.3272 C   0  0  0  0  0  0  0  0  0  0  0  0
   -2.7269    0.1923   -0.9841 C   0  0  0  0  0  0  0  0  0  0  0  0
   -3.3122    1.4084   -1.2555 C   0  0  0  0  0  0  0  0  0  0  0  0
   -2.4549    2.3588   -0.7520 C   0  0  0  0  0  0  0  0  0  0  0  0
   -2.6522    3.8369   -0.7983 C   0  0  0  0  0  0  0  0  0  0  0  0
   -1.4134    1.7761   -0.2081 O   0  0  0  0  0  0  0  0  0  0  0  0
   -0.5541   -1.8723    0.2862 C   0  0  0  0  0  0  0  0  0  0  0  0
   -1.4903   -2.8378   -0.1081 C   0  0  0  0  0  0  0  0  0  0  0  0
   -1.1978   -4.1932    0.1335 C   0  0  0  0  0  0  0  0  0  0  0  0
   -2.4452   -5.5409   -0.3914 Br  0  0  0  0  0  0  0  0  0  0  0  0
    0.0083   -4.5636    0.7613 C   0  0  0  0  0  0  0  0  0  0  0  0
    0.9313   -3.5826    1.1554 C   0  0  0  0  0  0  0  0  0  0  0  0
    2.5686   -4.0672    2.0118 Br  0  0  0  0  0  0  0  0  0  0  0  0
    0.6172   -2.2486    0.9041 C   0  0  0  0  0  0  0  0  0  0  0  0
    1.3456   -1.2040    1.2027 O   0  0  0  0  0  0  0  0  0  0  0  0
    4.8096    0.2104   -1.0478 H   0  0  0  0  0  0  0  0  0  0  0  0
    4.0232    0.2807    0.5667 H   0  0  0  0  0  0  0  0  0  0  0  0
    4.6291    1.7986   -0.2102 H   0  0  0  0  0  0  0  0  0  0  0  0
    0.8674    1.9438   -1.0676 H   0  0  0  0  0  0  0  0  0  0  0  0
    2.1326    2.8749   -0.2068 H   0  0  0  0  0  0  0  0  0  0  0  0
    0.5523    1.9055    1.4705 H   0  0  0  0  0  0  0  0  0  0  0  0
    2.1778    1.1891    1.6232 H   0  0  0  0  0  0  0  0  0  0  0  0
   -3.1537   -0.7546   -1.2539 H   0  0  0  0  0  0  0  0  0  0  0  0
   -4.2544    1.5778   -1.7600 H   0  0  0  0  0  0  0  0  0  0  0  0
   -3.6080    4.0888   -1.3048 H   0  0  0  0  0  0  0  0  0  0  0  0
   -1.8134    4.3044   -1.3544 H   0  0  0  0  0  0  0  0  0  0  0  0
   -2.6746    4.2387    0.2359 H   0  0  0  0  0  0  0  0  0  0  0  0
   -2.4182   -2.5892   -0.5837 H   0  0  0  0  0  0  0  0  0  0  0  0
    0.2234   -5.6089    0.9425 H   0  0  0  0  0  0  0  0  0  0  0  0
  1  2  1  0  0  0  0
  1 23  1  0  0  0  0
  1 24  1  0  0  0  0
  1 25  1  0  0  0  0
  2  3  2  0  0  0  0
  2  4  1  0  0  0  0
  4  5  1  0  0  0  0
  4 26  1  0  0  0  0
  4 27  1  0  0  0  0
  5  6  1  0  0  0  0
  5 28  1  0  0  0  0
  5 29  1  0  0  0  0
  6  7  2  0  0  0  0
  7  8  1  0  0  0  0
  7 14  1  0  0  0  0
  8  9  2  0  0  0  0
  9 10  1  0  0  0  0
  9 30  1  0  0  0  0
 10 11  2  0  0  0  0
 10 31  1  0  0  0  0
 11 12  1  0  0  0  0
 11 13  1  0  0  0  0
 12 32  1  0  0  0  0
 12 33  1  0  0  0  0
 12 34  1  0  0  0  0
 13  8  1  0  0  0  0
 14 15  2  0  0  0  0
 15 16  1  0  0  0  0
 15 35  1  0  0  0  0
 16 17  1  0  0  0  0
 16 18  2  0  0  0  0
 18 19  1  0  0  0  0
 18 36  1  0  0  0  0
 19 20  1  0  0  0  0
 19 21  2  0  0  0  0
 21 22  1  0  0  0  0
 21 14  1  0  0  0  0
 22  6  1  0  0  0  0
M  END
>  <IDENTIFIER>
CNP0253528.0

>  <Energy>
399.654

$$$$
