
 OpenBabel09112500453D

 81 85  0  0  0  0  0  0  0  0999 V2000
   -5.7798    0.6628    2.2458 C   0  0  0  0  0  0  0  0  0  0  0  0
   -5.0363   -0.2511    1.2477 C   0  0  0  0  0  0  0  0  0  0  0  0
   -5.2748   -1.7174    1.6731 C   0  0  0  0  0  0  0  0  0  0  0  0
   -5.6187   -0.0886   -0.2047 C   0  0  0  0  0  0  0  0  0  0  0  0
   -4.9489    1.0735   -0.9268 C   0  0  0  0  0  0  0  0  0  0  0  0
   -3.4023    0.8504   -1.1346 C   0  0  2  0  0  0  0  0  0  0  0  0
   -2.8091    2.2825   -1.1882 C   0  0  0  0  0  0  0  0  0  0  0  0
   -3.0681    0.1228   -2.4533 C   0  0  0  0  0  0  0  0  0  0  0  0
   -1.5621   -0.0100   -2.5840 C   0  0  0  0  0  0  0  0  0  0  0  0
   -0.6949   -0.2816   -1.5426 C   0  0  0  0  0  0  0  0  0  0  0  0
    0.8752   -0.2378   -1.7631 C   0  0  2  0  0  0  0  0  0  0  0  0
    1.2033    0.0031   -3.2718 C   0  0  0  0  0  0  0  0  0  0  0  0
    1.5204   -1.6131   -1.4057 C   0  0  0  0  0  0  0  0  0  0  0  0
    2.3094   -1.6566   -0.0820 C   0  0  0  0  0  0  0  0  0  0  0  0
    3.5268   -0.7097   -0.1420 C   0  0  2  0  0  0  0  0  0  0  0  0
    4.5147   -0.8782    1.0906 C   0  0  0  0  0  0  0  0  0  0  0  0
    5.9296   -0.3100    0.7526 C   0  0  0  0  0  0  0  0  0  0  0  0
    4.7904   -2.3750    1.4170 C   0  0  0  0  0  0  0  0  0  0  0  0
    3.8754   -0.2198    2.3631 C   0  0  1  0  0  0  0  0  0  0  0  0
    4.7880   -0.1509    3.4309 O   0  0  0  0  0  0  0  0  0  0  0  0
    3.1441    1.1348    2.1382 C   0  0  0  0  0  0  0  0  0  0  0  0
    3.4165    1.7549    0.7621 C   0  0  0  0  0  0  0  0  0  0  0  0
    3.0659    0.7956   -0.4389 C   0  0  1  0  0  0  0  0  0  0  0  0
    3.9498    1.3301   -1.6103 C   0  0  0  0  0  0  0  0  0  0  0  0
    1.5025    0.9418   -0.8766 C   0  0  2  0  0  0  0  0  0  0  0  0
    0.4699    1.4726    0.2051 C   0  0  0  0  0  0  0  0  0  0  0  0
   -0.4146    0.4322    0.8961 C   0  0  0  0  0  0  0  0  0  0  0  0
   -1.2609   -0.4525   -0.0887 C   0  0  2  0  0  0  0  0  0  0  0  0
   -1.1491   -1.9353    0.4015 C   0  0  0  0  0  0  0  0  0  0  0  0
   -2.8280   -0.1431   -0.0489 C   0  0  1  0  0  0  0  0  0  0  0  0
   -3.4997    0.0975    1.3161 C   0  0  0  0  0  0  0  0  0  0  0  0
   -6.8677    0.4360    2.2520 H   0  0  0  0  0  0  0  0  0  0  0  0
   -5.6540    1.7333    1.9806 H   0  0  0  0  0  0  0  0  0  0  0  0
   -5.3878    0.5155    3.2756 H   0  0  0  0  0  0  0  0  0  0  0  0
   -6.3585   -1.9621    1.6432 H   0  0  0  0  0  0  0  0  0  0  0  0
   -4.9088   -1.8923    2.7081 H   0  0  0  0  0  0  0  0  0  0  0  0
   -4.7410   -2.4204    0.9988 H   0  0  0  0  0  0  0  0  0  0  0  0
   -6.7240    0.0241   -0.1646 H   0  0  0  0  0  0  0  0  0  0  0  0
   -5.4229   -0.9878   -0.8288 H   0  0  0  0  0  0  0  0  0  0  0  0
   -5.1334    1.9534   -0.2720 H   0  0  0  0  0  0  0  0  0  0  0  0
   -5.4351    1.3012   -1.9005 H   0  0  0  0  0  0  0  0  0  0  0  0
   -3.3697    2.8938   -1.9282 H   0  0  0  0  0  0  0  0  0  0  0  0
   -1.7817    2.3123   -1.5639 H   0  0  0  0  0  0  0  0  0  0  0  0
   -2.8750    2.7844   -0.2001 H   0  0  0  0  0  0  0  0  0  0  0  0
   -3.4731    0.6631   -3.3368 H   0  0  0  0  0  0  0  0  0  0  0  0
   -3.5244   -0.8905   -2.4761 H   0  0  0  0  0  0  0  0  0  0  0  0
   -1.2160    0.2164   -3.5803 H   0  0  0  0  0  0  0  0  0  0  0  0
    0.7460   -0.7930   -3.8997 H   0  0  0  0  0  0  0  0  0  0  0  0
    2.2733   -0.0464   -3.5074 H   0  0  0  0  0  0  0  0  0  0  0  0
    0.8445    0.9990   -3.6094 H   0  0  0  0  0  0  0  0  0  0  0  0
    2.2854   -1.8915   -2.1661 H   0  0  0  0  0  0  0  0  0  0  0  0
    0.7763   -2.4300   -1.5084 H   0  0  0  0  0  0  0  0  0  0  0  0
    2.6477   -2.7077    0.0047 H   0  0  0  0  0  0  0  0  0  0  0  0
    1.7248   -1.4298    0.8096 H   0  0  0  0  0  0  0  0  0  0  0  0
    4.0787   -1.1002   -1.0288 H   0  0  0  0  0  0  0  0  0  0  0  0
    6.3427   -0.8303   -0.1383 H   0  0  0  0  0  0  0  0  0  0  0  0
    6.6373   -0.4913    1.5900 H   0  0  0  0  0  0  0  0  0  0  0  0
    6.0083    0.7591    0.5427 H   0  0  0  0  0  0  0  0  0  0  0  0
    5.1975   -2.9049    0.5284 H   0  0  0  0  0  0  0  0  0  0  0  0
    3.8806   -2.9058    1.7635 H   0  0  0  0  0  0  0  0  0  0  0  0
    5.5252   -2.4713    2.2452 H   0  0  0  0  0  0  0  0  0  0  0  0
    3.0635   -0.8951    2.7136 H   0  0  0  0  0  0  0  0  0  0  0  0
    5.3909    0.6212    3.2645 H   0  0  0  0  0  0  0  0  0  0  0  0
    3.4072    1.8584    2.9408 H   0  0  0  0  0  0  0  0  0  0  0  0
    2.0648    0.9587    2.2633 H   0  0  0  0  0  0  0  0  0  0  0  0
    4.4772    2.0351    0.7857 H   0  0  0  0  0  0  0  0  0  0  0  0
    2.9346    2.7458    0.6319 H   0  0  0  0  0  0  0  0  0  0  0  0
    3.6822    2.3766   -1.8743 H   0  0  0  0  0  0  0  0  0  0  0  0
    3.8881    0.7135   -2.5150 H   0  0  0  0  0  0  0  0  0  0  0  0
    5.0262    1.3292   -1.3538 H   0  0  0  0  0  0  0  0  0  0  0  0
    1.5008    1.8659   -1.4988 H   0  0  0  0  0  0  0  0  0  0  0  0
   -0.2339    2.1348   -0.2991 H   0  0  0  0  0  0  0  0  0  0  0  0
    0.8978    2.1777    0.9329 H   0  0  0  0  0  0  0  0  0  0  0  0
   -1.0618    0.9318    1.6418 H   0  0  0  0  0  0  0  0  0  0  0  0
    0.2459   -0.1848    1.5249 H   0  0  0  0  0  0  0  0  0  0  0  0
   -1.5971   -2.0553    1.4094 H   0  0  0  0  0  0  0  0  0  0  0  0
   -0.1374   -2.3295    0.4966 H   0  0  0  0  0  0  0  0  0  0  0  0
   -1.6742   -2.6244   -0.2954 H   0  0  0  0  0  0  0  0  0  0  0  0
   -3.2653   -1.1221   -0.3404 H   0  0  0  0  0  0  0  0  0  0  0  0
   -3.3444    1.1758    1.5376 H   0  0  0  0  0  0  0  0  0  0  0  0
   -3.0365   -0.4637    2.1546 H   0  0  0  0  0  0  0  0  0  0  0  0
  1  2  1  0  0  0  0
  1 32  1  0  0  0  0
  1 33  1  0  0  0  0
  1 34  1  0  0  0  0
  2  3  1  0  0  0  0
  2  4  1  0  0  0  0
  3 35  1  0  0  0  0
  3 36  1  0  0  0  0
  3 37  1  0  0  0  0
  4  5  1  0  0  0  0
  4 38  1  0  0  0  0
  4 39  1  0  0  0  0
  5  6  1  0  0  0  0
  5 40  1  0  0  0  0
  5 41  1  0  0  0  0
  6  7  1  1  0  0  0
  6  8  1  0  0  0  0
  7 42  1  0  0  0  0
  7 43  1  0  0  0  0
  7 44  1  0  0  0  0
  8  9  1  0  0  0  0
  8 45  1  0  0  0  0
  8 46  1  0  0  0  0
  9 10  2  0  0  0  0
  9 47  1  0  0  0  0
 10 11  1  0  0  0  0
 11 12  1  6  0  0  0
 11 13  1  0  0  0  0
 12 48  1  0  0  0  0
 12 49  1  0  0  0  0
 12 50  1  0  0  0  0
 13 14  1  0  0  0  0
 13 51  1  0  0  0  0
 13 52  1  0  0  0  0
 14 53  1  0  0  0  0
 14 54  1  0  0  0  0
 15 14  1  0  0  0  0
 15 16  1  0  0  0  0
 15 55  1  6  0  0  0
 16 17  1  0  0  0  0
 16 18  1  0  0  0  0
 16 19  1  0  0  0  0
 17 56  1  0  0  0  0
 17 57  1  0  0  0  0
 17 58  1  0  0  0  0
 18 59  1  0  0  0  0
 18 60  1  0  0  0  0
 18 61  1  0  0  0  0
 19 20  1  0  0  0  0
 19 21  1  0  0  0  0
 19 62  1  1  0  0  0
 20 63  1  0  0  0  0
 21 22  1  0  0  0  0
 21 64  1  0  0  0  0
 21 65  1  0  0  0  0
 22 23  1  0  0  0  0
 22 66  1  0  0  0  0
 22 67  1  0  0  0  0
 23 24  1  6  0  0  0
 23 25  1  0  0  0  0
 23 15  1  0  0  0  0
 24 68  1  0  0  0  0
 24 69  1  0  0  0  0
 24 70  1  0  0  0  0
 25 26  1  0  0  0  0
 25 11  1  0  0  0  0
 25 71  1  6  0  0  0
 26 27  1  0  0  0  0
 26 72  1  0  0  0  0
 26 73  1  0  0  0  0
 27 28  1  0  0  0  0
 27 74  1  0  0  0  0
 27 75  1  0  0  0  0
 28 29  1  1  0  0  0
 28 30  1  0  0  0  0
 28 10  1  0  0  0  0
 29 76  1  0  0  0  0
 29 77  1  0  0  0  0
 29 78  1  0  0  0  0
 30 31  1  0  0  0  0
 30  6  1  0  0  0  0
 30 79  1  6  0  0  0
 31  2  1  0  0  0  0
 31 80  1  0  0  0  0
 31 81  1  0  0  0  0
M  END
>  <IDENTIFIER>
CNP0201957.19

>  <Energy>
1389.61

$$$$
