
 OpenBabel09092517093D

 41 44  0  0  0  0  0  0  0  0999 V2000
   -2.7485   -1.0728    1.6575 C   0  0  0  0  0  0  0  0  0  0  0  0
   -2.8181   -0.4332    0.2361 C   0  0  0  0  0  0  0  0  0  0  0  0
   -4.2619    0.1569    0.1391 C   0  0  0  0  0  0  0  0  0  0  0  0
   -2.4551   -1.3960   -0.9168 C   0  0  1  0  0  0  0  0  0  0  0  0
   -2.4849   -0.4878   -2.1701 C   0  0  0  0  0  0  0  0  0  0  0  0
   -1.9872    0.8622   -1.6289 C   0  0  0  0  0  0  0  0  0  0  0  0
   -1.6543    0.5374   -0.1470 C   0  0  1  0  0  0  0  0  0  0  0  0
   -1.4946    1.8088    0.7002 C   0  0  0  0  0  0  0  0  0  0  0  0
   -0.3907   -0.3903   -0.1429 C   0  0  2  0  0  0  0  0  0  0  0  0
   -0.9646   -1.7285   -0.6546 C   0  0  0  0  0  0  0  0  0  0  0  0
    0.1118   -0.5556    1.1359 O   0  0  0  0  0  0  0  0  0  0  0  0
    1.3919   -0.3273    1.3188 N   0  0  0  0  0  0  0  0  0  0  0  0
    2.0369    0.0526    0.2860 C   0  0  0  0  0  0  0  0  0  0  0  0
    3.5017    0.3026    0.3101 C   0  0  0  0  0  0  0  0  0  0  0  0
    4.2376    0.1287    1.4982 C   0  0  0  0  0  0  0  0  0  0  0  0
    5.6187    0.3488    1.5165 C   0  0  0  0  0  0  0  0  0  0  0  0
    6.2816    0.7452    0.3518 C   0  0  0  0  0  0  0  0  0  0  0  0
    8.0146    1.0157    0.3752 Cl  0  0  0  0  0  0  0  0  0  0  0  0
    5.5616    0.9234   -0.8322 C   0  0  0  0  0  0  0  0  0  0  0  0
    4.1810    0.7038   -0.8549 C   0  0  0  0  0  0  0  0  0  0  0  0
    1.0222    0.2062   -1.1705 S   0  0  0  0  0  0  0  0  0  0  0  0
   -3.5518   -1.8328    1.7669 H   0  0  0  0  0  0  0  0  0  0  0  0
   -2.9024   -0.2925    2.4330 H   0  0  0  0  0  0  0  0  0  0  0  0
   -1.8142   -1.5973    1.9094 H   0  0  0  0  0  0  0  0  0  0  0  0
   -5.0094   -0.6506    0.2958 H   0  0  0  0  0  0  0  0  0  0  0  0
   -4.5268    0.6245   -0.8247 H   0  0  0  0  0  0  0  0  0  0  0  0
   -4.4138    0.9267    0.9251 H   0  0  0  0  0  0  0  0  0  0  0  0
   -3.0638   -2.3155   -1.0521 H   0  0  0  0  0  0  0  0  0  0  0  0
   -3.5185   -0.3687   -2.5594 H   0  0  0  0  0  0  0  0  0  0  0  0
   -1.8598   -0.8984   -2.9930 H   0  0  0  0  0  0  0  0  0  0  0  0
   -2.8142    1.6015   -1.6773 H   0  0  0  0  0  0  0  0  0  0  0  0
   -1.1688    1.3133   -2.2256 H   0  0  0  0  0  0  0  0  0  0  0  0
   -0.6494    2.4192    0.3181 H   0  0  0  0  0  0  0  0  0  0  0  0
   -1.2967    1.5500    1.7610 H   0  0  0  0  0  0  0  0  0  0  0  0
   -2.4199    2.4209    0.6582 H   0  0  0  0  0  0  0  0  0  0  0  0
   -0.8885   -2.5070    0.1342 H   0  0  0  0  0  0  0  0  0  0  0  0
   -0.4514   -2.1366   -1.5525 H   0  0  0  0  0  0  0  0  0  0  0  0
    3.7483   -0.1813    2.4132 H   0  0  0  0  0  0  0  0  0  0  0  0
    6.1726    0.2083    2.4359 H   0  0  0  0  0  0  0  0  0  0  0  0
    6.0710    1.2293   -1.7375 H   0  0  0  0  0  0  0  0  0  0  0  0
    3.6523    0.8469   -1.7880 H   0  0  0  0  0  0  0  0  0  0  0  0
  1  2  1  0  0  0  0
  1 22  1  0  0  0  0
  1 23  1  0  0  0  0
  1 24  1  0  0  0  0
  2  3  1  0  0  0  0
  2  4  1  0  0  0  0
  3 25  1  0  0  0  0
  3 26  1  0  0  0  0
  3 27  1  0  0  0  0
  4  5  1  0  0  0  0
  4 28  1  6  0  0  0
  5  6  1  0  0  0  0
  5 29  1  0  0  0  0
  5 30  1  0  0  0  0
  6  7  1  0  0  0  0
  6 31  1  0  0  0  0
  6 32  1  0  0  0  0
  7  8  1  1  0  0  0
  7  9  1  0  0  0  0
  7  2  1  0  0  0  0
  8 33  1  0  0  0  0
  8 34  1  0  0  0  0
  8 35  1  0  0  0  0
  9 10  1  0  0  0  0
  9 11  1  1  0  0  0
 10  4  1  0  0  0  0
 10 36  1  0  0  0  0
 10 37  1  0  0  0  0
 11 12  1  0  0  0  0
 12 13  2  0  0  0  0
 13 14  1  0  0  0  0
 13 21  1  0  0  0  0
 14 15  2  0  0  0  0
 15 16  1  0  0  0  0
 15 38  1  0  0  0  0
 16 17  2  0  0  0  0
 16 39  1  0  0  0  0
 17 18  1  0  0  0  0
 17 19  1  0  0  0  0
 19 20  2  0  0  0  0
 19 40  1  0  0  0  0
 20 14  1  0  0  0  0
 20 41  1  0  0  0  0
 21  9  1  0  0  0  0
M  END
>  <IDENTIFIER>
CNP0239397.4

>  <Energy>
581.937

$$$$
