
 OpenBabel09052505233D

 93 97  0  0  0  0  0  0  0  0999 V2000
   -6.1494   -0.3678   -3.9097 C   0  0  0  0  0  0  0  0  0  0  0  0
   -4.7345   -0.9334   -4.0553 C   0  0  0  0  0  0  0  0  0  0  0  0
   -4.4528   -2.1485   -3.1506 C   0  0  0  0  0  0  0  0  0  0  0  0
   -4.4845   -1.8260   -1.6538 C   0  0  0  0  0  0  0  0  0  0  0  0
   -3.5009   -0.8371   -1.3645 O   0  0  0  0  0  0  0  0  0  0  0  0
   -3.6029   -0.1720   -0.0887 C   0  0  2  0  0  0  0  0  0  0  0  0
   -5.0529    0.4049    0.1727 C   0  0  0  0  0  0  0  0  0  0  0  0
   -5.4380    1.4776   -0.8287 C   0  0  0  0  0  0  0  0  0  0  0  0
   -4.5270    2.1045   -1.5964 C   0  0  0  0  0  0  0  0  0  0  0  0
   -3.0778    1.8264   -1.4393 C   0  0  0  0  0  0  0  0  0  0  0  0
   -2.3082    2.1807   -2.3151 O   0  0  0  0  0  0  0  0  0  0  0  0
   -2.6131    1.0711   -0.1897 C   0  0  1  0  0  0  0  0  0  0  0  0
   -2.7767    2.0743    1.0082 C   0  0  0  0  0  0  0  0  0  0  0  0
   -1.0982    0.5670   -0.2673 C   0  0  1  0  0  0  0  0  0  0  0  0
   -0.0155    1.7060   -0.5329 C   0  0  0  0  0  0  0  0  0  0  0  0
    1.4746    1.3388   -0.2037 C   0  0  0  0  0  0  0  0  0  0  0  0
    1.5655    0.6779    1.2112 C   0  0  2  0  0  0  0  0  0  0  0  0
    0.9563    1.7210    2.2361 C   0  0  0  0  0  0  0  0  0  0  0  0
    2.9691    0.1655    1.8702 C   0  0  2  0  0  0  0  0  0  0  0  0
    2.9272    0.3696    3.2814 O   0  0  0  0  0  0  0  0  0  0  0  0
    4.4110    0.7174    1.4065 C   0  0  1  0  0  0  0  0  0  0  0  0
    4.5083    2.2752    1.5700 C   0  0  0  0  0  0  0  0  0  0  0  0
    5.3617    0.1140    2.2653 O   0  0  0  0  0  0  0  0  0  0  0  0
    4.9783    0.4431   -0.0328 C   0  0  1  0  0  0  0  0  0  0  0  0
    5.1613   -1.0081   -0.4934 C   0  0  0  0  0  0  0  0  0  0  0  0
    6.0422   -0.9847   -1.7356 C   0  0  0  0  0  0  0  0  0  0  0  0
    7.1081   -2.0417   -1.8960 C   0  0  0  0  0  0  0  0  0  0  0  0
    5.8455    0.0089   -2.6509 C   0  0  0  0  0  0  0  0  0  0  0  0
    6.6403    0.1323   -3.9323 C   0  0  0  0  0  0  0  0  0  0  0  0
    4.8316    1.0609   -2.3212 C   0  0  0  0  0  0  0  0  0  0  0  0
    4.4868    1.8824   -3.1558 O   0  0  0  0  0  0  0  0  0  0  0  0
    4.3480    1.1447   -1.0484 O   0  0  0  0  0  0  0  0  0  0  0  0
    2.8043   -1.3690    1.8650 C   0  0  0  0  0  0  0  0  0  0  0  0
    1.2922   -1.5478    2.1419 C   0  0  0  0  0  0  0  0  0  0  0  0
    0.7201   -0.6595    1.0376 C   0  0  2  0  0  0  0  0  0  0  0  0
    1.0403   -1.3018   -0.1917 O   0  0  0  0  0  0  0  0  0  0  0  0
   -0.7962   -0.3232    1.0043 C   0  0  2  0  0  0  0  0  0  0  0  0
   -1.7139   -1.5660    0.9711 C   0  0  0  0  0  0  0  0  0  0  0  0
   -3.2046   -1.1725    1.0487 C   0  0  1  0  0  0  0  0  0  0  0  0
   -3.5027   -0.6717    2.3093 O   0  0  0  0  0  0  0  0  0  0  0  0
   -4.3628   -1.2721    3.1894 C   0  0  0  0  0  0  0  0  0  0  0  0
   -4.7361   -0.5894    4.4618 C   0  0  0  0  0  0  0  0  0  0  0  0
   -4.8529   -2.3661    2.9488 O   0  0  0  0  0  0  0  0  0  0  0  0
   -6.2810    0.4797   -4.6154 H   0  0  0  0  0  0  0  0  0  0  0  0
   -6.3339    0.0145   -2.8892 H   0  0  0  0  0  0  0  0  0  0  0  0
   -6.9056   -1.1460   -4.1435 H   0  0  0  0  0  0  0  0  0  0  0  0
   -3.9913   -0.1324   -3.8526 H   0  0  0  0  0  0  0  0  0  0  0  0
   -4.6113   -1.2575   -5.1112 H   0  0  0  0  0  0  0  0  0  0  0  0
   -3.4447   -2.5430   -3.3958 H   0  0  0  0  0  0  0  0  0  0  0  0
   -5.1975   -2.9466   -3.3684 H   0  0  0  0  0  0  0  0  0  0  0  0
   -4.2655   -2.7669   -1.1091 H   0  0  0  0  0  0  0  0  0  0  0  0
   -5.5184   -1.5161   -1.4494 H   0  0  0  0  0  0  0  0  0  0  0  0
   -5.1560    0.8485    1.1833 H   0  0  0  0  0  0  0  0  0  0  0  0
   -5.8228   -0.3849    0.2120 H   0  0  0  0  0  0  0  0  0  0  0  0
   -6.4871    1.7356   -0.9325 H   0  0  0  0  0  0  0  0  0  0  0  0
   -4.8597    2.8195   -2.3440 H   0  0  0  0  0  0  0  0  0  0  0  0
   -2.1257    2.9593    0.8965 H   0  0  0  0  0  0  0  0  0  0  0  0
   -2.5766    1.6265    1.9956 H   0  0  0  0  0  0  0  0  0  0  0  0
   -3.7867    2.5204    1.0675 H   0  0  0  0  0  0  0  0  0  0  0  0
   -0.9855   -0.1126   -1.1422 H   0  0  0  0  0  0  0  0  0  0  0  0
   -0.2445    2.6103    0.0408 H   0  0  0  0  0  0  0  0  0  0  0  0
   -0.0592    2.0536   -1.5841 H   0  0  0  0  0  0  0  0  0  0  0  0
    2.0709    2.2663   -0.2750 H   0  0  0  0  0  0  0  0  0  0  0  0
    1.8718    0.6651   -0.9907 H   0  0  0  0  0  0  0  0  0  0  0  0
    1.6164    2.6121    2.3008 H   0  0  0  0  0  0  0  0  0  0  0  0
    0.8073    1.2881    3.2466 H   0  0  0  0  0  0  0  0  0  0  0  0
   -0.0452    2.1119    2.0151 H   0  0  0  0  0  0  0  0  0  0  0  0
    3.0640    1.3136    3.5261 H   0  0  0  0  0  0  0  0  0  0  0  0
    4.3302    2.6449    2.5955 H   0  0  0  0  0  0  0  0  0  0  0  0
    3.8080    2.8050    0.9008 H   0  0  0  0  0  0  0  0  0  0  0  0
    5.5312    2.6329    1.3222 H   0  0  0  0  0  0  0  0  0  0  0  0
    5.3888    0.6007    3.1313 H   0  0  0  0  0  0  0  0  0  0  0  0
    6.0226    0.8416    0.0309 H   0  0  0  0  0  0  0  0  0  0  0  0
    4.1755   -1.4030   -0.8038 H   0  0  0  0  0  0  0  0  0  0  0  0
    5.6023   -1.6533    0.2956 H   0  0  0  0  0  0  0  0  0  0  0  0
    7.1054   -2.7519   -1.0426 H   0  0  0  0  0  0  0  0  0  0  0  0
    8.1102   -1.5640   -1.9382 H   0  0  0  0  0  0  0  0  0  0  0  0
    6.9318   -2.6252   -2.8231 H   0  0  0  0  0  0  0  0  0  0  0  0
    7.3852   -0.6756   -4.0718 H   0  0  0  0  0  0  0  0  0  0  0  0
    7.1933    1.0958   -3.9239 H   0  0  0  0  0  0  0  0  0  0  0  0
    5.9529    0.1188   -4.8024 H   0  0  0  0  0  0  0  0  0  0  0  0
    3.4488   -1.8843    2.6119 H   0  0  0  0  0  0  0  0  0  0  0  0
    3.0392   -1.8237    0.8939 H   0  0  0  0  0  0  0  0  0  0  0  0
    1.0131   -1.1611    3.1469 H   0  0  0  0  0  0  0  0  0  0  0  0
    0.9666   -2.6073    2.0775 H   0  0  0  0  0  0  0  0  0  0  0  0
    0.6880   -2.2299   -0.1799 H   0  0  0  0  0  0  0  0  0  0  0  0
   -1.0209    0.1835    1.9551 H   0  0  0  0  0  0  0  0  0  0  0  0
   -1.4827   -2.2426    1.8218 H   0  0  0  0  0  0  0  0  0  0  0  0
   -1.5483   -2.1323    0.0298 H   0  0  0  0  0  0  0  0  0  0  0  0
   -3.7776   -2.1085    0.9029 H   0  0  0  0  0  0  0  0  0  0  0  0
   -4.2313    0.3956    4.5434 H   0  0  0  0  0  0  0  0  0  0  0  0
   -4.4451   -1.2254    5.3245 H   0  0  0  0  0  0  0  0  0  0  0  0
   -5.8371   -0.4353    4.4853 H   0  0  0  0  0  0  0  0  0  0  0  0
  1  2  1  0  0  0  0
  1 44  1  0  0  0  0
  1 45  1  0  0  0  0
  1 46  1  0  0  0  0
  2  3  1  0  0  0  0
  2 47  1  0  0  0  0
  2 48  1  0  0  0  0
  3  4  1  0  0  0  0
  3 49  1  0  0  0  0
  3 50  1  0  0  0  0
  4  5  1  0  0  0  0
  4 51  1  0  0  0  0
  4 52  1  0  0  0  0
  6  5  1  6  0  0  0
  6  7  1  0  0  0  0
  7  8  1  0  0  0  0
  7 53  1  0  0  0  0
  7 54  1  0  0  0  0
  8  9  2  0  0  0  0
  8 55  1  0  0  0  0
  9 10  1  0  0  0  0
  9 56  1  0  0  0  0
 10 11  2  0  0  0  0
 10 12  1  0  0  0  0
 12 13  1  1  0  0  0
 12 14  1  0  0  0  0
 12  6  1  0  0  0  0
 13 57  1  0  0  0  0
 13 58  1  0  0  0  0
 13 59  1  0  0  0  0
 14 15  1  0  0  0  0
 14 60  1  6  0  0  0
 15 16  1  0  0  0  0
 15 61  1  0  0  0  0
 15 62  1  0  0  0  0
 16 17  1  0  0  0  0
 16 63  1  0  0  0  0
 16 64  1  0  0  0  0
 17 18  1  1  0  0  0
 17 19  1  0  0  0  0
 18 65  1  0  0  0  0
 18 66  1  0  0  0  0
 18 67  1  0  0  0  0
 19 20  1  1  0  0  0
 19 21  1  0  0  0  0
 19 33  1  0  0  0  0
 20 68  1  0  0  0  0
 21 22  1  0  0  0  0
 21 23  1  1  0  0  0
 21 24  1  0  0  0  0
 22 69  1  0  0  0  0
 22 70  1  0  0  0  0
 22 71  1  0  0  0  0
 23 72  1  0  0  0  0
 24 25  1  0  0  0  0
 24 73  1  1  0  0  0
 25 26  1  0  0  0  0
 25 74  1  0  0  0  0
 25 75  1  0  0  0  0
 26 27  1  0  0  0  0
 26 28  2  0  0  0  0
 27 76  1  0  0  0  0
 27 77  1  0  0  0  0
 27 78  1  0  0  0  0
 28 29  1  0  0  0  0
 28 30  1  0  0  0  0
 29 79  1  0  0  0  0
 29 80  1  0  0  0  0
 29 81  1  0  0  0  0
 30 31  2  0  0  0  0
 30 32  1  0  0  0  0
 32 24  1  0  0  0  0
 33 34  1  0  0  0  0
 33 82  1  0  0  0  0
 33 83  1  0  0  0  0
 34 35  1  0  0  0  0
 34 84  1  0  0  0  0
 34 85  1  0  0  0  0
 35 36  1  6  0  0  0
 35 37  1  0  0  0  0
 35 17  1  0  0  0  0
 36 86  1  0  0  0  0
 37 38  1  0  0  0  0
 37 14  1  0  0  0  0
 37 87  1  1  0  0  0
 38 39  1  0  0  0  0
 38 88  1  0  0  0  0
 38 89  1  0  0  0  0
 39 40  1  0  0  0  0
 39  6  1  0  0  0  0
 39 90  1  6  0  0  0
 40 41  1  0  0  0  0
 41 42  1  0  0  0  0
 41 43  2  0  0  0  0
 42 91  1  0  0  0  0
 42 92  1  0  0  0  0
 42 93  1  0  0  0  0
M  END
>  <IDENTIFIER>
CNP0212673.1

>  <Energy>
1156.31

$$$$
