
 OpenBabel09082523072D

187186  0  0  0  0  0  0  0  0999 V2000
    1.6644   -2.6930   -0.8534 C   0  0  0  0  0  0  0  0  0  0  0  0
    0.7171   -1.7149   -0.1752 C   0  0  0  0  0  0  0  0  0  0  0  0
    1.2647   -0.3859    0.3112 C   0  0  0  0  0  0  0  0  0  0  0  0
    2.5138    0.1406    0.3175 C   0  0  0  0  0  0  0  0  0  0  0  0
    3.8372   -0.4410   -0.1358 C   0  0  0  0  0  0  0  0  0  0  0  0
    4.3160   -1.5709    0.7446 C   0  0  0  0  0  0  0  0  0  0  0  0
    5.5506   -2.1209    0.6880 C   0  0  0  0  0  0  0  0  0  0  0  0
    6.6865   -1.6787   -0.2180 C   0  0  0  0  0  0  0  0  0  0  0  0
    7.8318   -1.2035    0.6582 C   0  0  0  0  0  0  0  0  0  0  0  0
    9.0978   -1.6853    0.6738 C   0  0  0  0  0  0  0  0  0  0  0  0
    9.6267   -2.7704   -0.2360 C   0  0  0  0  0  0  0  0  0  0  0  0
   11.0520   -3.2244    0.0809 C   0  0  0  0  0  0  0  0  0  0  0  0
   12.1996   -2.4964    0.0038 C   0  0  0  0  0  0  0  0  0  0  0  0
   12.2382   -1.0526   -0.4017 C   0  0  0  0  0  0  0  0  0  0  0  0
   13.5262   -0.2198   -0.4636 C   0  0  0  0  0  0  0  0  0  0  0  0
   14.8906   -0.3240   -0.3734 C   0  0  0  0  0  0  0  0  0  0  0  0
   16.0020   -1.3638   -0.1881 C   0  0  0  0  0  0  0  0  0  0  0  0
   15.6966   -2.8452   -0.0743 C   0  0  0  0  0  0  0  0  0  0  0  0
   16.9862   -3.7444   -0.0577 C   0  0  0  0  0  0  0  0  0  0  0  0
   16.5000   -5.1962    0.0000 C   0  0  0  0  0  0  0  0  0  0  0  0
   17.2500   -6.4952    0.0000 C   0  0  0  0  0  0  0  0  0  0  0  0
   18.0000   -7.7942    0.0000 C   0  0  0  0  0  0  0  0  0  0  0  0
   19.2265   -7.8072   -0.0069 O   0  0  0  0  0  0  0  0  0  0  0  0
   17.2500   -9.0933    0.0000 O   0  0  0  0  0  0  0  0  0  0  0  0
   18.0000  -10.3923    0.0000 C   0  0  0  0  0  0  0  0  0  0  0  0
   18.7500  -11.6913    0.0000 C   0  0  2  0  0  0  0  0  0  0  0  0
   20.2122  -11.4131   -0.7745 C   0  0  0  0  0  0  0  0  0  0  0  0
   21.2811  -10.6127   -0.1813 O   0  0  0  0  0  0  0  0  0  0  0  0
   22.5389  -10.2707   -0.7902 C   0  0  0  0  0  0  0  0  0  0  0  0
   22.6070  -10.2882   -2.0092 O   0  0  0  0  0  0  0  0  0  0  0  0
   23.9462  -10.1913    0.0000 C   0  0  0  0  0  0  0  0  0  0  0  0
   25.2452   -9.4413    0.0000 C   0  0  0  0  0  2  0  0  0  0  0  0
   26.5442   -8.6913    0.0000 C   0  0  0  0  0  0  0  0  0  0  0  0
   27.8433   -7.9413    0.0000 C   0  0  0  0  0  0  0  0  0  0  0  0
   29.1423   -7.1913    0.0000 C   0  0  0  0  0  2  0  0  0  0  0  0
   30.4413   -6.4413    0.0000 C   0  0  0  0  0  0  0  0  0  0  0  0
   32.0886   -6.1107   -0.0103 C   0  0  0  0  0  0  0  0  0  0  0  0
   32.6912   -4.5219    0.0103 C   0  0  0  0  0  0  0  0  0  0  0  0
   34.3385   -4.1913    0.0000 C   0  0  0  0  0  0  0  0  0  0  0  0
   35.6375   -3.4413    0.0000 C   0  0  0  0  0  2  0  0  0  0  0  0
   36.9365   -2.6913    0.0000 C   0  0  0  0  0  0  0  0  0  0  0  0
   38.2356   -1.9413    0.0000 C   0  0  0  0  0  0  0  0  0  0  0  0
   39.5346   -1.1913    0.0000 C   0  0  0  0  0  2  0  0  0  0  0  0
   40.8336   -0.4413    0.0000 C   0  0  0  0  0  0  0  0  0  0  0  0
   42.4809   -0.1107   -0.0106 C   0  0  0  0  0  0  0  0  0  0  0  0
   43.0835    1.4781    0.0106 C   0  0  0  0  0  0  0  0  0  0  0  0
   44.7308    1.8087    0.0000 C   0  0  0  0  0  0  0  0  0  0  0  0
   46.0298    2.5587    0.0000 C   0  0  0  0  0  2  0  0  0  0  0  0
   47.3288    3.3087    0.0000 C   0  0  0  0  0  0  0  0  0  0  0  0
   48.9035    3.7765    0.3573 C   0  0  0  0  0  0  0  0  0  0  0  0
   49.6722    5.0790   -0.4228 C   0  0  0  0  0  0  0  0  0  0  0  0
   51.2260    5.5587    0.0000 C   0  0  0  0  0  0  0  0  0  0  0  0
   52.5250    6.3087    0.0000 C   0  0  0  0  0  0  0  0  0  0  0  0
   18.4006  -13.0809   -0.2402 O   0  0  0  0  0  0  0  0  0  0  0  0
   18.9643  -14.1516    0.5318 C   0  0  0  0  0  0  0  0  0  0  0  0
   19.1387  -13.9446    1.7278 O   0  0  0  0  0  0  0  0  0  0  0  0
   19.5000  -15.5885    0.0000 C   0  0  0  0  0  0  0  0  0  0  0  0
   20.2500  -16.8875    0.0000 C   0  0  0  0  0  2  0  0  0  0  0  0
   21.0000  -18.1865    0.0000 C   0  0  0  0  0  0  0  0  0  0  0  0
   21.7500  -19.4856    0.0000 C   0  0  0  0  0  0  0  0  0  0  0  0
   22.5000  -20.7846    0.0000 C   0  0  0  0  0  2  0  0  0  0  0  0
   23.2500  -22.0836    0.0000 C   0  0  0  0  0  0  0  0  0  0  0  0
   23.8359  -23.5953   -0.4460 C   0  0  0  0  0  0  0  0  0  0  0  0
   24.9671  -24.4636    0.4864 C   0  0  0  0  0  0  0  0  0  0  0  0
   25.5000  -25.9808    0.0000 C   0  0  0  0  0  0  0  0  0  0  0  0
   26.2500  -27.2798    0.0000 C   0  0  0  0  0  0  0  0  0  0  0  0
   27.0000  -28.5788    0.0000 C   0  0  0  0  0  0  0  0  0  0  0  0
   27.8119  -29.8740    0.0918 C   0  0  0  0  0  0  0  0  0  0  0  0
   29.1915  -29.8761    0.0901 C   0  0  0  0  0  0  0  0  0  0  0  0
   30.0000  -28.5788    0.0000 C   0  0  0  0  0  0  0  0  0  0  0  0
   30.7500  -27.2798    0.0000 C   0  0  0  0  0  0  0  0  0  0  0  0
   31.5000  -25.9808    0.0000 C   0  0  0  0  0  0  0  0  0  0  0  0
   32.0297  -24.4617   -0.4842 C   0  0  0  0  0  0  0  0  0  0  0  0
   33.1670  -23.5971    0.4440 C   0  0  0  0  0  0  0  0  0  0  0  0
   33.7500  -22.0836    0.0000 C   0  0  0  0  0  0  0  0  0  0  0  0
   34.5000  -20.7846    0.0000 C   0  0  0  0  0  2  0  0  0  0  0  0
   35.2500  -19.4856    0.0000 C   0  0  0  0  0  0  0  0  0  0  0  0
    2.1254   -2.2321   -1.7497 H   0  0  0  0  0  0  0  0  0  0  0  0
    2.4311   -3.0615   -0.1517 H   0  0  0  0  0  0  0  0  0  0  0  0
    1.0798   -3.5780   -1.1849 H   0  0  0  0  0  0  0  0  0  0  0  0
    0.2392   -2.2259    0.6887 H   0  0  0  0  0  0  0  0  0  0  0  0
   -0.0832   -1.4783   -0.9102 H   0  0  0  0  0  0  0  0  0  0  0  0
    0.4914    0.2629    0.7162 H   0  0  0  0  0  0  0  0  0  0  0  0
    2.5817    1.1535    0.7083 H   0  0  0  0  0  0  0  0  0  0  0  0
    4.5779    0.3810   -0.0328 H   0  0  0  0  0  0  0  0  0  0  0  0
    3.8053   -0.7391   -1.2033 H   0  0  0  0  0  0  0  0  0  0  0  0
    3.6294   -1.9620    1.4913 H   0  0  0  0  0  0  0  0  0  0  0  0
    5.7658   -2.9305    1.3795 H   0  0  0  0  0  0  0  0  0  0  0  0
    6.3742   -0.8420   -0.8745 H   0  0  0  0  0  0  0  0  0  0  0  0
    6.9858   -2.5257   -0.8677 H   0  0  0  0  0  0  0  0  0  0  0  0
    7.5958   -0.4050    1.3559 H   0  0  0  0  0  0  0  0  0  0  0  0
    9.7739   -1.2527    1.4052 H   0  0  0  0  0  0  0  0  0  0  0  0
    8.9684   -3.6589   -0.1122 H   0  0  0  0  0  0  0  0  0  0  0  0
    9.5642   -2.4353   -1.2934 H   0  0  0  0  0  0  0  0  0  0  0  0
   11.1569   -4.2620    0.3865 H   0  0  0  0  0  0  0  0  0  0  0  0
   13.1049   -3.0011    0.2595 H   0  0  0  0  0  0  0  0  0  0  0  0
   11.6012   -0.5199    0.3311 H   0  0  0  0  0  0  0  0  0  0  0  0
   11.7537   -0.9642   -1.3976 H   0  0  0  0  0  0  0  0  0  0  0  0
   13.2276    0.8119   -0.6484 H   0  0  0  0  0  0  0  0  0  0  0  0
   15.3692    0.6479   -0.4863 H   0  0  0  0  0  0  0  0  0  0  0  0
   16.5923   -1.0702    0.7065 H   0  0  0  0  0  0  0  0  0  0  0  0
   16.6578   -1.2477   -1.0781 H   0  0  0  0  0  0  0  0  0  0  0  0
   15.1388   -3.0105    0.8707 H   0  0  0  0  0  0  0  0  0  0  0  0
   15.0743   -3.1252   -0.9529 H   0  0  0  0  0  0  0  0  0  0  0  0
   17.6158   -3.5101    0.8273 H   0  0  0  0  0  0  0  0  0  0  0  0
   17.5766   -3.5865   -0.9855 H   0  0  0  0  0  0  0  0  0  0  0  0
   15.8039   -5.3068   -0.8663 H   0  0  0  0  0  0  0  0  0  0  0  0
   15.8426   -5.2598    0.9006 H   0  0  0  0  0  0  0  0  0  0  0  0
   17.7957   -6.1757    0.9194 H   0  0  0  0  0  0  0  0  0  0  0  0
   17.7687   -6.1945   -0.9412 H   0  0  0  0  0  0  0  0  0  0  0  0
   17.6983  -10.6277   -1.0435 H   0  0  0  0  0  0  0  0  0  0  0  0
   17.2588  -10.8581    0.6901 H   0  0  0  0  0  0  0  0  0  0  0  0
   19.1385  -11.6978    1.0466 H   0  0  0  0  0  0  0  0  0  0  0  0
   20.6724  -12.4137   -0.9212 H   0  0  0  0  0  0  0  0  0  0  0  0
   19.9923  -11.0433   -1.7990 H   0  0  0  0  0  0  0  0  0  0  0  0
   23.6504  -10.1983    1.0694 H   0  0  0  0  0  0  0  0  0  0  0  0
   24.3289  -11.2210   -0.1595 H   0  0  0  0  0  0  0  0  0  0  0  0
   26.1751   -8.1356    0.8959 H   0  0  0  0  0  0  0  0  0  0  0  0
   26.1751   -8.1357   -0.8960 H   0  0  0  0  0  0  0  0  0  0  0  0
   28.2124   -8.4969    0.8960 H   0  0  0  0  0  0  0  0  0  0  0  0
   28.2124   -8.4970   -0.8960 H   0  0  0  0  0  0  0  0  0  0  0  0
   30.1887   -5.8025   -0.8719 H   0  0  0  0  0  0  0  0  0  0  0  0
   30.2057   -5.8320    0.8974 H   0  0  0  0  0  0  0  0  0  0  0  0
   32.5235   -6.6278    0.8707 H   0  0  0  0  0  0  0  0  0  0  0  0
   32.5064   -6.5981   -0.9162 H   0  0  0  0  0  0  0  0  0  0  0  0
   32.2734   -4.0346    0.9162 H   0  0  0  0  0  0  0  0  0  0  0  0
   32.2563   -4.0048   -0.8707 H   0  0  0  0  0  0  0  0  0  0  0  0
   34.5741   -4.8006   -0.8974 H   0  0  0  0  0  0  0  0  0  0  0  0
   34.5911   -4.8301    0.8719 H   0  0  0  0  0  0  0  0  0  0  0  0
   36.5674   -2.1357    0.8960 H   0  0  0  0  0  0  0  0  0  0  0  0
   36.5674   -2.1357   -0.8960 H   0  0  0  0  0  0  0  0  0  0  0  0
   38.6047   -2.4969    0.8960 H   0  0  0  0  0  0  0  0  0  0  0  0
   38.6047   -2.4969   -0.8960 H   0  0  0  0  0  0  0  0  0  0  0  0
   40.5808    0.1978   -0.8716 H   0  0  0  0  0  0  0  0  0  0  0  0
   40.5982    0.1677    0.8977 H   0  0  0  0  0  0  0  0  0  0  0  0
   42.9160   -0.6281    0.8701 H   0  0  0  0  0  0  0  0  0  0  0  0
   42.8985   -0.5977   -0.9167 H   0  0  0  0  0  0  0  0  0  0  0  0
   42.6659    1.9651    0.9167 H   0  0  0  0  0  0  0  0  0  0  0  0
   42.6484    1.9955   -0.8701 H   0  0  0  0  0  0  0  0  0  0  0  0
   44.9662    1.1998   -0.8977 H   0  0  0  0  0  0  0  0  0  0  0  0
   44.9836    1.1695    0.8715 H   0  0  0  0  0  0  0  0  0  0  0  0
   46.8703    4.3044    0.1750 H   0  0  0  0  0  0  0  0  0  0  0  0
   47.4806    3.2350   -1.0971 H   0  0  0  0  0  0  0  0  0  0  0  0
   49.5466    2.8876    0.1855 H   0  0  0  0  0  0  0  0  0  0  0  0
   48.9285    3.9925    1.4459 H   0  0  0  0  0  0  0  0  0  0  0  0
   49.6820    4.8450   -1.5080 H   0  0  0  0  0  0  0  0  0  0  0  0
   49.0179    5.9660   -0.2848 H   0  0  0  0  0  0  0  0  0  0  0  0
   50.9498    5.6823    1.0787 H   0  0  0  0  0  0  0  0  0  0  0  0
   51.6633    4.5410   -0.1242 H   0  0  0  0  0  0  0  0  0  0  0  0
   53.0097    5.8315    0.8898 H   0  0  0  0  0  0  0  0  0  0  0  0
   52.0849    7.3035    0.2373 H   0  0  0  0  0  0  0  0  0  0  0  0
   53.4516    6.8437    0.0000 H   0  0  0  0  0  0  0  0  0  0  0  0
   18.7382  -16.1014    0.6254 H   0  0  0  0  0  0  0  0  0  0  0  0
   20.5042  -15.2255    0.3099 H   0  0  0  0  0  0  0  0  0  0  0  0
   21.5563  -17.8171   -0.8954 H   0  0  0  0  0  0  0  0  0  0  0  0
   21.5551  -17.8178    0.8965 H   0  0  0  0  0  0  0  0  0  0  0  0
   21.1947  -19.8544   -0.8963 H   0  0  0  0  0  0  0  0  0  0  0  0
   21.1940  -19.8550    0.8956 H   0  0  0  0  0  0  0  0  0  0  0  0
   22.9198  -22.3862    1.0157 H   0  0  0  0  0  0  0  0  0  0  0  0
   24.2476  -21.6153    0.1327 H   0  0  0  0  0  0  0  0  0  0  0  0
   24.2849  -23.4760   -1.4543 H   0  0  0  0  0  0  0  0  0  0  0  0
   22.9487  -24.2531   -0.5599 H   0  0  0  0  0  0  0  0  0  0  0  0
   25.8641  -23.8187    0.5992 H   0  0  0  0  0  0  0  0  0  0  0  0
   24.5217  -24.5853    1.4967 H   0  0  0  0  0  0  0  0  0  0  0  0
   24.4275  -26.3164   -0.1230 H   0  0  0  0  0  0  0  0  0  0  0  0
   25.8602  -25.6140   -0.9920 H   0  0  0  0  0  0  0  0  0  0  0  0
   25.6492  -27.6764   -0.8792 H   0  0  0  0  0  0  0  0  0  0  0  0
   25.6770  -27.5594    0.9338 H   0  0  0  0  0  0  0  0  0  0  0  0
   27.4908  -28.3284   -0.9693 H   0  0  0  0  0  0  0  0  0  0  0  0
   27.5086  -28.2349    0.9249 H   0  0  0  0  0  0  0  0  0  0  0  0
   27.2800  -30.8177    0.1547 H   0  0  0  0  0  0  0  0  0  0  0  0
   29.7244  -30.8174    0.1512 H   0  0  0  0  0  0  0  0  0  0  0  0
   29.5058  -28.3250   -0.9635 H   0  0  0  0  0  0  0  0  0  0  0  0
   29.4958  -28.2374    0.9318 H   0  0  0  0  0  0  0  0  0  0  0  0
   31.3600  -27.6799    0.8748 H   0  0  0  0  0  0  0  0  0  0  0  0
   31.3125  -27.5570   -0.9375 H   0  0  0  0  0  0  0  0  0  0  0  0
   31.1467  -25.6180    0.9959 H   0  0  0  0  0  0  0  0  0  0  0  0
   32.5733  -26.3170    0.1131 H   0  0  0  0  0  0  0  0  0  0  0  0
   32.4681  -24.5795   -1.4979 H   0  0  0  0  0  0  0  0  0  0  0  0
   31.1319  -23.8164   -0.5883 H   0  0  0  0  0  0  0  0  0  0  0  0
   34.0550  -24.2553    0.5494 H   0  0  0  0  0  0  0  0  0  0  0  0
   32.7247  -23.4817    1.4557 H   0  0  0  0  0  0  0  0  0  0  0  0
   32.7515  -21.6148   -0.1243 H   0  0  0  0  0  0  0  0  0  0  0  0
   34.0734  -22.3823   -1.0190 H   0  0  0  0  0  0  0  0  0  0  0  0
   36.0711  -19.8674   -0.6409 H   0  0  0  0  0  0  0  0  0  0  0  0
   34.5022  -18.9617   -0.6301 H   0  0  0  0  0  0  0  0  0  0  0  0
   35.7850  -18.5590    0.0000 H   0  0  0  0  0  0  0  0  0  0  0  0
  1  2  1  0  0  0  0
  1 78  1  0  0  0  0
  1 79  1  0  0  0  0
  1 80  1  0  0  0  0
  2  3  1  0  0  0  0
  2 81  1  0  0  0  0
  2 82  1  0  0  0  0
  3  4  2  0  0  0  0
  3 83  1  0  0  0  0
  4  5  1  0  0  0  0
  4 84  1  0  0  0  0
  5  6  1  0  0  0  0
  5 85  1  0  0  0  0
  5 86  1  0  0  0  0
  6  7  2  0  0  0  0
  6 87  1  0  0  0  0
  7  8  1  0  0  0  0
  7 88  1  0  0  0  0
  8  9  1  0  0  0  0
  8 89  1  0  0  0  0
  8 90  1  0  0  0  0
  9 10  2  0  0  0  0
  9 91  1  0  0  0  0
 10 11  1  0  0  0  0
 10 92  1  0  0  0  0
 11 12  1  0  0  0  0
 11 93  1  0  0  0  0
 11 94  1  0  0  0  0
 12 13  2  0  0  0  0
 12 95  1  0  0  0  0
 13 14  1  0  0  0  0
 13 96  1  0  0  0  0
 14 15  1  0  0  0  0
 14 97  1  0  0  0  0
 14 98  1  0  0  0  0
 15 16  2  0  0  0  0
 15 99  1  0  0  0  0
 16 17  1  0  0  0  0
 16100  1  0  0  0  0
 17 18  1  0  0  0  0
 17101  1  0  0  0  0
 17102  1  0  0  0  0
 18 19  1  0  0  0  0
 18103  1  0  0  0  0
 18104  1  0  0  0  0
 19 20  1  0  0  0  0
 19105  1  0  0  0  0
 19106  1  0  0  0  0
 20 21  1  0  0  0  0
 20107  1  0  0  0  0
 20108  1  0  0  0  0
 21 22  1  0  0  0  0
 21109  1  0  0  0  0
 21110  1  0  0  0  0
 22 23  2  0  0  0  0
 22 24  1  0  0  0  0
 24 25  1  0  0  0  0
 25111  1  0  0  0  0
 25112  1  0  0  0  0
 26 25  1  0  0  0  0
 26 27  1  0  0  0  0
 26 54  1  0  0  0  0
 26113  1  1  0  0  0
 27 28  1  0  0  0  0
 27114  1  0  0  0  0
 27115  1  0  0  0  0
 28 29  1  0  0  0  0
 29 30  2  0  0  0  0
 29 31  1  0  0  0  0
 31 32  1  0  0  0  0
 31116  1  0  0  0  0
 31117  1  0  0  0  0
 32 33  1  0  0  0  0
 33 34  1  0  0  0  0
 33118  1  0  0  0  0
 33119  1  0  0  0  0
 34 35  1  0  0  0  0
 34120  1  0  0  0  0
 34121  1  0  0  0  0
 35 36  1  0  0  0  0
 36 37  1  0  0  0  0
 36122  1  0  0  0  0
 36123  1  0  0  0  0
 37 38  1  0  0  0  0
 37124  1  0  0  0  0
 37125  1  0  0  0  0
 38 39  1  0  0  0  0
 38126  1  0  0  0  0
 38127  1  0  0  0  0
 39 40  1  0  0  0  0
 39128  1  0  0  0  0
 39129  1  0  0  0  0
 40 41  1  0  0  0  0
 41 42  1  0  0  0  0
 41130  1  0  0  0  0
 41131  1  0  0  0  0
 42 43  1  0  0  0  0
 42132  1  0  0  0  0
 42133  1  0  0  0  0
 43 44  1  0  0  0  0
 44 45  1  0  0  0  0
 44134  1  0  0  0  0
 44135  1  0  0  0  0
 45 46  1  0  0  0  0
 45136  1  0  0  0  0
 45137  1  0  0  0  0
 46 47  1  0  0  0  0
 46138  1  0  0  0  0
 46139  1  0  0  0  0
 47 48  1  0  0  0  0
 47140  1  0  0  0  0
 47141  1  0  0  0  0
 48 49  1  0  0  0  0
 49 50  1  0  0  0  0
 49142  1  0  0  0  0
 49143  1  0  0  0  0
 50 51  1  0  0  0  0
 50144  1  0  0  0  0
 50145  1  0  0  0  0
 51 52  1  0  0  0  0
 51146  1  0  0  0  0
 51147  1  0  0  0  0
 52 53  1  0  0  0  0
 52148  1  0  0  0  0
 52149  1  0  0  0  0
 53150  1  0  0  0  0
 53151  1  0  0  0  0
 53152  1  0  0  0  0
 54 55  1  0  0  0  0
 55 56  2  0  0  0  0
 55 57  1  0  0  0  0
 57 58  1  0  0  0  0
 57153  1  0  0  0  0
 57154  1  0  0  0  0
 58 59  1  0  0  0  0
 59 60  1  0  0  0  0
 59155  1  0  0  0  0
 59156  1  0  0  0  0
 60 61  1  0  0  0  0
 60157  1  0  0  0  0
 60158  1  0  0  0  0
 61 62  1  0  0  0  0
 62 63  1  0  0  0  0
 62159  1  0  0  0  0
 62160  1  0  0  0  0
 63 64  1  0  0  0  0
 63161  1  0  0  0  0
 63162  1  0  0  0  0
 64 65  1  0  0  0  0
 64163  1  0  0  0  0
 64164  1  0  0  0  0
 65 66  1  0  0  0  0
 65165  1  0  0  0  0
 65166  1  0  0  0  0
 66 67  1  0  0  0  0
 66167  1  0  0  0  0
 66168  1  0  0  0  0
 67 68  1  0  0  0  0
 67169  1  0  0  0  0
 67170  1  0  0  0  0
 68 69  2  0  0  0  0
 68171  1  0  0  0  0
 69 70  1  0  0  0  0
 69172  1  0  0  0  0
 70 71  1  0  0  0  0
 70173  1  0  0  0  0
 70174  1  0  0  0  0
 71 72  1  0  0  0  0
 71175  1  0  0  0  0
 71176  1  0  0  0  0
 72 73  1  0  0  0  0
 72177  1  0  0  0  0
 72178  1  0  0  0  0
 73 74  1  0  0  0  0
 73179  1  0  0  0  0
 73180  1  0  0  0  0
 74 75  1  0  0  0  0
 74181  1  0  0  0  0
 74182  1  0  0  0  0
 75 76  1  0  0  0  0
 75183  1  0  0  0  0
 75184  1  0  0  0  0
 76 77  1  0  0  0  0
 77185  1  0  0  0  0
 77186  1  0  0  0  0
 77187  1  0  0  0  0
M  END
>  <IDENTIFIER>
CNP0568514.1

>  <Energy>
12474

$$$$
