
 OpenBabel09082521423D

137145  0  0  0  0  0  0  0  0999 V2000
   -2.2994    6.2843    4.6743 C   0  0  0  0  0  0  0  0  0  0  0  0
   -2.7728    5.2952    3.6144 C   0  0  0  0  0  0  0  0  0  0  0  0
   -4.1930    4.8016    3.8569 C   0  0  0  0  0  0  0  0  0  0  0  0
   -5.0940    5.8726    3.7487 O   0  0  0  0  0  0  0  0  0  0  0  0
   -1.9300    4.9081    2.5805 C   0  0  0  0  0  0  0  0  0  0  0  0
   -0.5000    5.5097    2.6130 C   0  0  0  0  0  0  0  0  0  0  0  0
    0.5791    5.1010    1.5924 C   0  0  0  0  0  0  0  0  0  0  0  0
    1.1008    3.6771    1.6813 C   0  0  0  0  0  0  0  0  0  0  0  0
    0.6073    2.7215    2.5924 C   0  0  0  0  0  0  0  0  0  0  0  0
    1.1162    1.4213    2.6002 C   0  0  0  0  0  0  0  0  0  0  0  0
    2.1354    1.0462    1.7092 C   0  0  0  0  0  0  0  0  0  0  0  0
    2.6422    2.0051    0.8179 C   0  0  0  0  0  0  0  0  0  0  0  0
    2.1263    3.3013    0.8012 C   0  0  0  0  0  0  0  0  0  0  0  0
    2.6673   -0.3735    1.7240 C   0  0  2  0  0  0  0  0  0  0  0  0
    4.1028   -0.3853    2.2246 C   0  0  0  0  0  0  0  0  0  0  0  0
    5.0686   -1.1536    1.6902 C   0  0  0  0  0  0  0  0  0  0  0  0
    4.8098   -2.1094    0.5479 C   0  0  2  0  0  0  0  0  0  0  0  0
    5.4875   -1.6318   -0.7311 C   0  0  0  0  0  0  0  0  0  0  0  0
    5.5830   -0.2631   -1.0494 C   0  0  0  0  0  0  0  0  0  0  0  0
    6.1784    0.1535   -2.2394 C   0  0  0  0  0  0  0  0  0  0  0  0
    6.6818   -0.7858   -3.1379 C   0  0  0  0  0  0  0  0  0  0  0  0
    6.6118   -2.1547   -2.8414 C   0  0  0  0  0  0  0  0  0  0  0  0
    7.1383   -3.1728   -3.8202 C   0  0  0  0  0  0  0  0  0  0  0  0
    8.3762   -3.8569   -3.3029 C   0  0  0  0  0  0  0  0  0  0  0  0
    9.5612   -3.1192   -3.1318 C   0  0  0  0  0  0  0  0  0  0  0  0
   10.7268   -3.7489   -2.6862 C   0  0  0  0  0  0  0  0  0  0  0  0
   10.7172   -5.1163   -2.4004 C   0  0  0  0  0  0  0  0  0  0  0  0
    9.5421   -5.8562   -2.5619 C   0  0  0  0  0  0  0  0  0  0  0  0
    8.3751   -5.2318   -3.0161 C   0  0  0  0  0  0  0  0  0  0  0  0
    6.0206   -2.5718   -1.6339 C   0  0  0  0  0  0  0  0  0  0  0  0
    3.2967   -2.3860    0.3610 C   0  0  0  0  0  0  0  0  0  0  0  0
    2.4872   -1.0814    0.3342 C   0  0  1  0  0  0  0  0  0  0  0  0
    0.9957   -1.3867    0.0296 C   0  0  0  0  0  0  0  0  0  0  0  0
    0.1789   -0.1736   -0.3427 C   0  0  0  0  0  0  0  0  0  0  0  0
    0.3985    0.3998   -1.3977 O   0  0  0  0  0  0  0  0  0  0  0  0
   -0.8022    0.2396    0.5001 O   0  0  0  0  0  0  0  0  0  0  0  0
   -1.8593    1.1227    0.3119 C   0  0  2  0  0  0  0  0  0  0  0  0
   -3.1645    0.4514   -0.1112 C   0  0  0  0  0  0  0  0  0  0  0  0
   -4.1088    1.2151   -0.8157 C   0  0  0  0  0  0  0  0  0  0  0  0
   -5.3458    0.6757   -1.1521 C   0  0  0  0  0  0  0  0  0  0  0  0
   -5.6514   -0.6461   -0.8284 C   0  0  0  0  0  0  0  0  0  0  0  0
   -4.7167   -1.4562   -0.1414 C   0  0  0  0  0  0  0  0  0  0  0  0
   -3.4828   -0.8804    0.2376 C   0  0  0  0  0  0  0  0  0  0  0  0
   -2.6064   -1.5931    0.9224 O   0  0  0  0  0  0  0  0  0  0  0  0
   -2.7913   -2.8519    1.2747 C   0  0  0  0  0  0  0  0  0  0  0  0
   -1.9030   -3.3909    1.9048 O   0  0  0  0  0  0  0  0  0  0  0  0
   -3.9742   -3.5509    0.9179 C   0  0  0  0  0  0  0  0  0  0  0  0
   -4.1563   -5.0407    1.2942 C   0  0  2  0  0  0  0  0  0  0  0  0
   -4.7362   -5.2049    2.7236 C   0  0  0  0  0  0  0  0  0  0  0  0
   -3.8795   -4.6718    3.8812 C   0  0  0  0  0  0  0  0  0  0  0  0
   -2.6503   -5.3374    3.9703 O   0  0  0  0  0  0  0  0  0  0  0  0
   -2.9343   -5.9424    0.9875 C   0  0  0  0  0  0  0  0  0  0  0  0
   -3.2830   -7.2920    1.2288 O   0  0  0  0  0  0  0  0  0  0  0  0
   -2.1367   -8.1109    1.1304 C   0  0  0  0  0  0  0  0  0  0  0  0
   -2.4903   -9.4326    1.4236 O   0  0  0  0  0  0  0  0  0  0  0  0
   -4.9772   -2.8180    0.1973 C   0  0  0  0  0  0  0  0  0  0  0  0
   -6.3109   -3.4361   -0.2061 C   0  0  0  0  0  0  0  0  0  0  0  0
   -6.3236   -3.6683   -1.5918 O   0  0  0  0  0  0  0  0  0  0  0  0
   -3.8070    2.4729   -1.2097 O   0  0  0  0  0  0  0  0  0  0  0  0
   -2.5151    2.8170   -1.5767 C   0  0  1  0  0  0  0  0  0  0  0  0
   -2.1271    1.9055   -2.7916 C   0  0  0  0  0  0  0  0  0  0  0  0
   -2.5151    4.3289   -2.0173 C   0  0  0  0  0  0  0  0  0  0  0  0
   -3.5449    4.6257   -3.1331 C   0  0  0  0  0  0  0  0  0  0  0  0
   -3.6520    6.1427   -3.4216 C   0  0  0  0  0  0  0  0  0  0  0  0
   -2.2950    6.8810   -3.3474 C   0  0  0  0  0  0  0  0  0  0  0  0
   -1.1410    5.9140   -3.5783 C   0  0  0  0  0  0  0  0  0  0  0  0
   -1.1025    4.8684   -2.4349 C   0  0  0  0  0  0  0  0  0  0  0  0
   -1.5349    2.5076   -0.3817 C   0  0  1  0  0  0  0  0  0  0  0  0
   -1.4353    3.5216    0.5674 O   0  0  0  0  0  0  0  0  0  0  0  0
   -2.3503    3.9560    1.4679 C   0  0  0  0  0  0  0  0  0  0  0  0
   -3.4984    3.5654    1.3600 O   0  0  0  0  0  0  0  0  0  0  0  0
   -3.0801    6.4865    5.4372 H   0  0  0  0  0  0  0  0  0  0  0  0
   -2.0392    7.2571    4.2078 H   0  0  0  0  0  0  0  0  0  0  0  0
   -1.4239    5.8846    5.2260 H   0  0  0  0  0  0  0  0  0  0  0  0
   -4.2280    4.3493    4.8768 H   0  0  0  0  0  0  0  0  0  0  0  0
   -4.5666    3.9903    3.2246 H   0  0  0  0  0  0  0  0  0  0  0  0
   -5.3408    6.1477    4.6700 H   0  0  0  0  0  0  0  0  0  0  0  0
   -0.0400    5.3069    3.6030 H   0  0  0  0  0  0  0  0  0  0  0  0
   -0.6145    6.6102    2.5083 H   0  0  0  0  0  0  0  0  0  0  0  0
    1.4547    5.7639    1.7713 H   0  0  0  0  0  0  0  0  0  0  0  0
    0.2195    5.3194    0.5692 H   0  0  0  0  0  0  0  0  0  0  0  0
   -0.1779    2.9604    3.2939 H   0  0  0  0  0  0  0  0  0  0  0  0
    0.7085    0.7056    3.3032 H   0  0  0  0  0  0  0  0  0  0  0  0
    3.4276    1.7532    0.1243 H   0  0  0  0  0  0  0  0  0  0  0  0
    2.5281    4.0168    0.0941 H   0  0  0  0  0  0  0  0  0  0  0  0
    2.1113   -0.9535    2.4945 H   0  0  0  0  0  0  0  0  0  0  0  0
    4.3571    0.2364    3.0789 H   0  0  0  0  0  0  0  0  0  0  0  0
    6.0771   -1.0829    2.0871 H   0  0  0  0  0  0  0  0  0  0  0  0
    5.2459   -3.0962    0.8211 H   0  0  0  0  0  0  0  0  0  0  0  0
    5.1989    0.4878   -0.3786 H   0  0  0  0  0  0  0  0  0  0  0  0
    6.2434    1.2095   -2.4676 H   0  0  0  0  0  0  0  0  0  0  0  0
    7.1328   -0.4437   -4.0607 H   0  0  0  0  0  0  0  0  0  0  0  0
    7.4067   -2.6953   -4.7880 H   0  0  0  0  0  0  0  0  0  0  0  0
    6.3232   -3.8991   -4.0304 H   0  0  0  0  0  0  0  0  0  0  0  0
    9.5844   -2.0601   -3.3584 H   0  0  0  0  0  0  0  0  0  0  0  0
   11.6385   -3.1774   -2.5672 H   0  0  0  0  0  0  0  0  0  0  0  0
   11.6210   -5.6026   -2.0565 H   0  0  0  0  0  0  0  0  0  0  0  0
    9.5373   -6.9153   -2.3398 H   0  0  0  0  0  0  0  0  0  0  0  0
    7.4744   -5.8191   -3.1422 H   0  0  0  0  0  0  0  0  0  0  0  0
    5.9543   -3.6303   -1.4112 H   0  0  0  0  0  0  0  0  0  0  0  0
    2.9280   -2.9957    1.2175 H   0  0  0  0  0  0  0  0  0  0  0  0
    3.1475   -2.9853   -0.5642 H   0  0  0  0  0  0  0  0  0  0  0  0
    2.9011   -0.4747   -0.4978 H   0  0  0  0  0  0  0  0  0  0  0  0
    0.5497   -1.8938    0.9133 H   0  0  0  0  0  0  0  0  0  0  0  0
    0.9145   -2.0873   -0.8296 H   0  0  0  0  0  0  0  0  0  0  0  0
   -2.1296    1.3668    1.3597 H   0  0  0  0  0  0  0  0  0  0  0  0
   -6.0680    1.2741   -1.6954 H   0  0  0  0  0  0  0  0  0  0  0  0
   -6.6173   -1.0050   -1.1347 H   0  0  0  0  0  0  0  0  0  0  0  0
   -4.9118   -5.4856    0.6270 H   0  0  0  0  0  0  0  0  0  0  0  0
   -4.9554   -6.2787    2.9098 H   0  0  0  0  0  0  0  0  0  0  0  0
   -5.7083   -4.6656    2.7568 H   0  0  0  0  0  0  0  0  0  0  0  0
   -4.4351   -4.7897    4.8387 H   0  0  0  0  0  0  0  0  0  0  0  0
   -3.7018   -3.5840    3.7632 H   0  0  0  0  0  0  0  0  0  0  0  0
   -2.8450   -6.2494    4.3102 H   0  0  0  0  0  0  0  0  0  0  0  0
   -2.0668   -5.6592    1.6111 H   0  0  0  0  0  0  0  0  0  0  0  0
   -2.6667   -5.8127   -0.0864 H   0  0  0  0  0  0  0  0  0  0  0  0
   -1.3341   -7.7907    1.8369 H   0  0  0  0  0  0  0  0  0  0  0  0
   -1.7362   -8.0906    0.0928 H   0  0  0  0  0  0  0  0  0  0  0  0
   -2.7323   -9.4483    2.3867 H   0  0  0  0  0  0  0  0  0  0  0  0
   -7.1495   -2.7824    0.1253 H   0  0  0  0  0  0  0  0  0  0  0  0
   -6.5666   -4.3813    0.2951 H   0  0  0  0  0  0  0  0  0  0  0  0
   -6.9708   -3.0405   -2.0023 H   0  0  0  0  0  0  0  0  0  0  0  0
   -2.8593    2.0029   -3.6178 H   0  0  0  0  0  0  0  0  0  0  0  0
   -2.1207    0.8314   -2.5186 H   0  0  0  0  0  0  0  0  0  0  0  0
   -1.1188    2.1197   -3.1896 H   0  0  0  0  0  0  0  0  0  0  0  0
   -2.8711    4.9404   -1.1571 H   0  0  0  0  0  0  0  0  0  0  0  0
   -4.5610    4.2374   -2.9039 H   0  0  0  0  0  0  0  0  0  0  0  0
   -3.1970    4.1267   -4.0610 H   0  0  0  0  0  0  0  0  0  0  0  0
   -4.3415    6.6523   -2.7139 H   0  0  0  0  0  0  0  0  0  0  0  0
   -4.0950    6.2325   -4.4381 H   0  0  0  0  0  0  0  0  0  0  0  0
   -2.1504    7.3029   -2.3288 H   0  0  0  0  0  0  0  0  0  0  0  0
   -2.2949    7.7274   -4.0682 H   0  0  0  0  0  0  0  0  0  0  0  0
   -0.1635    6.4388   -3.6259 H   0  0  0  0  0  0  0  0  0  0  0  0
   -1.3010    5.4111   -4.5584 H   0  0  0  0  0  0  0  0  0  0  0  0
   -0.6493    5.3141   -1.5274 H   0  0  0  0  0  0  0  0  0  0  0  0
   -0.4060    4.0816   -2.7738 H   0  0  0  0  0  0  0  0  0  0  0  0
   -0.5227    2.4855   -0.8254 H   0  0  0  0  0  0  0  0  0  0  0  0
  1  2  1  0  0  0  0
  1 72  1  0  0  0  0
  1 73  1  0  0  0  0
  1 74  1  0  0  0  0
  2  3  1  0  0  0  0
  2  5  2  0  0  0  0
  3  4  1  0  0  0  0
  3 75  1  0  0  0  0
  3 76  1  0  0  0  0
  4 77  1  0  0  0  0
  5  6  1  0  0  0  0
  6  7  1  0  0  0  0
  6 78  1  0  0  0  0
  6 79  1  0  0  0  0
  7  8  1  0  0  0  0
  7 80  1  0  0  0  0
  7 81  1  0  0  0  0
  8  9  2  0  0  0  0
  9 10  1  0  0  0  0
  9 82  1  0  0  0  0
 10 11  2  0  0  0  0
 10 83  1  0  0  0  0
 11 12  1  0  0  0  0
 11 14  1  0  0  0  0
 12 13  2  0  0  0  0
 12 84  1  0  0  0  0
 13  8  1  0  0  0  0
 13 85  1  0  0  0  0
 14 15  1  0  0  0  0
 14 86  1  1  0  0  0
 15 16  2  0  0  0  0
 15 87  1  0  0  0  0
 16 17  1  0  0  0  0
 16 88  1  0  0  0  0
 17 18  1  0  0  0  0
 17 31  1  0  0  0  0
 17 89  1  1  0  0  0
 18 19  2  0  0  0  0
 19 20  1  0  0  0  0
 19 90  1  0  0  0  0
 20 21  2  0  0  0  0
 20 91  1  0  0  0  0
 21 22  1  0  0  0  0
 21 92  1  0  0  0  0
 22 23  1  0  0  0  0
 22 30  2  0  0  0  0
 23 24  1  0  0  0  0
 23 93  1  0  0  0  0
 23 94  1  0  0  0  0
 24 25  2  0  0  0  0
 25 26  1  0  0  0  0
 25 95  1  0  0  0  0
 26 27  2  0  0  0  0
 26 96  1  0  0  0  0
 27 28  1  0  0  0  0
 27 97  1  0  0  0  0
 28 29  2  0  0  0  0
 28 98  1  0  0  0  0
 29 24  1  0  0  0  0
 29 99  1  0  0  0  0
 30 18  1  0  0  0  0
 30100  1  0  0  0  0
 31101  1  0  0  0  0
 31102  1  0  0  0  0
 32 31  1  0  0  0  0
 32 33  1  0  0  0  0
 32 14  1  0  0  0  0
 32103  1  6  0  0  0
 33 34  1  0  0  0  0
 33104  1  0  0  0  0
 33105  1  0  0  0  0
 34 35  2  0  0  0  0
 34 36  1  0  0  0  0
 36 37  1  0  0  0  0
 37 38  1  0  0  0  0
 37106  1  1  0  0  0
 38 39  2  0  0  0  0
 39 40  1  0  0  0  0
 39 59  1  0  0  0  0
 40 41  2  0  0  0  0
 40107  1  0  0  0  0
 41 42  1  0  0  0  0
 41108  1  0  0  0  0
 42 43  2  0  0  0  0
 43 44  1  0  0  0  0
 43 38  1  0  0  0  0
 44 45  1  0  0  0  0
 45 46  2  0  0  0  0
 45 47  1  0  0  0  0
 47 48  1  0  0  0  0
 47 56  2  0  0  0  0
 48 49  1  0  0  0  0
 48 52  1  0  0  0  0
 48109  1  6  0  0  0
 49 50  1  0  0  0  0
 49110  1  0  0  0  0
 49111  1  0  0  0  0
 50 51  1  0  0  0  0
 50112  1  0  0  0  0
 50113  1  0  0  0  0
 51114  1  0  0  0  0
 52 53  1  0  0  0  0
 52115  1  0  0  0  0
 52116  1  0  0  0  0
 53 54  1  0  0  0  0
 54 55  1  0  0  0  0
 54117  1  0  0  0  0
 54118  1  0  0  0  0
 55119  1  0  0  0  0
 56 57  1  0  0  0  0
 56 42  1  0  0  0  0
 57 58  1  0  0  0  0
 57120  1  0  0  0  0
 57121  1  0  0  0  0
 58122  1  0  0  0  0
 59 60  1  0  0  0  0
 60 61  1  6  0  0  0
 60 62  1  0  0  0  0
 60 68  1  0  0  0  0
 61123  1  0  0  0  0
 61124  1  0  0  0  0
 61125  1  0  0  0  0
 62 63  1  0  0  0  0
 62126  1  0  0  0  0
 63 64  1  0  0  0  0
 63127  1  0  0  0  0
 63128  1  0  0  0  0
 64 65  1  0  0  0  0
 64129  1  0  0  0  0
 64130  1  0  0  0  0
 65 66  1  0  0  0  0
 65131  1  0  0  0  0
 65132  1  0  0  0  0
 66 67  1  0  0  0  0
 66133  1  0  0  0  0
 66134  1  0  0  0  0
 67 62  1  0  0  0  0
 67135  1  0  0  0  0
 67136  1  0  0  0  0
 68 69  1  0  0  0  0
 68 37  1  0  0  0  0
 68137  1  6  0  0  0
 69 70  1  0  0  0  0
 70 71  2  0  0  0  0
 70  5  1  0  0  0  0
M  END
>  <IDENTIFIER>
CNP0590289.1

>  <Energy>
1334.31

$$$$
