
 OpenBabel09092505083D

139148  0  0  0  0  0  0  0  0999 V2000
   -0.6129   -5.0163    3.3220 C   0  0  0  0  0  0  0  0  0  0  0  0
   -0.0440   -4.0285    2.3055 C   0  0  0  0  0  0  0  0  0  0  0  0
    0.3900   -2.6745    2.9294 C   0  0  2  0  0  0  0  0  0  0  0  0
   -0.7348   -1.9181    3.6567 C   0  0  0  0  0  0  0  0  0  0  0  0
   -1.7927   -1.6079    2.6471 C   0  0  0  0  0  0  0  0  0  0  0  0
   -3.0984   -2.0074    2.8852 C   0  0  0  0  0  0  0  0  0  0  0  0
   -4.0936   -1.8064    1.9370 C   0  0  0  0  0  0  0  0  0  0  0  0
   -5.3322   -2.2306    2.2505 O   0  0  0  0  0  0  0  0  0  0  0  0
   -3.7709   -1.1913    0.6887 C   0  0  0  0  0  0  0  0  0  0  0  0
   -4.6708   -0.9632   -0.3260 O   0  0  0  0  0  0  0  0  0  0  0  0
   -6.0542   -1.1337   -0.3649 C   0  0  1  0  0  0  0  0  0  0  0  0
   -6.7756    0.1781   -0.7083 C   0  0  0  0  0  0  0  0  0  0  0  0
   -6.4710    1.4455    0.1160 C   0  0  1  0  0  0  0  0  0  0  0  0
   -5.1937    2.1425   -0.4534 C   0  0  0  0  0  0  0  0  0  0  0  0
   -5.3869    2.5451   -1.8981 C   0  0  0  0  0  0  0  0  0  0  0  0
   -4.7210    1.9848   -2.9726 C   0  0  0  0  0  0  0  0  0  0  0  0
   -5.2406    2.5774   -4.1047 C   0  0  0  0  0  0  0  0  0  0  0  0
   -6.1916    3.4817   -3.6781 C   0  0  0  0  0  0  0  0  0  0  0  0
   -6.2740    3.4610   -2.3352 N   0  0  0  0  0  0  0  0  0  0  0  0
   -7.6330    2.4750    0.2860 C   0  0  0  0  0  0  0  0  0  0  0  0
   -7.3378    3.4617    1.2511 C   0  0  0  0  0  0  0  0  0  0  0  0
   -8.2425    4.4572    1.5696 C   0  0  0  0  0  0  0  0  0  0  0  0
   -9.4458    4.4896    0.9695 N   0  0  0  0  0  0  0  0  0  0  0  0
   -9.8310    3.5845    0.0345 C   0  0  0  0  0  0  0  0  0  0  0  0
  -11.1432    3.7314   -0.4918 N   0  0  0  0  0  0  0  0  0  0  0  0
   -8.9367    2.5362   -0.3628 C   0  0  0  0  0  0  0  0  0  0  0  0
   -9.4046    1.5798   -1.4662 C   0  0  0  0  0  0  0  0  0  0  0  0
  -10.3001    0.1371   -0.7516 S   0  0  0  0  0  0  0  0  0  0  0  0
  -10.3758   -1.1524   -2.4890 S   0  0  0  0  0  0  0  0  0  0  0  0
   -8.5913   -1.5812   -2.6206 C   0  0  0  0  0  0  0  0  0  0  0  0
   -7.9319   -2.6136   -1.6370 C   0  0  2  0  0  0  0  0  0  0  0  0
   -8.7132   -2.9101   -0.3397 C   0  0  0  0  0  0  0  0  0  0  0  0
   -9.9765   -3.4373   -0.6575 O   0  0  0  0  0  0  0  0  0  0  0  0
   -6.4056   -2.2912   -1.3755 C   0  0  2  0  0  0  0  0  0  0  0  0
   -5.7386   -3.4670   -0.9812 O   0  0  0  0  0  0  0  0  0  0  0  0
   -2.4261   -0.7944    0.4572 C   0  0  0  0  0  0  0  0  0  0  0  0
   -1.4205   -0.9860    1.4378 C   0  0  0  0  0  0  0  0  0  0  0  0
    0.0674   -0.5734    1.3227 C   0  0  2  0  0  0  0  0  0  0  0  0
    0.5267    0.0948   -0.0231 C   0  0  0  0  0  0  0  0  0  0  0  0
    1.8247    0.9956    0.0800 C   0  0  1  0  0  0  0  0  0  0  0  0
    1.4847    2.2830    0.5409 O   0  0  0  0  0  0  0  0  0  0  0  0
    2.9041    0.3677    0.9958 C   0  0  2  0  0  0  0  0  0  0  0  0
    4.1436    1.2183    1.5280 C   0  0  1  0  0  0  0  0  0  0  0  0
    4.4010    0.8444    2.8616 O   0  0  0  0  0  0  0  0  0  0  0  0
    5.5099    1.5981    0.7536 C   0  0  1  0  0  0  0  0  0  0  0  0
    6.7279    1.7509    1.7015 C   0  0  0  0  0  0  0  0  0  0  0  0
    7.2139    0.4397    2.3792 C   0  0  0  0  0  0  0  0  0  0  0  0
    7.8224   -0.6926    1.5422 C   0  0  0  0  0  0  0  0  0  0  0  0
    7.1036   -1.1991    0.2392 C   0  0  1  0  0  0  0  0  0  0  0  0
    7.8338   -2.5064   -0.2485 C   0  0  0  0  0  0  0  0  0  0  0  0
    7.8103   -3.6987    0.7229 C   0  0  0  0  0  0  0  0  0  0  0  0
    5.6938   -1.5383    0.4570 C   0  0  0  0  0  0  0  0  0  0  0  0
    4.5150   -1.4987    0.6608 C   0  0  0  0  0  0  0  0  0  0  0  0
    3.1038   -1.1334    0.6207 C   0  0  1  0  0  0  0  0  0  0  0  0
    2.2663   -1.9976    1.5202 C   0  0  0  0  0  0  0  0  0  0  0  0
    0.9575   -1.7705    1.8302 C   0  0  0  0  0  0  0  0  0  0  0  0
    7.1019   -0.0301   -0.8661 C   0  0  2  0  0  0  0  0  0  0  0  0
    7.0210   -0.5482   -2.3420 C   0  0  0  0  0  0  0  0  0  0  0  0
    7.4546    0.6391   -3.2047 C   0  0  0  0  0  0  0  0  0  0  0  0
    8.6052    1.2883   -2.4052 C   0  0  0  0  0  0  0  0  0  0  0  0
   10.0057    1.0705   -3.0188 C   0  0  0  0  0  0  0  0  0  0  0  0
   10.8786    2.0183   -2.2022 C   0  0  0  0  0  0  0  0  0  0  0  0
    9.9812    3.2371   -1.9245 C   0  0  0  0  0  0  0  0  0  0  0  0
    8.5804    2.8239   -2.4059 C   0  0  0  0  0  0  0  0  0  0  0  0
    8.4945    0.6651   -0.9848 C   0  0  0  0  0  0  0  0  0  0  0  0
    5.8852    0.9999   -0.6480 C   0  0  0  0  0  0  0  0  0  0  0  0
   -0.8747   -5.9636    2.8046 H   0  0  0  0  0  0  0  0  0  0  0  0
   -1.5389   -4.6206    3.7870 H   0  0  0  0  0  0  0  0  0  0  0  0
    0.1375   -5.2331    4.1099 H   0  0  0  0  0  0  0  0  0  0  0  0
   -0.8078   -3.8596    1.5145 H   0  0  0  0  0  0  0  0  0  0  0  0
    0.8376   -4.5036    1.8231 H   0  0  0  0  0  0  0  0  0  0  0  0
    1.1696   -2.8588    3.7036 H   0  0  0  0  0  0  0  0  0  0  0  0
   -0.3252   -0.9708    4.0724 H   0  0  0  0  0  0  0  0  0  0  0  0
   -1.1251   -2.4979    4.5192 H   0  0  0  0  0  0  0  0  0  0  0  0
   -3.3449   -2.4926    3.8230 H   0  0  0  0  0  0  0  0  0  0  0  0
   -5.5555   -2.6334    3.1031 H   0  0  0  0  0  0  0  0  0  0  0  0
   -6.4618   -1.4051    0.6111 H   0  0  0  0  0  0  0  0  0  0  0  0
   -7.8022   -0.0880   -0.4850 H   0  0  0  0  0  0  0  0  0  0  0  0
   -6.6146    0.4089   -1.7697 H   0  0  0  0  0  0  0  0  0  0  0  0
   -6.2764    1.0837    1.1519 H   0  0  0  0  0  0  0  0  0  0  0  0
   -4.3428    1.4371   -0.3974 H   0  0  0  0  0  0  0  0  0  0  0  0
   -4.8955    3.0314    0.1380 H   0  0  0  0  0  0  0  0  0  0  0  0
   -3.9652    1.2114   -2.9381 H   0  0  0  0  0  0  0  0  0  0  0  0
   -4.9646    2.3655   -5.1290 H   0  0  0  0  0  0  0  0  0  0  0  0
   -6.7969    4.1128   -4.3152 H   0  0  0  0  0  0  0  0  0  0  0  0
   -6.9201    4.0420   -1.7582 H   0  0  0  0  0  0  0  0  0  0  0  0
   -6.3917    3.4645    1.7782 H   0  0  0  0  0  0  0  0  0  0  0  0
   -7.9903    5.2042    2.3123 H   0  0  0  0  0  0  0  0  0  0  0  0
  -11.7312    4.5134   -0.1683 H   0  0  0  0  0  0  0  0  0  0  0  0
  -11.5784    3.0626   -1.1402 H   0  0  0  0  0  0  0  0  0  0  0  0
   -8.5545    1.3392   -2.1122 H   0  0  0  0  0  0  0  0  0  0  0  0
  -10.0588    2.0951   -2.1915 H   0  0  0  0  0  0  0  0  0  0  0  0
   -8.0641   -0.6452   -2.7131 H   0  0  0  0  0  0  0  0  0  0  0  0
   -8.4152   -1.9511   -3.6534 H   0  0  0  0  0  0  0  0  0  0  0  0
   -7.9582   -3.5761   -2.1982 H   0  0  0  0  0  0  0  0  0  0  0  0
   -8.7973   -1.9991    0.2876 H   0  0  0  0  0  0  0  0  0  0  0  0
   -8.1821   -3.6799    0.2558 H   0  0  0  0  0  0  0  0  0  0  0  0
  -10.6237   -3.0733    0.0002 H   0  0  0  0  0  0  0  0  0  0  0  0
   -5.9653   -2.0135   -2.3583 H   0  0  0  0  0  0  0  0  0  0  0  0
   -5.9529   -3.6438   -0.0296 H   0  0  0  0  0  0  0  0  0  0  0  0
   -2.1869   -0.3317   -0.4882 H   0  0  0  0  0  0  0  0  0  0  0  0
    0.1253    0.2163    2.1000 H   0  0  0  0  0  0  0  0  0  0  0  0
   -0.2580    0.7641   -0.4306 H   0  0  0  0  0  0  0  0  0  0  0  0
    0.6551   -0.7256   -0.7606 H   0  0  0  0  0  0  0  0  0  0  0  0
    2.2289    1.1294   -0.9466 H   0  0  0  0  0  0  0  0  0  0  0  0
    1.0260    2.1920    1.4151 H   0  0  0  0  0  0  0  0  0  0  0  0
    2.3462    0.3728    1.9559 H   0  0  0  0  0  0  0  0  0  0  0  0
    3.6712    2.2128    1.7042 H   0  0  0  0  0  0  0  0  0  0  0  0
    4.2910   -0.1373    2.9560 H   0  0  0  0  0  0  0  0  0  0  0  0
    5.2729    2.6484    0.4535 H   0  0  0  0  0  0  0  0  0  0  0  0
    6.4191    2.4364    2.5213 H   0  0  0  0  0  0  0  0  0  0  0  0
    7.5581    2.2713    1.1939 H   0  0  0  0  0  0  0  0  0  0  0  0
    6.4275   -0.0320    2.9705 H   0  0  0  0  0  0  0  0  0  0  0  0
    7.9779    0.7205    3.1372 H   0  0  0  0  0  0  0  0  0  0  0  0
    7.9263   -1.5212    2.2683 H   0  0  0  0  0  0  0  0  0  0  0  0
    8.8653   -0.4142    1.2925 H   0  0  0  0  0  0  0  0  0  0  0  0
    8.8955   -2.2974   -0.4926 H   0  0  0  0  0  0  0  0  0  0  0  0
    7.3305   -2.8879   -1.1617 H   0  0  0  0  0  0  0  0  0  0  0  0
    8.3830   -3.5040    1.6493 H   0  0  0  0  0  0  0  0  0  0  0  0
    8.2888   -4.5726    0.2324 H   0  0  0  0  0  0  0  0  0  0  0  0
    6.7673   -3.9778    0.9810 H   0  0  0  0  0  0  0  0  0  0  0  0
    2.8012   -1.3001   -0.4345 H   0  0  0  0  0  0  0  0  0  0  0  0
    2.7816   -2.8145    2.0235 H   0  0  0  0  0  0  0  0  0  0  0  0
    6.0406   -0.9819   -2.6320 H   0  0  0  0  0  0  0  0  0  0  0  0
    7.8045   -1.3118   -2.5344 H   0  0  0  0  0  0  0  0  0  0  0  0
    6.5982    1.3396   -3.2603 H   0  0  0  0  0  0  0  0  0  0  0  0
    7.7027    0.3893   -4.2589 H   0  0  0  0  0  0  0  0  0  0  0  0
    9.9996    1.4295   -4.0736 H   0  0  0  0  0  0  0  0  0  0  0  0
   10.3693    0.0198   -3.0214 H   0  0  0  0  0  0  0  0  0  0  0  0
   11.8728    2.2524   -2.6379 H   0  0  0  0  0  0  0  0  0  0  0  0
   11.0625    1.5135   -1.2266 H   0  0  0  0  0  0  0  0  0  0  0  0
   10.3009    4.1606   -2.4532 H   0  0  0  0  0  0  0  0  0  0  0  0
    9.9959    3.4255   -0.8277 H   0  0  0  0  0  0  0  0  0  0  0  0
    8.5045    3.1355   -3.4739 H   0  0  0  0  0  0  0  0  0  0  0  0
    7.7536    3.3262   -1.8634 H   0  0  0  0  0  0  0  0  0  0  0  0
    8.8443    1.3202   -0.1703 H   0  0  0  0  0  0  0  0  0  0  0  0
    9.2270   -0.1695   -0.9804 H   0  0  0  0  0  0  0  0  0  0  0  0
    4.9444    0.5872   -1.0696 H   0  0  0  0  0  0  0  0  0  0  0  0
    6.0951    1.8706   -1.2933 H   0  0  0  0  0  0  0  0  0  0  0  0
  1  2  1  0  0  0  0
  1 67  1  0  0  0  0
  1 68  1  0  0  0  0
  1 69  1  0  0  0  0
  2 70  1  0  0  0  0
  2 71  1  0  0  0  0
  3  2  1  0  0  0  0
  3  4  1  0  0  0  0
  3 72  1  1  0  0  0
  4  5  1  0  0  0  0
  4 73  1  0  0  0  0
  4 74  1  0  0  0  0
  5  6  2  0  0  0  0
  6  7  1  0  0  0  0
  6 75  1  0  0  0  0
  7  8  1  0  0  0  0
  7  9  2  0  0  0  0
  8 76  1  0  0  0  0
  9 10  1  0  0  0  0
  9 36  1  0  0  0  0
 11 10  1  0  0  0  0
 11 12  1  0  0  0  0
 11 77  1  1  0  0  0
 12 13  1  0  0  0  0
 12 78  1  0  0  0  0
 12 79  1  0  0  0  0
 13 14  1  0  0  0  0
 13 20  1  0  0  0  0
 13 80  1  1  0  0  0
 14 15  1  0  0  0  0
 14 81  1  0  0  0  0
 14 82  1  0  0  0  0
 15 16  2  0  0  0  0
 16 17  1  0  0  0  0
 16 83  1  0  0  0  0
 17 18  2  0  0  0  0
 17 84  1  0  0  0  0
 18 19  1  0  0  0  0
 18 85  1  0  0  0  0
 19 15  1  0  0  0  0
 19 86  1  0  0  0  0
 20 21  2  0  0  0  0
 21 22  1  0  0  0  0
 21 87  1  0  0  0  0
 22 23  2  0  0  0  0
 22 88  1  0  0  0  0
 23 24  1  0  0  0  0
 24 25  1  0  0  0  0
 24 26  2  0  0  0  0
 25 89  1  0  0  0  0
 25 90  1  0  0  0  0
 26 27  1  0  0  0  0
 26 20  1  0  0  0  0
 27 28  1  0  0  0  0
 27 91  1  0  0  0  0
 27 92  1  0  0  0  0
 28 29  1  0  0  0  0
 29 30  1  0  0  0  0
 30 31  1  0  0  0  0
 30 93  1  0  0  0  0
 30 94  1  0  0  0  0
 31 32  1  0  0  0  0
 31 34  1  0  0  0  0
 31 95  1  6  0  0  0
 32 33  1  0  0  0  0
 32 96  1  0  0  0  0
 32 97  1  0  0  0  0
 33 98  1  0  0  0  0
 34 35  1  0  0  0  0
 34 11  1  0  0  0  0
 34 99  1  6  0  0  0
 35100  1  0  0  0  0
 36 37  2  0  0  0  0
 36101  1  0  0  0  0
 37 38  1  0  0  0  0
 37  5  1  0  0  0  0
 38 39  1  0  0  0  0
 38102  1  1  0  0  0
 39 40  1  0  0  0  0
 39103  1  0  0  0  0
 39104  1  0  0  0  0
 40 41  1  0  0  0  0
 40105  1  6  0  0  0
 41106  1  0  0  0  0
 42 40  1  0  0  0  0
 42 43  1  0  0  0  0
 42107  1  1  0  0  0
 43 44  1  0  0  0  0
 43 45  1  0  0  0  0
 43108  1  1  0  0  0
 44109  1  0  0  0  0
 45 46  1  0  0  0  0
 45110  1  6  0  0  0
 46 47  1  0  0  0  0
 46111  1  0  0  0  0
 46112  1  0  0  0  0
 47 48  1  0  0  0  0
 47113  1  0  0  0  0
 47114  1  0  0  0  0
 48 49  1  0  0  0  0
 48115  1  0  0  0  0
 48116  1  0  0  0  0
 49 50  1  6  0  0  0
 49 52  1  0  0  0  0
 49 57  1  0  0  0  0
 50 51  1  0  0  0  0
 50117  1  0  0  0  0
 50118  1  0  0  0  0
 51119  1  0  0  0  0
 51120  1  0  0  0  0
 51121  1  0  0  0  0
 52 53  3  0  0  0  0
 54 53  1  0  0  0  0
 54 55  1  0  0  0  0
 54 42  1  0  0  0  0
 54122  1  6  0  0  0
 55 56  2  0  0  0  0
 55123  1  0  0  0  0
 56  3  1  0  0  0  0
 56 38  1  0  0  0  0
 57 58  1  6  0  0  0
 57 66  1  0  0  0  0
 58 59  1  0  0  0  0
 58124  1  0  0  0  0
 58125  1  0  0  0  0
 59 60  1  0  0  0  0
 59126  1  0  0  0  0
 59127  1  0  0  0  0
 60 61  1  0  0  0  0
 60 65  1  0  0  0  0
 61 62  1  0  0  0  0
 61128  1  0  0  0  0
 61129  1  0  0  0  0
 62 63  1  0  0  0  0
 62130  1  0  0  0  0
 62131  1  0  0  0  0
 63 64  1  0  0  0  0
 63132  1  0  0  0  0
 63133  1  0  0  0  0
 64 60  1  0  0  0  0
 64134  1  0  0  0  0
 64135  1  0  0  0  0
 65 57  1  0  0  0  0
 65136  1  0  0  0  0
 65137  1  0  0  0  0
 66 45  1  0  0  0  0
 66138  1  0  0  0  0
 66139  1  0  0  0  0
M  END
>  <IDENTIFIER>
CNP0577104.1

>  <Energy>
2359.31

$$$$
