
 OpenBabel09062500023D

 69 72  0  0  0  0  0  0  0  0999 V2000
    6.7552   -0.2578   -4.0992 C   0  0  0  0  0  0  0  0  0  0  0  0
    5.4780    0.1319   -3.7558 O   0  0  0  0  0  0  0  0  0  0  0  0
    4.9065   -0.0015   -2.5292 C   0  0  0  0  0  0  0  0  0  0  0  0
    5.5707   -0.6469   -1.4483 C   0  0  0  0  0  0  0  0  0  0  0  0
    4.9532   -0.7483   -0.1772 C   0  0  0  0  0  0  0  0  0  0  0  0
    5.5439   -1.3386    0.8935 O   0  0  0  0  0  0  0  0  0  0  0  0
    6.8069   -1.8922    0.9071 C   0  0  0  0  0  0  0  0  0  0  0  0
    3.6832   -0.1907   -0.0374 C   0  0  0  0  0  0  0  0  0  0  0  0
    2.8014   -0.0834    1.1003 C   0  0  0  0  0  0  0  0  0  0  0  0
    3.0334   -0.5063    2.2224 O   0  0  0  0  0  0  0  0  0  0  0  0
    1.5829    0.7074    0.6592 C   0  0  1  0  0  0  0  0  0  0  0  0
    1.8371    0.9182   -0.6970 O   0  0  0  0  0  0  0  0  0  0  0  0
    3.0377    0.4273   -1.0661 C   0  0  0  0  0  0  0  0  0  0  0  0
    3.6174    0.5347   -2.3284 C   0  0  0  0  0  0  0  0  0  0  0  0
    2.7587    1.3520   -3.6259 Cl  0  0  0  0  0  0  0  0  0  0  0  0
    0.2338   -0.0136    0.8277 C   0  0  0  0  0  0  0  0  0  0  0  0
    0.2263   -1.3159    1.1945 O   0  0  0  0  0  0  0  0  0  0  0  0
   -0.9485    0.6830    0.6460 C   0  0  0  0  0  0  0  0  0  0  0  0
   -2.3779    0.0373    0.8102 C   0  0  1  0  0  0  0  0  0  0  0  0
   -3.4046    0.3730   -0.3196 C   0  0  0  0  0  0  0  0  0  0  0  0
   -4.1277    1.7002   -0.1846 C   0  0  0  0  0  0  0  0  0  0  0  0
   -4.0209    2.3617    0.8408 O   0  0  0  0  0  0  0  0  0  0  0  0
   -4.9122    2.1437   -1.2041 N   0  0  0  0  0  0  0  0  0  0  0  0
   -5.5860    3.4310   -1.1853 C   0  0  0  0  0  0  0  0  0  0  0  0
   -4.5709    4.5814   -1.2004 C   0  0  0  0  0  0  0  0  0  0  0  0
   -5.4215    6.1884   -1.2378 S   0  0  0  0  0  0  0  0  0  0  0  0
   -2.3734   -1.4815    0.9695 C   0  0  0  0  0  0  0  0  0  0  0  0
   -2.0240   -2.3277   -0.1038 C   0  0  0  0  0  0  0  0  0  0  0  0
   -2.0227   -3.7170    0.0607 C   0  0  0  0  0  0  0  0  0  0  0  0
   -2.3703   -4.2800    1.2934 C   0  0  0  0  0  0  0  0  0  0  0  0
   -2.3461   -6.0618    1.5099 S   0  0  0  0  0  0  0  0  0  0  0  0
   -4.1342   -6.2531    1.2378 C   0  0  0  0  0  0  0  0  0  0  0  0
   -2.7254   -3.4501    2.3614 C   0  0  0  0  0  0  0  0  0  0  0  0
   -2.7326   -2.0622    2.2011 C   0  0  0  0  0  0  0  0  0  0  0  0
   -0.8069    2.1678    0.3691 C   0  0  0  0  0  0  0  0  0  0  0  0
   -1.7087    2.8063   -0.1341 O   0  0  0  0  0  0  0  0  0  0  0  0
    0.4710    2.9254    0.6363 C   0  0  0  0  0  0  0  0  0  0  0  0
    1.5135    2.0738    1.3728 C   0  0  1  0  0  0  0  0  0  0  0  0
    1.1749    1.9631    2.8772 C   0  0  0  0  0  0  0  0  0  0  0  0
    6.9369   -0.0063   -5.1639 H   0  0  0  0  0  0  0  0  0  0  0  0
    6.8742   -1.3537   -3.9672 H   0  0  0  0  0  0  0  0  0  0  0  0
    7.4996    0.2858   -3.4773 H   0  0  0  0  0  0  0  0  0  0  0  0
    6.5596   -1.0571   -1.5939 H   0  0  0  0  0  0  0  0  0  0  0  0
    7.0149   -2.2952    1.9193 H   0  0  0  0  0  0  0  0  0  0  0  0
    7.5667   -1.1166    0.6718 H   0  0  0  0  0  0  0  0  0  0  0  0
    6.8704   -2.7239    0.1736 H   0  0  0  0  0  0  0  0  0  0  0  0
    1.0171   -1.8561    1.3175 H   0  0  0  0  0  0  0  0  0  0  0  0
   -2.7908    0.4484    1.7567 H   0  0  0  0  0  0  0  0  0  0  0  0
   -4.2341   -0.3698   -0.3194 H   0  0  0  0  0  0  0  0  0  0  0  0
   -2.8865    0.2955   -1.2998 H   0  0  0  0  0  0  0  0  0  0  0  0
   -5.0268    1.5495   -2.0402 H   0  0  0  0  0  0  0  0  0  0  0  0
   -6.2471    3.5009   -0.2940 H   0  0  0  0  0  0  0  0  0  0  0  0
   -6.2148    3.5210   -2.0965 H   0  0  0  0  0  0  0  0  0  0  0  0
   -3.9071    4.5017   -2.0889 H   0  0  0  0  0  0  0  0  0  0  0  0
   -3.9114    4.5677   -0.3097 H   0  0  0  0  0  0  0  0  0  0  0  0
   -5.4595    6.2228   -2.6451 H   0  0  0  0  0  0  0  0  0  0  0  0
   -1.7474   -1.9094   -1.0631 H   0  0  0  0  0  0  0  0  0  0  0  0
   -1.7469   -4.3547   -0.7695 H   0  0  0  0  0  0  0  0  0  0  0  0
   -4.3888   -7.3283    1.3373 H   0  0  0  0  0  0  0  0  0  0  0  0
   -4.4063   -5.9290    0.2120 H   0  0  0  0  0  0  0  0  0  0  0  0
   -4.7058   -5.6977    2.0106 H   0  0  0  0  0  0  0  0  0  0  0  0
   -2.9949   -3.8796    3.3180 H   0  0  0  0  0  0  0  0  0  0  0  0
   -3.0098   -1.4417    3.0440 H   0  0  0  0  0  0  0  0  0  0  0  0
    0.2710    3.8489    1.2216 H   0  0  0  0  0  0  0  0  0  0  0  0
    0.8690    3.2425   -0.3538 H   0  0  0  0  0  0  0  0  0  0  0  0
    2.4904    2.6020    1.2970 H   0  0  0  0  0  0  0  0  0  0  0  0
    0.1913    1.4792    3.0494 H   0  0  0  0  0  0  0  0  0  0  0  0
    1.1402    2.9770    3.3283 H   0  0  0  0  0  0  0  0  0  0  0  0
    1.9524    1.3885    3.4175 H   0  0  0  0  0  0  0  0  0  0  0  0
  1  2  1  0  0  0  0
  1 40  1  0  0  0  0
  1 41  1  0  0  0  0
  1 42  1  0  0  0  0
  2  3  1  0  0  0  0
  3  4  2  0  0  0  0
  4  5  1  0  0  0  0
  4 43  1  0  0  0  0
  5  6  1  0  0  0  0
  5  8  2  0  0  0  0
  6  7  1  0  0  0  0
  7 44  1  0  0  0  0
  7 45  1  0  0  0  0
  7 46  1  0  0  0  0
  8  9  1  0  0  0  0
  9 10  2  0  0  0  0
 11  9  1  1  0  0  0
 11 12  1  0  0  0  0
 11 16  1  0  0  0  0
 12 13  1  0  0  0  0
 13 14  2  0  0  0  0
 13  8  1  0  0  0  0
 14 15  1  0  0  0  0
 14  3  1  0  0  0  0
 16 17  1  0  0  0  0
 16 18  2  0  0  0  0
 17 47  1  0  0  0  0
 18 19  1  0  0  0  0
 18 35  1  0  0  0  0
 19 20  1  0  0  0  0
 19 27  1  0  0  0  0
 19 48  1  1  0  0  0
 20 21  1  0  0  0  0
 20 49  1  0  0  0  0
 20 50  1  0  0  0  0
 21 22  2  0  0  0  0
 21 23  1  0  0  0  0
 23 24  1  0  0  0  0
 23 51  1  0  0  0  0
 24 25  1  0  0  0  0
 24 52  1  0  0  0  0
 24 53  1  0  0  0  0
 25 26  1  0  0  0  0
 25 54  1  0  0  0  0
 25 55  1  0  0  0  0
 26 56  1  0  0  0  0
 27 28  2  0  0  0  0
 28 29  1  0  0  0  0
 28 57  1  0  0  0  0
 29 30  2  0  0  0  0
 29 58  1  0  0  0  0
 30 31  1  0  0  0  0
 30 33  1  0  0  0  0
 31 32  1  0  0  0  0
 32 59  1  0  0  0  0
 32 60  1  0  0  0  0
 32 61  1  0  0  0  0
 33 34  2  0  0  0  0
 33 62  1  0  0  0  0
 34 27  1  0  0  0  0
 34 63  1  0  0  0  0
 35 36  2  0  0  0  0
 35 37  1  0  0  0  0
 37 38  1  0  0  0  0
 37 64  1  0  0  0  0
 37 65  1  0  0  0  0
 38 39  1  0  0  0  0
 38 11  1  0  0  0  0
 38 66  1  6  0  0  0
 39 67  1  0  0  0  0
 39 68  1  0  0  0  0
 39 69  1  0  0  0  0
M  END
>  <IDENTIFIER>
CNP0166882.1

>  <Energy>
582.56

$$$$
