
 OpenBabel09082510483D

 35 36  0  0  0  0  0  0  0  0999 V2000
   -4.3711    1.5878    0.1692 C   0  0  0  0  0  0  0  0  0  0  0  0
   -3.6463    0.2896    0.5478 C   0  0  0  0  0  0  0  0  0  0  0  0
   -4.6562   -0.7088    1.1350 C   0  0  0  0  0  0  0  0  0  0  0  0
   -2.9075   -0.2754   -0.6928 C   0  0  0  0  0  0  0  0  0  0  0  0
   -2.0361   -1.5216   -0.4048 C   0  0  1  0  0  0  0  0  0  0  0  0
   -1.2379   -2.2436   -1.8905 S   0  0  0  0  0  0  0  0  0  0  0  0
   -0.2034   -0.4976   -2.5708 S   0  0  0  0  0  0  0  0  0  0  0  0
    0.9784   -0.4540   -1.1844 C   0  0  1  0  0  0  0  0  0  0  0  0
    2.2694    0.2427   -1.6585 C   0  0  0  0  0  0  0  0  0  0  0  0
    3.3739    0.2835   -0.6206 C   0  0  0  0  0  0  0  0  0  0  0  0
    3.2889    1.1221    0.5074 C   0  0  0  0  0  0  0  0  0  0  0  0
    4.3230    1.1559    1.4470 C   0  0  0  0  0  0  0  0  0  0  0  0
    5.4551    0.3584    1.2719 C   0  0  0  0  0  0  0  0  0  0  0  0
    5.5577   -0.4704    0.1528 C   0  0  0  0  0  0  0  0  0  0  0  0
    4.5265   -0.5061   -0.7914 C   0  0  0  0  0  0  0  0  0  0  0  0
    0.1578    0.4197    0.1881 S   0  0  0  0  0  0  0  0  0  0  0  0
   -0.8040   -1.3332    0.9426 S   0  0  0  0  0  0  0  0  0  0  0  0
   -4.8720    2.0226    1.0603 H   0  0  0  0  0  0  0  0  0  0  0  0
   -5.1354    1.3980   -0.6154 H   0  0  0  0  0  0  0  0  0  0  0  0
   -3.6438    2.3358   -0.2129 H   0  0  0  0  0  0  0  0  0  0  0  0
   -2.9026    0.5452    1.3331 H   0  0  0  0  0  0  0  0  0  0  0  0
   -5.4183   -0.9860    0.3751 H   0  0  0  0  0  0  0  0  0  0  0  0
   -5.1723   -0.2571    2.0088 H   0  0  0  0  0  0  0  0  0  0  0  0
   -4.1519   -1.6273    1.4954 H   0  0  0  0  0  0  0  0  0  0  0  0
   -2.2682    0.5314   -1.1000 H   0  0  0  0  0  0  0  0  0  0  0  0
   -3.6513   -0.5322   -1.4789 H   0  0  0  0  0  0  0  0  0  0  0  0
   -2.7266   -2.3177   -0.0642 H   0  0  0  0  0  0  0  0  0  0  0  0
    1.2781   -1.4832   -0.8876 H   0  0  0  0  0  0  0  0  0  0  0  0
    2.0592    1.2748   -2.0135 H   0  0  0  0  0  0  0  0  0  0  0  0
    2.6284   -0.3381   -2.5372 H   0  0  0  0  0  0  0  0  0  0  0  0
    2.4350    1.7651    0.6610 H   0  0  0  0  0  0  0  0  0  0  0  0
    4.2477    1.8057    2.3095 H   0  0  0  0  0  0  0  0  0  0  0  0
    6.2549    0.3872    2.0006 H   0  0  0  0  0  0  0  0  0  0  0  0
    6.4379   -1.0848    0.0156 H   0  0  0  0  0  0  0  0  0  0  0  0
    4.6276   -1.1553   -1.6521 H   0  0  0  0  0  0  0  0  0  0  0  0
  1  2  1  0  0  0  0
  1 18  1  0  0  0  0
  1 19  1  0  0  0  0
  1 20  1  0  0  0  0
  2  3  1  0  0  0  0
  2  4  1  0  0  0  0
  2 21  1  0  0  0  0
  3 22  1  0  0  0  0
  3 23  1  0  0  0  0
  3 24  1  0  0  0  0
  4 25  1  0  0  0  0
  4 26  1  0  0  0  0
  5  4  1  0  0  0  0
  5  6  1  0  0  0  0
  5 27  1  1  0  0  0
  6  7  1  0  0  0  0
  7  8  1  0  0  0  0
  8  9  1  0  0  0  0
  8 16  1  0  0  0  0
  8 28  1  1  0  0  0
  9 10  1  0  0  0  0
  9 29  1  0  0  0  0
  9 30  1  0  0  0  0
 10 11  2  0  0  0  0
 11 12  1  0  0  0  0
 11 31  1  0  0  0  0
 12 13  2  0  0  0  0
 12 32  1  0  0  0  0
 13 14  1  0  0  0  0
 13 33  1  0  0  0  0
 14 15  2  0  0  0  0
 14 34  1  0  0  0  0
 15 10  1  0  0  0  0
 15 35  1  0  0  0  0
 16 17  1  0  0  0  0
 17  5  1  0  0  0  0
M  END
>  <IDENTIFIER>
CNP0359071.1

>  <Energy>
224.905

$$$$
