
 OpenBabel09082504403D

 76 82  0  0  0  0  0  0  0  0999 V2000
   -9.4368    0.1394   -1.1389 C   0  0  0  0  0  0  0  0  0  0  0  0
   -8.2753   -0.4375   -0.6765 O   0  0  0  0  0  0  0  0  0  0  0  0
   -8.1967   -1.6765   -0.1231 C   0  0  0  0  0  0  0  0  0  0  0  0
   -9.2091   -2.3320    0.0790 O   0  0  0  0  0  0  0  0  0  0  0  0
   -6.8520   -2.2823    0.2013 C   0  0  0  0  0  0  0  0  0  0  0  0
   -5.6825   -1.3238   -0.0861 C   0  0  1  0  0  0  0  0  0  0  0  0
   -4.3346   -2.0161    0.1973 C   0  0  0  0  0  0  0  0  0  0  0  0
   -3.2884   -0.9728   -0.0567 C   0  0  0  0  0  0  0  0  0  0  0  0
   -2.3116   -0.6944    0.8908 C   0  0  0  0  0  0  0  0  0  0  0  0
   -1.3566    0.3184    0.6960 C   0  0  0  0  0  0  0  0  0  0  0  0
   -1.4963    1.1406   -0.4701 C   0  0  0  0  0  0  0  0  0  0  0  0
   -0.6056    2.3483   -0.5405 C   0  0  0  0  0  0  0  0  0  0  0  0
   -0.4939    3.0300   -1.5442 O   0  0  0  0  0  0  0  0  0  0  0  0
    0.1981    2.7357    0.6739 C   0  0  1  0  0  0  0  0  0  0  0  0
   -0.4096    2.1557    1.9530 C   0  0  0  0  0  0  0  0  0  0  0  0
   -0.2343    0.6428    1.7419 C   0  0  1  0  0  0  0  0  0  0  0  0
   -0.3716    0.0656    3.0119 O   0  0  0  0  0  0  0  0  0  0  0  0
   -0.4544   -1.2268    3.4505 C   0  0  0  0  0  0  0  0  0  0  0  0
   -0.4515   -1.5012    4.9189 C   0  0  0  0  0  0  0  0  0  0  0  0
   -0.5414   -2.1765    2.6849 O   0  0  0  0  0  0  0  0  0  0  0  0
    1.2296    0.6848    1.1776 C   0  0  0  0  0  0  0  0  0  0  0  0
    2.3342   -0.2164    1.1703 C   0  0  0  0  0  0  0  0  0  0  0  0
    2.2891   -1.4412    1.7155 O   0  0  0  0  0  0  0  0  0  0  0  0
    3.5725    0.1769    0.5749 C   0  0  0  0  0  0  0  0  0  0  0  0
    3.7253    1.4622   -0.0112 C   0  0  0  0  0  0  0  0  0  0  0  0
    5.0592    1.8187   -0.6074 C   0  0  0  0  0  0  0  0  0  0  0  0
    5.2593    2.9275   -1.0703 O   0  0  0  0  0  0  0  0  0  0  0  0
    6.1911    0.8468   -0.6100 C   0  0  0  0  0  0  0  0  0  0  0  0
    6.0354   -0.3635   -0.0404 C   0  0  0  0  0  0  0  0  0  0  0  0
    7.1697   -1.3130   -0.0085 C   0  0  0  0  0  0  0  0  0  0  0  0
    8.3527   -0.9624   -0.5241 C   0  0  0  0  0  0  0  0  0  0  0  0
    9.5208   -1.9038   -0.4908 C   0  0  0  0  0  0  0  0  0  0  0  0
    8.5162    0.2592   -1.0909 O   0  0  0  0  0  0  0  0  0  0  0  0
    7.5371    1.2355   -1.2388 C   0  0  1  0  0  0  0  0  0  0  0  0
    7.3909    1.5131   -2.7391 C   0  0  0  0  0  0  0  0  0  0  0  0
    4.7437   -0.7581    0.5692 C   0  0  0  0  0  0  0  0  0  0  0  0
    4.6556   -1.8706    1.0717 O   0  0  0  0  0  0  0  0  0  0  0  0
    2.6147    2.3505    0.0039 C   0  0  0  0  0  0  0  0  0  0  0  0
    2.6186    3.5961   -0.5311 O   0  0  0  0  0  0  0  0  0  0  0  0
    1.4269    1.9314    0.5991 C   0  0  0  0  0  0  0  0  0  0  0  0
   -2.5033    0.8496   -1.4477 C   0  0  0  0  0  0  0  0  0  0  0  0
   -2.6637    1.5927   -2.5637 O   0  0  0  0  0  0  0  0  0  0  0  0
   -3.3948   -0.2350   -1.2347 C   0  0  0  0  0  0  0  0  0  0  0  0
   -4.5687   -0.6636   -2.1468 C   0  0  2  0  0  0  0  0  0  0  0  0
   -4.8914    0.2664   -3.3178 C   0  0  0  0  0  0  0  0  0  0  0  0
   -5.7871   -0.8264   -1.4237 O   0  0  0  0  0  0  0  0  0  0  0  0
   -9.1969    1.1347   -1.5671 H   0  0  0  0  0  0  0  0  0  0  0  0
  -10.1611    0.2656   -0.3081 H   0  0  0  0  0  0  0  0  0  0  0  0
   -9.8799   -0.4909   -1.9398 H   0  0  0  0  0  0  0  0  0  0  0  0
   -6.7372   -3.2069   -0.4044 H   0  0  0  0  0  0  0  0  0  0  0  0
   -6.8304   -2.5591    1.2789 H   0  0  0  0  0  0  0  0  0  0  0  0
   -5.7870   -0.4550    0.6031 H   0  0  0  0  0  0  0  0  0  0  0  0
   -4.2033   -2.8696   -0.5029 H   0  0  0  0  0  0  0  0  0  0  0  0
   -4.2837   -2.4074    1.2375 H   0  0  0  0  0  0  0  0  0  0  0  0
   -2.3514   -1.2763    1.7801 H   0  0  0  0  0  0  0  0  0  0  0  0
    0.3394    3.8364    0.7594 H   0  0  0  0  0  0  0  0  0  0  0  0
   -1.4560    2.4786    2.1552 H   0  0  0  0  0  0  0  0  0  0  0  0
    0.2142    2.4936    2.8158 H   0  0  0  0  0  0  0  0  0  0  0  0
   -0.3741   -0.5526    5.4903 H   0  0  0  0  0  0  0  0  0  0  0  0
    0.4153   -2.1474    5.1705 H   0  0  0  0  0  0  0  0  0  0  0  0
   -1.3898   -2.0220    5.2013 H   0  0  0  0  0  0  0  0  0  0  0  0
    1.5601   -1.8248    2.1760 H   0  0  0  0  0  0  0  0  0  0  0  0
    7.0441   -2.2917    0.4460 H   0  0  0  0  0  0  0  0  0  0  0  0
    9.2641   -2.8691   -0.0030 H   0  0  0  0  0  0  0  0  0  0  0  0
   10.3541   -1.4352    0.0726 H   0  0  0  0  0  0  0  0  0  0  0  0
    9.8543   -2.1113   -1.5286 H   0  0  0  0  0  0  0  0  0  0  0  0
    7.8994    2.1560   -0.7328 H   0  0  0  0  0  0  0  0  0  0  0  0
    7.0353    0.6001   -3.2628 H   0  0  0  0  0  0  0  0  0  0  0  0
    8.3760    1.8037   -3.1619 H   0  0  0  0  0  0  0  0  0  0  0  0
    6.6831    2.3398   -2.9452 H   0  0  0  0  0  0  0  0  0  0  0  0
    3.3319    4.0315   -1.0040 H   0  0  0  0  0  0  0  0  0  0  0  0
   -2.1500    2.3517   -2.8509 H   0  0  0  0  0  0  0  0  0  0  0  0
   -4.3082   -1.6537   -2.5832 H   0  0  0  0  0  0  0  0  0  0  0  0
   -5.1821    1.2693   -2.9329 H   0  0  0  0  0  0  0  0  0  0  0  0
   -5.7566   -0.1390   -3.8852 H   0  0  0  0  0  0  0  0  0  0  0  0
   -4.0460    0.3469   -4.0294 H   0  0  0  0  0  0  0  0  0  0  0  0
  1  2  1  0  0  0  0
  1 47  1  0  0  0  0
  1 48  1  0  0  0  0
  1 49  1  0  0  0  0
  2  3  1  0  0  0  0
  3  4  2  0  0  0  0
  3  5  1  0  0  0  0
  5 50  1  0  0  0  0
  5 51  1  0  0  0  0
  6  5  1  0  0  0  0
  6  7  1  0  0  0  0
  6 52  1  1  0  0  0
  7  8  1  0  0  0  0
  7 53  1  0  0  0  0
  7 54  1  0  0  0  0
  8  9  2  0  0  0  0
  9 10  1  0  0  0  0
  9 55  1  0  0  0  0
 10 11  2  0  0  0  0
 11 12  1  0  0  0  0
 11 41  1  0  0  0  0
 12 13  2  0  0  0  0
 14 12  1  0  0  0  0
 14 15  1  0  0  0  0
 14 56  1  1  0  0  0
 15 16  1  0  0  0  0
 15 57  1  0  0  0  0
 15 58  1  0  0  0  0
 16 17  1  1  0  0  0
 16 21  1  0  0  0  0
 16 10  1  0  0  0  0
 17 18  1  0  0  0  0
 18 19  1  0  0  0  0
 18 20  2  0  0  0  0
 19 59  1  0  0  0  0
 19 60  1  0  0  0  0
 19 61  1  0  0  0  0
 21 22  2  0  0  0  0
 22 23  1  0  0  0  0
 22 24  1  0  0  0  0
 23 62  1  0  0  0  0
 24 25  2  0  0  0  0
 25 26  1  0  0  0  0
 25 38  1  0  0  0  0
 26 27  2  0  0  0  0
 26 28  1  0  0  0  0
 28 29  2  0  0  0  0
 29 30  1  0  0  0  0
 29 36  1  0  0  0  0
 30 31  2  0  0  0  0
 30 63  1  0  0  0  0
 31 32  1  0  0  0  0
 31 33  1  0  0  0  0
 32 64  1  0  0  0  0
 32 65  1  0  0  0  0
 32 66  1  0  0  0  0
 33 34  1  0  0  0  0
 34 35  1  0  0  0  0
 34 28  1  0  0  0  0
 34 67  1  1  0  0  0
 35 68  1  0  0  0  0
 35 69  1  0  0  0  0
 35 70  1  0  0  0  0
 36 37  2  0  0  0  0
 36 24  1  0  0  0  0
 38 39  1  0  0  0  0
 38 40  2  0  0  0  0
 39 71  1  0  0  0  0
 40 21  1  0  0  0  0
 40 14  1  0  0  0  0
 41 42  1  0  0  0  0
 41 43  2  0  0  0  0
 42 72  1  0  0  0  0
 43 44  1  0  0  0  0
 43  8  1  0  0  0  0
 44 45  1  0  0  0  0
 44 46  1  0  0  0  0
 44 73  1  6  0  0  0
 45 74  1  0  0  0  0
 45 75  1  0  0  0  0
 45 76  1  0  0  0  0
 46  6  1  0  0  0  0
M  END
>  <IDENTIFIER>
CNP0197441.2

>  <Energy>
881.884

$$$$
