
 OpenBabel09072518403D

 35 35  0  0  0  0  0  0  0  0999 V2000
    4.7222   -1.5878    0.4643 C   0  0  0  0  0  0  0  0  0  0  0  0
    3.5348   -1.1271    0.9927 O   0  0  0  0  0  0  0  0  0  0  0  0
    2.5344   -0.5947    0.2455 C   0  0  0  0  0  0  0  0  0  0  0  0
    2.6554   -0.4873   -0.9668 O   0  0  0  0  0  0  0  0  0  0  0  0
    1.2706   -0.1576    0.9393 C   0  0  0  0  0  0  0  0  0  0  0  0
    0.2837    0.3771    0.0112 N   0  0  0  0  0  0  0  0  0  0  0  0
   -1.0178   -0.2057   -0.0565 C   0  0  0  0  0  0  0  0  0  0  0  0
   -1.4234   -0.9365   -1.2044 C   0  0  0  0  0  0  0  0  0  0  0  0
   -0.5193   -1.1838   -2.3812 C   0  0  0  0  0  0  0  0  0  0  0  0
   -2.7120   -1.4870   -1.2566 C   0  0  0  0  0  0  0  0  0  0  0  0
   -3.5966   -1.3282   -0.1943 C   0  0  0  0  0  0  0  0  0  0  0  0
   -3.2086   -0.6194    0.9388 C   0  0  0  0  0  0  0  0  0  0  0  0
   -1.9259   -0.0551    1.0257 C   0  0  0  0  0  0  0  0  0  0  0  0
   -1.5564    0.7156    2.2672 C   0  0  0  0  0  0  0  0  0  0  0  0
    0.5460    1.9526   -0.7542 S   0  0  0  0  0  0  0  0  0  0  0  0
   -0.5851    3.3007   -0.3116 C   0  0  0  0  0  0  0  0  0  0  0  0
    0.5976    1.6893   -2.2657 O   0  0  0  0  0  0  0  0  0  0  0  0
    2.0075    2.3193   -0.4524 O   0  0  0  0  0  0  0  0  0  0  0  0
    5.3612   -1.9723    1.2852 H   0  0  0  0  0  0  0  0  0  0  0  0
    5.2578   -0.7625   -0.0517 H   0  0  0  0  0  0  0  0  0  0  0  0
    4.5259   -2.4136   -0.2528 H   0  0  0  0  0  0  0  0  0  0  0  0
    1.5146    0.6119    1.7020 H   0  0  0  0  0  0  0  0  0  0  0  0
    0.8620   -1.0511    1.4603 H   0  0  0  0  0  0  0  0  0  0  0  0
    0.4909   -0.7644   -2.2443 H   0  0  0  0  0  0  0  0  0  0  0  0
   -0.9660   -0.7431   -3.2972 H   0  0  0  0  0  0  0  0  0  0  0  0
   -0.3993   -2.2780   -2.5289 H   0  0  0  0  0  0  0  0  0  0  0  0
   -3.0310   -2.0497   -2.1258 H   0  0  0  0  0  0  0  0  0  0  0  0
   -4.5877   -1.7602   -0.2483 H   0  0  0  0  0  0  0  0  0  0  0  0
   -3.9159   -0.5106    1.7519 H   0  0  0  0  0  0  0  0  0  0  0  0
   -2.3969    0.7532    2.9922 H   0  0  0  0  0  0  0  0  0  0  0  0
   -1.2914    1.7582    2.0010 H   0  0  0  0  0  0  0  0  0  0  0  0
   -0.6994    0.2377    2.7803 H   0  0  0  0  0  0  0  0  0  0  0  0
   -1.6312    2.9328   -0.3402 H   0  0  0  0  0  0  0  0  0  0  0  0
   -0.4713    4.1306   -1.0388 H   0  0  0  0  0  0  0  0  0  0  0  0
   -0.3416    3.6717    0.7051 H   0  0  0  0  0  0  0  0  0  0  0  0
  1  2  1  0  0  0  0
  1 19  1  0  0  0  0
  1 20  1  0  0  0  0
  1 21  1  0  0  0  0
  2  3  1  0  0  0  0
  3  4  2  0  0  0  0
  3  5  1  0  0  0  0
  5  6  1  0  0  0  0
  5 22  1  0  0  0  0
  5 23  1  0  0  0  0
  6  7  1  0  0  0  0
  6 15  1  0  0  0  0
  7  8  2  0  0  0  0
  8  9  1  0  0  0  0
  8 10  1  0  0  0  0
  9 24  1  0  0  0  0
  9 25  1  0  0  0  0
  9 26  1  0  0  0  0
 10 11  2  0  0  0  0
 10 27  1  0  0  0  0
 11 12  1  0  0  0  0
 11 28  1  0  0  0  0
 12 13  2  0  0  0  0
 12 29  1  0  0  0  0
 13 14  1  0  0  0  0
 13  7  1  0  0  0  0
 14 30  1  0  0  0  0
 14 31  1  0  0  0  0
 14 32  1  0  0  0  0
 15 16  1  0  0  0  0
 15 17  2  0  0  0  0
 15 18  2  0  0  0  0
 16 33  1  0  0  0  0
 16 34  1  0  0  0  0
 16 35  1  0  0  0  0
M  END
>  <IDENTIFIER>
CNP0492603.0

>  <Energy>
710.306

$$$$
