
 OpenBabel09062514113D

 41 42  0  0  0  0  0  0  0  0999 V2000
   -0.0979    2.7453   -0.0473 C   0  0  0  0  0  0  0  0  0  0  0  0
   -0.7779    1.5957    0.1610 C   0  0  0  0  0  0  0  0  0  0  0  0
   -2.2836    1.6887    0.3236 C   0  0  0  0  0  0  0  0  0  0  0  0
   -2.8822    0.7906   -0.7502 C   0  0  2  0  0  0  0  0  0  0  0  0
   -4.2813    0.8991   -0.8111 O   0  0  0  0  0  0  0  0  0  0  0  0
   -2.4369   -0.6969   -0.6435 C   0  0  1  0  0  0  0  0  0  0  0  0
   -2.3908   -1.3934   -2.4797 Br  0  0  0  0  0  0  0  0  0  0  0  0
   -1.1407   -0.9760    0.2463 C   0  0  0  0  0  0  0  0  0  0  0  0
   -1.5897   -1.1560    1.7365 C   0  0  0  0  0  0  0  0  0  0  0  0
   -0.6011   -2.3872   -0.1373 C   0  0  0  0  0  0  0  0  0  0  0  0
   -0.0585    0.2184    0.1004 C   0  0  1  0  0  0  0  0  0  0  0  0
    0.5748    0.1348   -1.2906 C   0  0  0  0  0  0  0  0  0  0  0  0
    1.8818   -0.0966   -1.5262 C   0  0  0  0  0  0  0  0  0  0  0  0
    2.9174   -0.3500   -0.4425 C   0  0  2  0  0  0  0  0  0  0  0  0
    3.8179    0.8987   -0.3161 C   0  0  0  0  0  0  0  0  0  0  0  0
    3.7144   -1.4581   -0.7907 O   0  0  0  0  0  0  0  0  0  0  0  0
    2.2398   -0.6970    0.9046 C   0  0  0  0  0  0  0  0  0  0  0  0
    1.0728    0.2396    1.2055 C   0  0  0  0  0  0  0  0  0  0  0  0
   -0.5996    3.7078   -0.0513 H   0  0  0  0  0  0  0  0  0  0  0  0
    0.9695    2.7518   -0.2353 H   0  0  0  0  0  0  0  0  0  0  0  0
   -2.6421    2.7313    0.1718 H   0  0  0  0  0  0  0  0  0  0  0  0
   -2.6364    1.4133    1.3261 H   0  0  0  0  0  0  0  0  0  0  0  0
   -2.4771    1.2088   -1.7005 H   0  0  0  0  0  0  0  0  0  0  0  0
   -4.6341    0.6382    0.0806 H   0  0  0  0  0  0  0  0  0  0  0  0
   -3.2583   -1.2912   -0.1863 H   0  0  0  0  0  0  0  0  0  0  0  0
   -2.3845   -1.9290    1.8184 H   0  0  0  0  0  0  0  0  0  0  0  0
   -1.9620   -0.2582    2.2405 H   0  0  0  0  0  0  0  0  0  0  0  0
   -0.7558   -1.5312    2.3647 H   0  0  0  0  0  0  0  0  0  0  0  0
   -1.4262   -3.1326   -0.1065 H   0  0  0  0  0  0  0  0  0  0  0  0
    0.1495   -2.7768    0.5668 H   0  0  0  0  0  0  0  0  0  0  0  0
   -0.1660   -2.4091   -1.1566 H   0  0  0  0  0  0  0  0  0  0  0  0
   -0.0651    0.2894   -2.1533 H   0  0  0  0  0  0  0  0  0  0  0  0
    2.2218   -0.0733   -2.5584 H   0  0  0  0  0  0  0  0  0  0  0  0
    4.3332    1.1045   -1.2793 H   0  0  0  0  0  0  0  0  0  0  0  0
    4.5923    0.7372    0.4627 H   0  0  0  0  0  0  0  0  0  0  0  0
    3.2358    1.8038   -0.0530 H   0  0  0  0  0  0  0  0  0  0  0  0
    4.1705   -1.2562   -1.6502 H   0  0  0  0  0  0  0  0  0  0  0  0
    2.9914   -0.6717    1.7233 H   0  0  0  0  0  0  0  0  0  0  0  0
    1.8764   -1.7294    0.8703 H   0  0  0  0  0  0  0  0  0  0  0  0
    1.5418    1.2380    1.2714 H   0  0  0  0  0  0  0  0  0  0  0  0
    0.6662    0.0855    2.2216 H   0  0  0  0  0  0  0  0  0  0  0  0
  1  2  2  0  0  0  0
  1 19  1  0  0  0  0
  1 20  1  0  0  0  0
  2  3  1  0  0  0  0
  3  4  1  0  0  0  0
  3 21  1  0  0  0  0
  3 22  1  0  0  0  0
  4  5  1  0  0  0  0
  4  6  1  0  0  0  0
  4 23  1  6  0  0  0
  5 24  1  0  0  0  0
  6  7  1  0  0  0  0
  6  8  1  0  0  0  0
  6 25  1  1  0  0  0
  8  9  1  0  0  0  0
  8 10  1  0  0  0  0
  9 26  1  0  0  0  0
  9 27  1  0  0  0  0
  9 28  1  0  0  0  0
 10 29  1  0  0  0  0
 10 30  1  0  0  0  0
 10 31  1  0  0  0  0
 11  8  1  0  0  0  0
 11 12  1  6  0  0  0
 11  2  1  0  0  0  0
 11 18  1  0  0  0  0
 12 13  2  0  0  0  0
 12 32  1  0  0  0  0
 13 14  1  0  0  0  0
 13 33  1  0  0  0  0
 14 15  1  0  0  0  0
 14 16  1  6  0  0  0
 14 17  1  0  0  0  0
 15 34  1  0  0  0  0
 15 35  1  0  0  0  0
 15 36  1  0  0  0  0
 16 37  1  0  0  0  0
 17 18  1  0  0  0  0
 17 38  1  0  0  0  0
 17 39  1  0  0  0  0
 18 40  1  0  0  0  0
 18 41  1  0  0  0  0
M  END
>  <IDENTIFIER>
CNP0129001.2

>  <Energy>
447.939

$$$$
