
 OpenBabel09092511173D

122126  0  0  0  0  0  0  0  0999 V2000
    9.4481    0.0540    0.6871 C   0  0  0  0  0  0  0  0  0  0  0  0
    8.4013    0.4810   -0.3312 C   0  0  0  0  0  0  0  0  0  0  0  0
    7.5483    1.6247    0.2332 C   0  0  1  0  0  0  0  0  0  0  0  0
    8.2680    2.9471    0.4762 C   0  0  0  0  0  0  0  0  0  0  0  0
    9.2272    3.5431   -0.5371 C   0  0  0  0  0  0  0  0  0  0  0  0
    8.6208    4.0025   -1.7057 O   0  0  0  0  0  0  0  0  0  0  0  0
    6.1601    1.6588   -0.3888 C   0  0  0  0  0  0  0  0  0  0  0  0
    5.1972    1.0733    0.3596 C   0  0  0  0  0  0  0  0  0  0  0  0
    3.7662    0.8970    0.1596 C   0  0  0  0  0  0  0  0  0  0  0  0
    3.1975    0.3910    1.1181 O   0  0  0  0  0  0  0  0  0  0  0  0
    2.9565    1.2844   -1.0707 C   0  0  0  0  0  0  0  0  0  0  0  0
    1.5120    1.0677   -0.8229 C   0  0  0  0  0  0  0  0  0  0  0  0
    1.1282   -0.3506   -0.4803 C   0  0  0  0  0  0  0  0  0  0  0  0
    1.9570   -1.4399   -0.6509 C   0  0  0  0  0  0  0  0  0  0  0  0
    1.5767   -2.6989   -0.2267 C   0  0  0  0  0  0  0  0  0  0  0  0
    2.4859   -3.6478   -0.5206 O   0  0  0  0  0  0  0  0  0  0  0  0
    2.7097   -4.9646   -0.2035 C   0  0  0  0  0  0  0  0  0  0  0  0
    1.7176   -5.9779   -0.8173 C   0  0  0  0  0  0  0  0  0  0  0  0
    2.5703   -7.1304   -1.2934 C   0  0  0  0  0  0  0  0  0  0  0  0
    3.7942   -6.4298   -1.8332 C   0  0  0  0  0  0  0  0  0  0  0  0
    4.0646   -5.3200   -0.8272 C   0  0  0  0  0  0  0  0  0  0  0  0
    0.3324   -2.8600    0.4315 C   0  0  0  0  0  0  0  0  0  0  0  0
   -0.1117   -4.0283    0.8845 O   0  0  0  0  0  0  0  0  0  0  0  0
   -0.5131   -1.7647    0.6013 C   0  0  0  0  0  0  0  0  0  0  0  0
   -0.0905   -0.5360    0.1081 C   0  0  0  0  0  0  0  0  0  0  0  0
   -0.8429    0.6058    0.2393 C   0  0  0  0  0  0  0  0  0  0  0  0
   -1.4422    1.6039    0.3241 C   0  0  0  0  0  0  0  0  0  0  0  0
   -2.3150    2.6900    0.5646 C   0  0  2  0  0  0  0  0  0  0  0  0
   -3.1258    2.4781    1.8766 C   0  0  1  0  0  0  0  0  0  0  0  0
   -4.2753    3.3488    1.8429 N   0  0  0  0  0  0  0  0  0  0  0  0
   -4.8807    3.8450    2.8627 C   0  0  0  0  0  0  0  0  0  0  0  0
   -4.4684    3.5459    4.1865 N   0  0  0  0  0  0  0  0  0  0  0  0
   -5.9612    4.7360    2.6530 N   0  0  0  0  0  0  0  0  0  0  0  0
   -3.5088    1.0056    2.2080 C   0  0  0  0  0  0  0  0  0  0  0  0
   -2.2882    0.2488    2.7647 C   0  0  0  0  0  0  0  0  0  0  0  0
   -2.1377   -1.2572    2.5855 C   0  0  1  0  0  0  0  0  0  0  0  0
   -3.0932   -2.0179    3.4863 C   0  0  0  0  0  0  0  0  0  0  0  0
   -4.4493   -1.7260    3.2659 O   0  0  0  0  0  0  0  0  0  0  0  0
   -5.1666   -2.5184    4.1864 C   0  0  0  0  0  0  0  0  0  0  0  0
   -1.9037   -1.9726    1.2180 C   0  0  1  0  0  0  0  0  0  0  0  0
   -2.8258   -1.7824    0.0513 C   0  0  0  0  0  0  0  0  0  0  0  0
   -4.2780   -2.1337    0.1061 C   0  0  0  0  0  0  0  0  0  0  0  0
   -4.8546   -1.9050   -1.3119 C   0  0  1  0  0  0  0  0  0  0  0  0
   -6.0312   -2.8383   -1.5066 C   0  0  0  0  0  0  0  0  0  0  0  0
   -5.4132   -0.5072   -1.5275 C   0  0  0  0  0  0  0  0  0  0  0  0
   -4.5227    0.5553   -1.2344 C   0  0  0  0  0  0  0  0  0  0  0  0
   -3.8773    1.5237   -1.0282 C   0  0  0  0  0  0  0  0  0  0  0  0
   -3.0793    2.7176   -0.7733 C   0  0  1  0  0  0  0  0  0  0  0  0
   -3.9016    3.9600   -1.0383 C   0  0  0  0  0  0  0  0  0  0  0  0
   -4.6162    3.7408   -2.3379 C   0  0  0  0  0  0  0  0  0  0  0  0
   -3.9448    3.9504   -3.5374 C   0  0  0  0  0  0  0  0  0  0  0  0
   -4.5665    3.6371   -4.7415 C   0  0  0  0  0  0  0  0  0  0  0  0
   -5.8466    3.0779   -4.7489 C   0  0  0  0  0  0  0  0  0  0  0  0
   -6.5012    2.8134   -3.5458 C   0  0  0  0  0  0  0  0  0  0  0  0
   -5.8896    3.1405   -2.3415 C   0  0  0  0  0  0  0  0  0  0  0  0
    5.8997    2.2325   -1.7426 C   0  0  0  0  0  0  0  0  0  0  0  0
    6.0637    3.6218   -1.7835 O   0  0  0  0  0  0  0  0  0  0  0  0
   10.0237   -0.8040    0.2947 H   0  0  0  0  0  0  0  0  0  0  0  0
    8.9394   -0.2506    1.6308 H   0  0  0  0  0  0  0  0  0  0  0  0
   10.1423    0.8889    0.8981 H   0  0  0  0  0  0  0  0  0  0  0  0
    7.7454   -0.4007   -0.5161 H   0  0  0  0  0  0  0  0  0  0  0  0
    8.8838    0.7660   -1.2888 H   0  0  0  0  0  0  0  0  0  0  0  0
    7.3455    1.3712    1.2900 H   0  0  0  0  0  0  0  0  0  0  0  0
    8.9325    2.7492    1.3526 H   0  0  0  0  0  0  0  0  0  0  0  0
    7.4974    3.6928    0.7281 H   0  0  0  0  0  0  0  0  0  0  0  0
   10.0539    2.8289   -0.7566 H   0  0  0  0  0  0  0  0  0  0  0  0
    9.6160    4.4369   -0.0028 H   0  0  0  0  0  0  0  0  0  0  0  0
    8.4506    3.2041   -2.2620 H   0  0  0  0  0  0  0  0  0  0  0  0
    5.4831    0.6350    1.3100 H   0  0  0  0  0  0  0  0  0  0  0  0
    3.2401    0.6933   -1.9692 H   0  0  0  0  0  0  0  0  0  0  0  0
    3.0349    2.3756   -1.2677 H   0  0  0  0  0  0  0  0  0  0  0  0
    0.8768    1.4028   -1.6614 H   0  0  0  0  0  0  0  0  0  0  0  0
    1.3144    1.7104    0.0785 H   0  0  0  0  0  0  0  0  0  0  0  0
    2.9219   -1.3201   -1.1092 H   0  0  0  0  0  0  0  0  0  0  0  0
    2.7850   -5.0682    0.8983 H   0  0  0  0  0  0  0  0  0  0  0  0
    1.2010   -5.5125   -1.6834 H   0  0  0  0  0  0  0  0  0  0  0  0
    0.9831   -6.4100   -0.1146 H   0  0  0  0  0  0  0  0  0  0  0  0
    2.0403   -7.7463   -2.0501 H   0  0  0  0  0  0  0  0  0  0  0  0
    2.8432   -7.7784   -0.4307 H   0  0  0  0  0  0  0  0  0  0  0  0
    3.5211   -5.9679   -2.8050 H   0  0  0  0  0  0  0  0  0  0  0  0
    4.6649   -7.0995   -1.9835 H   0  0  0  0  0  0  0  0  0  0  0  0
    4.5632   -4.4550   -1.3259 H   0  0  0  0  0  0  0  0  0  0  0  0
    4.7205   -5.6872   -0.0148 H   0  0  0  0  0  0  0  0  0  0  0  0
    0.4067   -4.8044    0.8814 H   0  0  0  0  0  0  0  0  0  0  0  0
   -1.7496    3.6466    0.5899 H   0  0  0  0  0  0  0  0  0  0  0  0
   -2.4529    2.8102    2.6973 H   0  0  0  0  0  0  0  0  0  0  0  0
   -3.6941    2.9019    4.3892 H   0  0  0  0  0  0  0  0  0  0  0  0
   -4.9693    3.9576    4.9805 H   0  0  0  0  0  0  0  0  0  0  0  0
   -6.2600    4.9954    1.6999 H   0  0  0  0  0  0  0  0  0  0  0  0
   -6.4467    5.1484    3.4602 H   0  0  0  0  0  0  0  0  0  0  0  0
   -3.9073    0.5341    1.3051 H   0  0  0  0  0  0  0  0  0  0  0  0
   -4.2460    0.9734    3.0318 H   0  0  0  0  0  0  0  0  0  0  0  0
   -2.1396    0.5243    3.8154 H   0  0  0  0  0  0  0  0  0  0  0  0
   -1.3753    0.6392    2.4286 H   0  0  0  0  0  0  0  0  0  0  0  0
   -1.1368   -1.4141    3.0336 H   0  0  0  0  0  0  0  0  0  0  0  0
   -2.7999   -1.7354    4.5180 H   0  0  0  0  0  0  0  0  0  0  0  0
   -2.9164   -3.1025    3.3450 H   0  0  0  0  0  0  0  0  0  0  0  0
   -6.2465   -2.3242    4.0787 H   0  0  0  0  0  0  0  0  0  0  0  0
   -4.8739   -2.2744    5.2350 H   0  0  0  0  0  0  0  0  0  0  0  0
   -4.9932   -3.6028    3.9916 H   0  0  0  0  0  0  0  0  0  0  0  0
   -1.9918   -3.0341    1.4730 H   0  0  0  0  0  0  0  0  0  0  0  0
   -2.3882   -2.4476   -0.7384 H   0  0  0  0  0  0  0  0  0  0  0  0
   -2.7718   -0.7467   -0.2133 H   0  0  0  0  0  0  0  0  0  0  0  0
   -4.8143   -1.5107    0.8407 H   0  0  0  0  0  0  0  0  0  0  0  0
   -4.3420   -3.2069    0.3722 H   0  0  0  0  0  0  0  0  0  0  0  0
   -4.0652   -2.0999   -2.0901 H   0  0  0  0  0  0  0  0  0  0  0  0
   -6.7899   -2.6012   -0.7311 H   0  0  0  0  0  0  0  0  0  0  0  0
   -5.7100   -3.8881   -1.3851 H   0  0  0  0  0  0  0  0  0  0  0  0
   -6.4774   -2.6952   -2.5108 H   0  0  0  0  0  0  0  0  0  0  0  0
   -6.3043   -0.3449   -0.8882 H   0  0  0  0  0  0  0  0  0  0  0  0
   -5.6466   -0.3848   -2.6059 H   0  0  0  0  0  0  0  0  0  0  0  0
   -2.3144    2.6899   -1.5811 H   0  0  0  0  0  0  0  0  0  0  0  0
   -3.1974    4.8092   -1.0866 H   0  0  0  0  0  0  0  0  0  0  0  0
   -4.6424    4.1825   -0.2589 H   0  0  0  0  0  0  0  0  0  0  0  0
   -2.9369    4.3394   -3.5225 H   0  0  0  0  0  0  0  0  0  0  0  0
   -4.0500    3.8194   -5.6671 H   0  0  0  0  0  0  0  0  0  0  0  0
   -6.3223    2.8367   -5.6866 H   0  0  0  0  0  0  0  0  0  0  0  0
   -7.4748    2.3490   -3.5412 H   0  0  0  0  0  0  0  0  0  0  0  0
   -6.3807    2.8859   -1.4079 H   0  0  0  0  0  0  0  0  0  0  0  0
    4.9169    2.0125   -2.0953 H   0  0  0  0  0  0  0  0  0  0  0  0
    6.5557    1.7183   -2.4590 H   0  0  0  0  0  0  0  0  0  0  0  0
    5.3811    4.0193   -1.1810 H   0  0  0  0  0  0  0  0  0  0  0  0
  1  2  1  0  0  0  0
  1 58  1  0  0  0  0
  1 59  1  0  0  0  0
  1 60  1  0  0  0  0
  2 61  1  0  0  0  0
  2 62  1  0  0  0  0
  3  2  1  0  0  0  0
  3  4  1  0  0  0  0
  3  7  1  0  0  0  0
  3 63  1  1  0  0  0
  4  5  1  0  0  0  0
  4 64  1  0  0  0  0
  4 65  1  0  0  0  0
  5  6  1  0  0  0  0
  5 66  1  0  0  0  0
  5 67  1  0  0  0  0
  6 68  1  0  0  0  0
  7  8  2  0  0  0  0
  7 56  1  0  0  0  0
  8  9  1  0  0  0  0
  8 69  1  0  0  0  0
  9 10  2  0  0  0  0
  9 11  1  0  0  0  0
 11 12  1  0  0  0  0
 11 70  1  0  0  0  0
 11 71  1  0  0  0  0
 12 13  1  0  0  0  0
 12 72  1  0  0  0  0
 12 73  1  0  0  0  0
 13 14  2  0  0  0  0
 14 15  1  0  0  0  0
 14 74  1  0  0  0  0
 15 16  1  0  0  0  0
 15 22  2  0  0  0  0
 16 17  1  0  0  0  0
 17 18  1  0  0  0  0
 17 75  1  0  0  0  0
 18 19  1  0  0  0  0
 18 76  1  0  0  0  0
 18 77  1  0  0  0  0
 19 20  1  0  0  0  0
 19 78  1  0  0  0  0
 19 79  1  0  0  0  0
 20 21  1  0  0  0  0
 20 80  1  0  0  0  0
 20 81  1  0  0  0  0
 21 17  1  0  0  0  0
 21 82  1  0  0  0  0
 21 83  1  0  0  0  0
 22 23  1  0  0  0  0
 22 24  1  0  0  0  0
 23 84  1  0  0  0  0
 24 25  2  0  0  0  0
 25 26  1  0  0  0  0
 25 13  1  0  0  0  0
 26 27  3  0  0  0  0
 28 27  1  0  0  0  0
 28 29  1  0  0  0  0
 28 85  1  1  0  0  0
 29 30  1  0  0  0  0
 29 34  1  0  0  0  0
 29 86  1  1  0  0  0
 30 31  2  0  0  0  0
 31 32  1  0  0  0  0
 31 33  1  0  0  0  0
 32 87  1  0  0  0  0
 32 88  1  0  0  0  0
 33 89  1  0  0  0  0
 33 90  1  0  0  0  0
 34 35  1  0  0  0  0
 34 91  1  0  0  0  0
 34 92  1  0  0  0  0
 35 36  1  0  0  0  0
 35 93  1  0  0  0  0
 35 94  1  0  0  0  0
 36 37  1  0  0  0  0
 36 40  1  0  0  0  0
 36 95  1  1  0  0  0
 37 38  1  0  0  0  0
 37 96  1  0  0  0  0
 37 97  1  0  0  0  0
 38 39  1  0  0  0  0
 39 98  1  0  0  0  0
 39 99  1  0  0  0  0
 39100  1  0  0  0  0
 40 41  1  0  0  0  0
 40 24  1  0  0  0  0
 40101  1  1  0  0  0
 41 42  1  0  0  0  0
 41102  1  0  0  0  0
 41103  1  0  0  0  0
 42 43  1  0  0  0  0
 42104  1  0  0  0  0
 42105  1  0  0  0  0
 43 44  1  0  0  0  0
 43 45  1  0  0  0  0
 43106  1  6  0  0  0
 44107  1  0  0  0  0
 44108  1  0  0  0  0
 44109  1  0  0  0  0
 45 46  1  0  0  0  0
 45110  1  0  0  0  0
 45111  1  0  0  0  0
 46 47  3  0  0  0  0
 47 48  1  0  0  0  0
 48 49  1  0  0  0  0
 48 28  1  0  0  0  0
 48112  1  6  0  0  0
 49 50  1  0  0  0  0
 49113  1  0  0  0  0
 49114  1  0  0  0  0
 50 51  2  0  0  0  0
 51 52  1  0  0  0  0
 51115  1  0  0  0  0
 52 53  2  0  0  0  0
 52116  1  0  0  0  0
 53 54  1  0  0  0  0
 53117  1  0  0  0  0
 54 55  2  0  0  0  0
 54118  1  0  0  0  0
 55 50  1  0  0  0  0
 55119  1  0  0  0  0
 56 57  1  0  0  0  0
 56120  1  0  0  0  0
 56121  1  0  0  0  0
 57122  1  0  0  0  0
M  END
>  <IDENTIFIER>
CNP0160661.2

>  <Energy>
1851.43

$$$$
