
 OpenBabel09102508013D

 76 79  0  0  0  0  0  0  0  0999 V2000
   -6.6885   -1.2935    1.3649 C   0  0  0  0  0  0  0  0  0  0  0  0
   -6.3350   -0.7440   -0.0549 C   0  0  0  0  0  0  0  0  0  0  0  0
   -7.1574   -1.5988   -1.0442 C   0  0  0  0  0  0  0  0  0  0  0  0
   -6.8507    0.7212   -0.1165 C   0  0  0  0  0  0  0  0  0  0  0  0
   -5.9694    1.6887    0.6406 C   0  0  0  0  0  0  0  0  0  0  0  0
   -6.2915    2.8653    0.6996 O   0  0  0  0  0  0  0  0  0  0  0  0
   -4.5881    1.2691    1.0917 C   0  0  0  0  0  0  0  0  0  0  0  0
   -3.9268    0.4769   -0.0633 C   0  0  1  0  0  0  0  0  0  0  0  0
   -3.8662    1.4074   -1.3301 C   0  0  0  0  0  0  0  0  0  0  0  0
   -2.4736    0.0510    0.2902 C   0  0  2  0  0  0  0  0  0  0  0  0
   -1.5007    1.2079    0.6901 C   0  0  0  0  0  0  0  0  0  0  0  0
   -0.0443    0.9923    0.2407 C   0  0  0  0  0  0  0  0  0  0  0  0
    0.4020   -0.4884    0.3215 C   0  0  2  0  0  0  0  0  0  0  0  0
    0.2580   -1.0529    1.7628 C   0  0  0  0  0  0  0  0  0  0  0  0
    1.9037   -0.6671   -0.1470 C   0  0  1  0  0  0  0  0  0  0  0  0
    2.0640   -0.2870   -1.4943 O   0  0  0  0  0  0  0  0  0  0  0  0
    2.9303    0.0724    0.7551 C   0  0  0  0  0  0  0  0  0  0  0  0
    4.2666   -0.1444    0.3387 O   0  0  0  0  0  0  0  0  0  0  0  0
    5.1504    0.6362    1.1466 C   0  0  2  0  0  0  0  0  0  0  0  0
    5.5989    1.7948    0.4434 O   0  0  0  0  0  0  0  0  0  0  0  0
    6.5634    1.5301   -0.5761 C   0  0  2  0  0  0  0  0  0  0  0  0
    5.9187    0.9600   -1.8616 C   0  0  0  0  0  0  0  0  0  0  0  0
    6.8732    0.8435   -2.8833 O   0  0  0  0  0  0  0  0  0  0  0  0
    7.7941    0.7275   -0.0395 C   0  0  1  0  0  0  0  0  0  0  0  0
    8.5605    1.4766    0.8832 O   0  0  0  0  0  0  0  0  0  0  0  0
    7.3299   -0.5734    0.6426 C   0  0  2  0  0  0  0  0  0  0  0  0
    6.7474   -1.4519   -0.2829 O   0  0  0  0  0  0  0  0  0  0  0  0
    6.3102   -0.2185    1.7324 C   0  0  1  0  0  0  0  0  0  0  0  0
    6.9640    0.4367    2.8009 O   0  0  0  0  0  0  0  0  0  0  0  0
   -0.5384   -1.2480   -0.6181 C   0  0  0  0  0  0  0  0  0  0  0  0
   -1.8722   -0.9806   -0.6716 C   0  0  0  0  0  0  0  0  0  0  0  0
   -2.7536   -1.8467   -1.5716 C   0  0  0  0  0  0  0  0  0  0  0  0
   -4.2646   -1.4943   -1.6251 C   0  0  0  0  0  0  0  0  0  0  0  0
   -4.7525   -0.8638   -0.2979 C   0  0  2  0  0  0  0  0  0  0  0  0
   -7.7835   -1.2399    1.5515 H   0  0  0  0  0  0  0  0  0  0  0  0
   -6.2032   -0.7441    2.1885 H   0  0  0  0  0  0  0  0  0  0  0  0
   -6.3910   -2.3606    1.4571 H   0  0  0  0  0  0  0  0  0  0  0  0
   -8.2458   -1.5124   -0.8313 H   0  0  0  0  0  0  0  0  0  0  0  0
   -6.8839   -2.6727   -0.9662 H   0  0  0  0  0  0  0  0  0  0  0  0
   -6.9932   -1.2567   -2.0878 H   0  0  0  0  0  0  0  0  0  0  0  0
   -7.8912    0.7704    0.2756 H   0  0  0  0  0  0  0  0  0  0  0  0
   -6.8983    1.0686   -1.1691 H   0  0  0  0  0  0  0  0  0  0  0  0
   -4.6246    0.6450    2.0024 H   0  0  0  0  0  0  0  0  0  0  0  0
   -4.0023    2.1752    1.3606 H   0  0  0  0  0  0  0  0  0  0  0  0
   -3.4028    2.3865   -1.1027 H   0  0  0  0  0  0  0  0  0  0  0  0
   -4.8614    1.6355   -1.7493 H   0  0  0  0  0  0  0  0  0  0  0  0
   -3.2596    0.9668   -2.1474 H   0  0  0  0  0  0  0  0  0  0  0  0
   -2.5781   -0.5525    1.2142 H   0  0  0  0  0  0  0  0  0  0  0  0
   -1.5494    1.3083    1.7972 H   0  0  0  0  0  0  0  0  0  0  0  0
   -1.7928    2.1973    0.2928 H   0  0  0  0  0  0  0  0  0  0  0  0
    0.5960    1.6851    0.8219 H   0  0  0  0  0  0  0  0  0  0  0  0
    0.0175    1.2961   -0.8286 H   0  0  0  0  0  0  0  0  0  0  0  0
    0.8302   -0.4561    2.4982 H   0  0  0  0  0  0  0  0  0  0  0  0
    0.6101   -2.1065    1.7950 H   0  0  0  0  0  0  0  0  0  0  0  0
   -0.7731   -1.0581    2.1440 H   0  0  0  0  0  0  0  0  0  0  0  0
    2.1551   -1.7501   -0.0893 H   0  0  0  0  0  0  0  0  0  0  0  0
    2.1212    0.7028   -1.5357 H   0  0  0  0  0  0  0  0  0  0  0  0
    2.8322   -0.3126    1.7903 H   0  0  0  0  0  0  0  0  0  0  0  0
    2.7111    1.1615    0.7244 H   0  0  0  0  0  0  0  0  0  0  0  0
    4.6349    1.0085    2.0677 H   0  0  0  0  0  0  0  0  0  0  0  0
    6.9611    2.5179   -0.8995 H   0  0  0  0  0  0  0  0  0  0  0  0
    5.0913    1.6270   -2.1947 H   0  0  0  0  0  0  0  0  0  0  0  0
    5.4625   -0.0332   -1.7160 H   0  0  0  0  0  0  0  0  0  0  0  0
    7.0305    1.7586   -3.2349 H   0  0  0  0  0  0  0  0  0  0  0  0
    8.4766    0.4928   -0.8843 H   0  0  0  0  0  0  0  0  0  0  0  0
    8.1721    2.3812    1.0076 H   0  0  0  0  0  0  0  0  0  0  0  0
    8.1929   -1.0950    1.1203 H   0  0  0  0  0  0  0  0  0  0  0  0
    7.4894   -1.8210   -0.8302 H   0  0  0  0  0  0  0  0  0  0  0  0
    5.8767   -1.1473    2.1636 H   0  0  0  0  0  0  0  0  0  0  0  0
    6.7997    1.4142    2.7547 H   0  0  0  0  0  0  0  0  0  0  0  0
   -0.1227   -1.9900   -1.2958 H   0  0  0  0  0  0  0  0  0  0  0  0
   -2.6655   -2.8681   -1.1396 H   0  0  0  0  0  0  0  0  0  0  0  0
   -2.3683   -1.8923   -2.6130 H   0  0  0  0  0  0  0  0  0  0  0  0
   -4.7974   -2.4323   -1.8840 H   0  0  0  0  0  0  0  0  0  0  0  0
   -4.4845   -0.7988   -2.4580 H   0  0  0  0  0  0  0  0  0  0  0  0
   -4.4398   -1.6161    0.4620 H   0  0  0  0  0  0  0  0  0  0  0  0
  1  2  1  0  0  0  0
  1 35  1  0  0  0  0
  1 36  1  0  0  0  0
  1 37  1  0  0  0  0
  2  3  1  0  0  0  0
  2  4  1  0  0  0  0
  3 38  1  0  0  0  0
  3 39  1  0  0  0  0
  3 40  1  0  0  0  0
  4  5  1  0  0  0  0
  4 41  1  0  0  0  0
  4 42  1  0  0  0  0
  5  6  2  0  0  0  0
  5  7  1  0  0  0  0
  7  8  1  0  0  0  0
  7 43  1  0  0  0  0
  7 44  1  0  0  0  0
  8  9  1  6  0  0  0
  8 10  1  0  0  0  0
  9 45  1  0  0  0  0
  9 46  1  0  0  0  0
  9 47  1  0  0  0  0
 10 11  1  0  0  0  0
 10 48  1  1  0  0  0
 11 12  1  0  0  0  0
 11 49  1  0  0  0  0
 11 50  1  0  0  0  0
 12 13  1  0  0  0  0
 12 51  1  0  0  0  0
 12 52  1  0  0  0  0
 13 14  1  1  0  0  0
 13 15  1  0  0  0  0
 13 30  1  0  0  0  0
 14 53  1  0  0  0  0
 14 54  1  0  0  0  0
 14 55  1  0  0  0  0
 15 16  1  0  0  0  0
 15 17  1  0  0  0  0
 15 56  1  1  0  0  0
 16 57  1  0  0  0  0
 17 18  1  0  0  0  0
 17 58  1  0  0  0  0
 17 59  1  0  0  0  0
 19 18  1  0  0  0  0
 19 20  1  0  0  0  0
 19 60  1  1  0  0  0
 20 21  1  0  0  0  0
 21 22  1  0  0  0  0
 21 24  1  0  0  0  0
 21 61  1  6  0  0  0
 22 23  1  0  0  0  0
 22 62  1  0  0  0  0
 22 63  1  0  0  0  0
 23 64  1  0  0  0  0
 24 25  1  0  0  0  0
 24 26  1  0  0  0  0
 24 65  1  6  0  0  0
 25 66  1  0  0  0  0
 26 27  1  0  0  0  0
 26 28  1  0  0  0  0
 26 67  1  1  0  0  0
 27 68  1  0  0  0  0
 28 29  1  0  0  0  0
 28 19  1  0  0  0  0
 28 69  1  1  0  0  0
 29 70  1  0  0  0  0
 30 31  2  0  0  0  0
 30 71  1  0  0  0  0
 31 32  1  0  0  0  0
 31 10  1  0  0  0  0
 32 33  1  0  0  0  0
 32 72  1  0  0  0  0
 32 73  1  0  0  0  0
 33 74  1  0  0  0  0
 33 75  1  0  0  0  0
 34 33  1  0  0  0  0
 34  2  1  0  0  0  0
 34  8  1  0  0  0  0
 34 76  1  1  0  0  0
M  END
>  <IDENTIFIER>
CNP0149838.1

>  <Energy>
939.678

$$$$
