
 OpenBabel09102517573D

 62 63  0  0  0  0  0  0  0  0999 V2000
    4.9617   -2.4843    2.5383 C   0  0  0  0  0  0  0  0  0  0  0  0
    4.7726   -1.1158    2.5200 O   0  0  0  0  0  0  0  0  0  0  0  0
    4.8012   -0.3239    1.4146 C   0  0  0  0  0  0  0  0  0  0  0  0
    3.7990    0.6571    1.2713 C   0  0  0  0  0  0  0  0  0  0  0  0
    2.7090    0.8036    2.3110 C   0  0  0  0  0  0  0  0  0  0  0  0
    1.7459   -0.3964    2.3055 C   0  0  0  0  0  0  0  0  0  0  0  0
    1.0318   -0.5174    0.9506 C   0  0  0  0  0  0  0  0  0  0  0  0
    0.0180   -1.6663    0.9478 C   0  0  0  0  0  0  0  0  0  0  0  0
   -0.7360   -1.7902   -0.3913 C   0  0  0  0  0  0  0  0  0  0  0  0
   -1.5143   -0.5306   -0.8267 C   0  0  0  0  0  0  0  0  0  0  0  0
   -2.5438   -0.0641    0.2191 C   0  0  0  0  0  0  0  0  0  0  0  0
   -3.3041    1.2065   -0.2044 C   0  0  0  0  0  0  0  0  0  0  0  0
   -4.1555    1.0634   -1.4808 C   0  0  0  0  0  0  0  0  0  0  0  0
   -5.1879   -0.0923   -1.5271 C   0  0  0  0  0  0  0  0  0  0  0  0
   -6.4837   -0.0342   -0.6522 C   0  0  0  0  0  0  0  0  0  0  0  0
   -6.2340   -0.1218    0.8674 C   0  0  0  0  0  0  0  0  0  0  0  0
   -7.2754    1.2493   -0.9522 C   0  0  0  0  0  0  0  0  0  0  0  0
   -7.3005   -1.1211   -1.0224 O   0  0  0  0  0  0  0  0  0  0  0  0
    3.7825    1.4633    0.1714 N   0  0  0  0  0  0  0  0  0  0  0  0
    4.7154    1.3603   -0.8133 C   0  0  0  0  0  0  0  0  0  0  0  0
    4.6432    2.1894   -1.9455 C   0  0  0  0  0  0  0  0  0  0  0  0
    5.6006    2.0902   -2.9559 C   0  0  0  0  0  0  0  0  0  0  0  0
    6.6442    1.1689   -2.8440 C   0  0  0  0  0  0  0  0  0  0  0  0
    6.7257    0.3330   -1.7276 C   0  0  0  0  0  0  0  0  0  0  0  0
    5.7568    0.4151   -0.7078 C   0  0  0  0  0  0  0  0  0  0  0  0
    5.7945   -0.4327    0.4176 C   0  0  0  0  0  0  0  0  0  0  0  0
    6.6971   -1.2497    0.5305 O   0  0  0  0  0  0  0  0  0  0  0  0
    4.8972   -2.8396    3.5867 H   0  0  0  0  0  0  0  0  0  0  0  0
    5.9422   -2.7878    2.1344 H   0  0  0  0  0  0  0  0  0  0  0  0
    4.1469   -2.9703    1.9572 H   0  0  0  0  0  0  0  0  0  0  0  0
    2.1056    1.7145    2.1083 H   0  0  0  0  0  0  0  0  0  0  0  0
    3.1698    0.9344    3.3140 H   0  0  0  0  0  0  0  0  0  0  0  0
    0.9865   -0.2330    3.1006 H   0  0  0  0  0  0  0  0  0  0  0  0
    2.2810   -1.3397    2.5368 H   0  0  0  0  0  0  0  0  0  0  0  0
    1.7717   -0.6911    0.1390 H   0  0  0  0  0  0  0  0  0  0  0  0
    0.5097    0.4432    0.7621 H   0  0  0  0  0  0  0  0  0  0  0  0
   -0.7094   -1.5255    1.7741 H   0  0  0  0  0  0  0  0  0  0  0  0
    0.5523   -2.6231    1.1368 H   0  0  0  0  0  0  0  0  0  0  0  0
   -1.4479   -2.6396   -0.3068 H   0  0  0  0  0  0  0  0  0  0  0  0
   -0.0075   -2.0385   -1.1945 H   0  0  0  0  0  0  0  0  0  0  0  0
   -2.0278   -0.7790   -1.7786 H   0  0  0  0  0  0  0  0  0  0  0  0
   -0.8059    0.2974   -1.0393 H   0  0  0  0  0  0  0  0  0  0  0  0
   -2.0137    0.1897    1.1600 H   0  0  0  0  0  0  0  0  0  0  0  0
   -3.2551   -0.8849    0.4435 H   0  0  0  0  0  0  0  0  0  0  0  0
   -2.5673    2.0229   -0.3703 H   0  0  0  0  0  0  0  0  0  0  0  0
   -3.9275    1.5437    0.6365 H   0  0  0  0  0  0  0  0  0  0  0  0
   -3.4491    0.8924   -2.3200 H   0  0  0  0  0  0  0  0  0  0  0  0
   -4.6545    2.0303   -1.6979 H   0  0  0  0  0  0  0  0  0  0  0  0
   -4.6641   -1.0557   -1.3541 H   0  0  0  0  0  0  0  0  0  0  0  0
   -5.5406   -0.1230   -2.5823 H   0  0  0  0  0  0  0  0  0  0  0  0
   -5.7408    0.7750    1.2712 H   0  0  0  0  0  0  0  0  0  0  0  0
   -5.6367   -1.0236    1.1172 H   0  0  0  0  0  0  0  0  0  0  0  0
   -7.2062   -0.1968    1.4006 H   0  0  0  0  0  0  0  0  0  0  0  0
   -6.7055    2.1531   -0.6517 H   0  0  0  0  0  0  0  0  0  0  0  0
   -8.2362    1.2492   -0.3935 H   0  0  0  0  0  0  0  0  0  0  0  0
   -7.5085    1.3158   -2.0368 H   0  0  0  0  0  0  0  0  0  0  0  0
   -6.8153   -1.9607   -0.8039 H   0  0  0  0  0  0  0  0  0  0  0  0
    3.0184    2.1706    0.0717 H   0  0  0  0  0  0  0  0  0  0  0  0
    3.8410    2.9110   -2.0469 H   0  0  0  0  0  0  0  0  0  0  0  0
    5.5372    2.7302   -3.8259 H   0  0  0  0  0  0  0  0  0  0  0  0
    7.3882    1.0993   -3.6269 H   0  0  0  0  0  0  0  0  0  0  0  0
    7.5422   -0.3773   -1.6691 H   0  0  0  0  0  0  0  0  0  0  0  0
  1  2  1  0  0  0  0
  1 28  1  0  0  0  0
  1 29  1  0  0  0  0
  1 30  1  0  0  0  0
  2  3  1  0  0  0  0
  3  4  2  0  0  0  0
  4  5  1  0  0  0  0
  4 19  1  0  0  0  0
  5  6  1  0  0  0  0
  5 31  1  0  0  0  0
  5 32  1  0  0  0  0
  6  7  1  0  0  0  0
  6 33  1  0  0  0  0
  6 34  1  0  0  0  0
  7  8  1  0  0  0  0
  7 35  1  0  0  0  0
  7 36  1  0  0  0  0
  8  9  1  0  0  0  0
  8 37  1  0  0  0  0
  8 38  1  0  0  0  0
  9 10  1  0  0  0  0
  9 39  1  0  0  0  0
  9 40  1  0  0  0  0
 10 11  1  0  0  0  0
 10 41  1  0  0  0  0
 10 42  1  0  0  0  0
 11 12  1  0  0  0  0
 11 43  1  0  0  0  0
 11 44  1  0  0  0  0
 12 13  1  0  0  0  0
 12 45  1  0  0  0  0
 12 46  1  0  0  0  0
 13 14  1  0  0  0  0
 13 47  1  0  0  0  0
 13 48  1  0  0  0  0
 14 15  1  0  0  0  0
 14 49  1  0  0  0  0
 14 50  1  0  0  0  0
 15 16  1  0  0  0  0
 15 17  1  0  0  0  0
 15 18  1  0  0  0  0
 16 51  1  0  0  0  0
 16 52  1  0  0  0  0
 16 53  1  0  0  0  0
 17 54  1  0  0  0  0
 17 55  1  0  0  0  0
 17 56  1  0  0  0  0
 18 57  1  0  0  0  0
 19 20  1  0  0  0  0
 19 58  1  0  0  0  0
 20 21  2  0  0  0  0
 21 22  1  0  0  0  0
 21 59  1  0  0  0  0
 22 23  2  0  0  0  0
 22 60  1  0  0  0  0
 23 24  1  0  0  0  0
 23 61  1  0  0  0  0
 24 25  2  0  0  0  0
 24 62  1  0  0  0  0
 25 26  1  0  0  0  0
 25 20  1  0  0  0  0
 26 27  2  0  0  0  0
 26  3  1  0  0  0  0
M  END
>  <IDENTIFIER>
CNP0116712.0

>  <Energy>
314.601

$$$$
