
 OpenBabel09052513483D

 73 76  0  0  0  0  0  0  0  0999 V2000
   -1.7308    3.3819    0.6285 C   0  0  0  0  0  0  0  0  0  0  0  0
   -2.0885    2.2801   -0.0523 C   0  0  0  0  0  0  0  0  0  0  0  0
   -1.5185    1.9882   -1.4302 C   0  0  0  0  0  0  0  0  0  0  0  0
   -0.9056    0.5641   -1.4807 C   0  0  0  0  0  0  0  0  0  0  0  0
   -0.7185   -0.0009   -0.0452 C   0  0  1  0  0  0  0  0  0  0  0  0
   -2.1603   -0.1823    0.6339 C   0  0  1  0  0  0  0  0  0  0  0  0
   -3.0408   -1.3136    0.0076 C   0  0  0  0  0  0  0  0  0  0  0  0
   -1.8896   -0.5718    2.1163 C   0  0  0  0  0  0  0  0  0  0  0  0
   -0.9828   -1.8179    2.2507 C   0  0  0  0  0  0  0  0  0  0  0  0
    0.3915   -1.5576    1.6161 C   0  0  0  0  0  0  0  0  0  0  0  0
    0.3358   -1.1705    0.1082 C   0  0  1  0  0  0  0  0  0  0  0  0
    0.0730   -2.3991   -0.7933 C   0  0  0  0  0  0  0  0  0  0  0  0
    1.7443   -0.6641   -0.2416 C   0  0  0  0  0  0  0  0  0  0  0  0
    1.9179    0.4868   -0.6201 O   0  0  0  0  0  0  0  0  0  0  0  0
    2.8173   -1.4792   -0.0403 O   0  0  0  0  0  0  0  0  0  0  0  0
    4.1405   -1.0614   -0.0554 C   0  0  1  0  0  0  0  0  0  0  0  0
    4.6564   -1.2836    1.2519 O   0  0  0  0  0  0  0  0  0  0  0  0
    6.0494   -1.0357    1.3832 C   0  0  2  0  0  0  0  0  0  0  0  0
    6.3380    0.4812    1.4385 C   0  0  0  0  0  0  0  0  0  0  0  0
    7.6810    0.7258    1.7599 O   0  0  0  0  0  0  0  0  0  0  0  0
    6.9105   -1.8829    0.3809 C   0  0  2  0  0  0  0  0  0  0  0  0
    7.8352   -1.0953   -0.3349 O   0  0  0  0  0  0  0  0  0  0  0  0
    6.0169   -2.7252   -0.5702 C   0  0  1  0  0  0  0  0  0  0  0  0
    5.4208   -3.8272    0.0834 O   0  0  0  0  0  0  0  0  0  0  0  0
    4.9375   -1.8072   -1.1687 C   0  0  1  0  0  0  0  0  0  0  0  0
    4.1058   -2.4784   -2.0850 O   0  0  0  0  0  0  0  0  0  0  0  0
   -2.9720    1.2199    0.5781 C   0  0  2  0  0  0  0  0  0  0  0  0
   -4.3370    1.2190   -0.1760 C   0  0  0  0  0  0  0  0  0  0  0  0
   -5.0359    2.5921   -0.1413 C   0  0  0  0  0  0  0  0  0  0  0  0
   -6.3450    2.5496   -0.8817 C   0  0  0  0  0  0  0  0  0  0  0  0
   -6.6542    3.2553   -1.9579 C   0  0  0  0  0  0  0  0  0  0  0  0
   -8.0555    2.9217   -2.3894 C   0  0  0  0  0  0  0  0  0  0  0  0
   -8.4897    1.9862   -1.4669 O   0  0  0  0  0  0  0  0  0  0  0  0
   -7.5124    1.7517   -0.5761 C   0  0  0  0  0  0  0  0  0  0  0  0
   -7.6228    0.9769    0.3602 O   0  0  0  0  0  0  0  0  0  0  0  0
   -1.0610    4.1164    0.1923 H   0  0  0  0  0  0  0  0  0  0  0  0
   -2.1022    3.5649    1.6317 H   0  0  0  0  0  0  0  0  0  0  0  0
   -0.7253    2.7370   -1.6490 H   0  0  0  0  0  0  0  0  0  0  0  0
   -2.2838    2.0814   -2.2296 H   0  0  0  0  0  0  0  0  0  0  0  0
    0.0218    0.6154   -2.0851 H   0  0  0  0  0  0  0  0  0  0  0  0
   -1.5713   -0.1238   -2.0379 H   0  0  0  0  0  0  0  0  0  0  0  0
   -0.2201    0.8050    0.5455 H   0  0  0  0  0  0  0  0  0  0  0  0
   -2.6375   -2.3222    0.0815 H   0  0  0  0  0  0  0  0  0  0  0  0
   -3.2674   -1.1352   -1.0602 H   0  0  0  0  0  0  0  0  0  0  0  0
   -3.9994   -1.3999    0.5583 H   0  0  0  0  0  0  0  0  0  0  0  0
   -2.8508   -0.7520    2.6460 H   0  0  0  0  0  0  0  0  0  0  0  0
   -1.3826    0.2744    2.6327 H   0  0  0  0  0  0  0  0  0  0  0  0
   -1.4465   -2.7211    1.8122 H   0  0  0  0  0  0  0  0  0  0  0  0
   -0.8347   -2.0321    3.3312 H   0  0  0  0  0  0  0  0  0  0  0  0
    1.0544   -2.4378    1.7700 H   0  0  0  0  0  0  0  0  0  0  0  0
    0.8363   -0.7099    2.1857 H   0  0  0  0  0  0  0  0  0  0  0  0
    0.8918   -3.1415   -0.6745 H   0  0  0  0  0  0  0  0  0  0  0  0
    0.0444   -2.0987   -1.8622 H   0  0  0  0  0  0  0  0  0  0  0  0
   -0.8367   -2.9573   -0.5624 H   0  0  0  0  0  0  0  0  0  0  0  0
    4.1821    0.0273   -0.2764 H   0  0  0  0  0  0  0  0  0  0  0  0
    6.3152   -1.4123    2.3956 H   0  0  0  0  0  0  0  0  0  0  0  0
    5.6752    0.9633    2.1945 H   0  0  0  0  0  0  0  0  0  0  0  0
    6.1105    0.9719    0.4708 H   0  0  0  0  0  0  0  0  0  0  0  0
    7.7607    0.6268    2.7445 H   0  0  0  0  0  0  0  0  0  0  0  0
    7.5308   -2.6056    0.9564 H   0  0  0  0  0  0  0  0  0  0  0  0
    7.3432   -0.4394   -0.8878 H   0  0  0  0  0  0  0  0  0  0  0  0
    6.6605   -3.1471   -1.3727 H   0  0  0  0  0  0  0  0  0  0  0  0
    5.2661   -3.6160    1.0386 H   0  0  0  0  0  0  0  0  0  0  0  0
    5.4683   -1.0315   -1.7572 H   0  0  0  0  0  0  0  0  0  0  0  0
    3.6803   -3.2385   -1.6086 H   0  0  0  0  0  0  0  0  0  0  0  0
   -3.2288    1.5207    1.6198 H   0  0  0  0  0  0  0  0  0  0  0  0
   -5.0229    0.4938    0.3051 H   0  0  0  0  0  0  0  0  0  0  0  0
   -4.1889    0.9300   -1.2388 H   0  0  0  0  0  0  0  0  0  0  0  0
   -4.3866    3.3558   -0.6194 H   0  0  0  0  0  0  0  0  0  0  0  0
   -5.2235    2.8995    0.9098 H   0  0  0  0  0  0  0  0  0  0  0  0
   -5.9962    3.9595   -2.4502 H   0  0  0  0  0  0  0  0  0  0  0  0
   -8.0554    2.4860   -3.4108 H   0  0  0  0  0  0  0  0  0  0  0  0
   -8.6992    3.8257   -2.3553 H   0  0  0  0  0  0  0  0  0  0  0  0
  1  2  2  0  0  0  0
  1 36  1  0  0  0  0
  1 37  1  0  0  0  0
  2  3  1  0  0  0  0
  3  4  1  0  0  0  0
  3 38  1  0  0  0  0
  3 39  1  0  0  0  0
  4 40  1  0  0  0  0
  4 41  1  0  0  0  0
  5  4  1  0  0  0  0
  5  6  1  0  0  0  0
  5 42  1  1  0  0  0
  6  7  1  6  0  0  0
  6  8  1  0  0  0  0
  6 27  1  0  0  0  0
  7 43  1  0  0  0  0
  7 44  1  0  0  0  0
  7 45  1  0  0  0  0
  8  9  1  0  0  0  0
  8 46  1  0  0  0  0
  8 47  1  0  0  0  0
  9 10  1  0  0  0  0
  9 48  1  0  0  0  0
  9 49  1  0  0  0  0
 10 11  1  0  0  0  0
 10 50  1  0  0  0  0
 10 51  1  0  0  0  0
 11 12  1  0  0  0  0
 11 13  1  6  0  0  0
 11  5  1  0  0  0  0
 12 52  1  0  0  0  0
 12 53  1  0  0  0  0
 12 54  1  0  0  0  0
 13 14  2  0  0  0  0
 13 15  1  0  0  0  0
 16 15  1  0  0  0  0
 16 17  1  0  0  0  0
 16 55  1  6  0  0  0
 17 18  1  0  0  0  0
 18 19  1  0  0  0  0
 18 21  1  0  0  0  0
 18 56  1  1  0  0  0
 19 20  1  0  0  0  0
 19 57  1  0  0  0  0
 19 58  1  0  0  0  0
 20 59  1  0  0  0  0
 21 22  1  0  0  0  0
 21 23  1  0  0  0  0
 21 60  1  1  0  0  0
 22 61  1  0  0  0  0
 23 24  1  0  0  0  0
 23 25  1  0  0  0  0
 23 62  1  6  0  0  0
 24 63  1  0  0  0  0
 25 26  1  0  0  0  0
 25 16  1  0  0  0  0
 25 64  1  6  0  0  0
 26 65  1  0  0  0  0
 27 28  1  0  0  0  0
 27  2  1  0  0  0  0
 27 66  1  1  0  0  0
 28 29  1  0  0  0  0
 28 67  1  0  0  0  0
 28 68  1  0  0  0  0
 29 30  1  0  0  0  0
 29 69  1  0  0  0  0
 29 70  1  0  0  0  0
 30 31  2  0  0  0  0
 31 32  1  0  0  0  0
 31 71  1  0  0  0  0
 32 33  1  0  0  0  0
 32 72  1  0  0  0  0
 32 73  1  0  0  0  0
 33 34  1  0  0  0  0
 34 35  2  0  0  0  0
 34 30  1  0  0  0  0
M  END
>  <IDENTIFIER>
CNP0295361.7

>  <Energy>
979.565

$$$$
