
 OpenBabel09052502373D

161170  0  0  0  0  0  0  0  0999 V2000
   12.3770    3.3841    0.9578 C   0  0  0  0  0  0  0  0  0  0  0  0
   12.5087    2.0674    0.2646 C   0  0  0  0  0  0  0  0  0  0  0  0
   13.0125    2.0155   -0.8485 O   0  0  0  0  0  0  0  0  0  0  0  0
   12.0405    0.9497    0.8794 O   0  0  0  0  0  0  0  0  0  0  0  0
   12.0324   -0.3283    0.3394 C   0  0  1  0  0  0  0  0  0  0  0  0
   12.7935   -1.2922    1.2384 C   0  0  0  0  0  0  0  0  0  0  0  0
   12.8925   -2.6785    0.5488 C   0  0  1  0  0  0  0  0  0  0  0  0
   13.0050   -3.7765    1.6163 C   0  0  0  0  0  0  0  0  0  0  0  0
   11.7079   -2.9240   -0.4322 C   0  0  0  0  0  0  0  0  0  0  0  0
   10.4629   -2.3270    0.0585 N   0  0  0  0  0  0  0  0  0  0  0  0
   10.5521   -0.8374    0.2194 C   0  0  1  0  0  0  0  0  0  0  0  0
    9.8236   -0.4707    1.3927 O   0  0  0  0  0  0  0  0  0  0  0  0
    8.4723   -0.5358    0.9888 C   0  0  1  0  0  0  0  0  0  0  0  0
    7.4864    0.3835    1.7381 C   0  0  0  0  0  0  0  0  0  0  0  0
    6.5220    0.7366    0.6000 C   0  0  1  0  0  0  0  0  0  0  0  0
    5.3875    1.7642    0.8077 C   0  0  2  0  0  0  0  0  0  0  0  0
    4.4707    1.2949    1.9716 C   0  0  0  0  0  0  0  0  0  0  0  0
    3.1456    2.0779    2.0662 C   0  0  0  0  0  0  0  0  0  0  0  0
    2.4740    1.9848    0.6908 C   0  0  1  0  0  0  0  0  0  0  0  0
    0.9958    2.3261    0.5899 C   0  0  0  0  0  0  0  0  0  0  0  0
    0.4679    1.6894   -0.7395 C   0  0  1  0  0  0  0  0  0  0  0  0
   -0.7181    2.3663   -1.1177 O   0  0  0  0  0  0  0  0  0  0  0  0
   -1.8547    1.5419   -0.9401 C   0  0  2  0  0  0  0  0  0  0  0  0
   -2.0861    0.7732   -2.1078 O   0  0  0  0  0  0  0  0  0  0  0  0
   -3.0674   -0.2536   -1.8936 C   0  0  2  0  0  0  0  0  0  0  0  0
   -3.6589   -0.6163   -3.2750 C   0  0  0  0  0  0  0  0  0  0  0  0
   -4.5247   -1.7176   -3.1933 O   0  0  0  0  0  0  0  0  0  0  0  0
   -4.1504    0.1474   -0.8170 C   0  0  2  0  0  0  0  0  0  0  0  0
   -5.3607   -0.5831   -0.9657 O   0  0  0  0  0  0  0  0  0  0  0  0
   -5.7077   -1.3329    0.1833 C   0  0  2  0  0  0  0  0  0  0  0  0
   -5.3656   -2.6895   -0.0158 O   0  0  0  0  0  0  0  0  0  0  0  0
   -5.4694   -3.4458    1.1967 C   0  0  2  0  0  0  0  0  0  0  0  0
   -5.6343   -4.9280    0.8198 C   0  0  0  0  0  0  0  0  0  0  0  0
   -4.5258   -5.3730    0.0829 O   0  0  0  0  0  0  0  0  0  0  0  0
   -6.6200   -2.9583    2.1543 C   0  0  1  0  0  0  0  0  0  0  0  0
   -6.0904   -1.9815    3.0246 O   0  0  0  0  0  0  0  0  0  0  0  0
   -7.7672   -2.3628    1.2980 C   0  0  2  0  0  0  0  0  0  0  0  0
   -8.2867   -3.3735    0.4321 O   0  0  0  0  0  0  0  0  0  0  0  0
   -9.6405   -3.7301    0.7049 C   0  0  2  0  0  0  0  0  0  0  0  0
   -9.6243   -5.0302    1.3107 O   0  0  0  0  0  0  0  0  0  0  0  0
  -10.7833   -5.7740    1.0012 C   0  0  0  0  0  0  0  0  0  0  0  0
  -10.8211   -6.1470   -0.5033 C   0  0  1  0  0  0  0  0  0  0  0  0
  -12.1275   -6.5269   -0.8625 O   0  0  0  0  0  0  0  0  0  0  0  0
  -10.2844   -4.9764   -1.3929 C   0  0  2  0  0  0  0  0  0  0  0  0
   -8.9277   -5.1555   -1.7363 O   0  0  0  0  0  0  0  0  0  0  0  0
  -10.4488   -3.6451   -0.6416 C   0  0  1  0  0  0  0  0  0  0  0  0
  -11.8179   -3.4339   -0.3972 O   0  0  0  0  0  0  0  0  0  0  0  0
   -7.2259   -1.1844    0.4380 C   0  0  1  0  0  0  0  0  0  0  0  0
   -7.4232    0.0558    1.1176 O   0  0  0  0  0  0  0  0  0  0  0  0
   -8.3495    0.9280    0.4819 C   0  0  2  0  0  0  0  0  0  0  0  0
   -7.6377    2.1311    0.1686 O   0  0  0  0  0  0  0  0  0  0  0  0
   -8.5149    3.2059   -0.0954 C   0  0  2  0  0  0  0  0  0  0  0  0
   -7.7326    4.3535   -0.7463 C   0  0  0  0  0  0  0  0  0  0  0  0
   -8.5847    5.4119   -1.0918 O   0  0  0  0  0  0  0  0  0  0  0  0
   -9.2184    3.6674    1.2176 C   0  0  1  0  0  0  0  0  0  0  0  0
  -10.4525    4.2772    0.9206 O   0  0  0  0  0  0  0  0  0  0  0  0
   -9.3636    2.4823    2.2249 C   0  0  2  0  0  0  0  0  0  0  0  0
   -8.2282    2.3635    3.0575 O   0  0  0  0  0  0  0  0  0  0  0  0
   -9.5623    1.1605    1.4646 C   0  0  1  0  0  0  0  0  0  0  0  0
  -10.8185    1.1620    0.8216 O   0  0  0  0  0  0  0  0  0  0  0  0
   -4.4153    1.6586   -0.8859 C   0  0  2  0  0  0  0  0  0  0  0  0
   -4.9883    1.9933   -2.1304 O   0  0  0  0  0  0  0  0  0  0  0  0
   -3.0814    2.4287   -0.6169 C   0  0  1  0  0  0  0  0  0  0  0  0
   -2.9963    2.8652    0.7189 O   0  0  0  0  0  0  0  0  0  0  0  0
    1.4995    1.7048   -1.9063 C   0  0  0  0  0  0  0  0  0  0  0  0
    2.4448    2.8803   -1.7409 C   0  0  0  0  0  0  0  0  0  0  0  0
    3.3091    2.7488   -0.4201 C   0  0  1  0  0  0  0  0  0  0  0  0
    3.6693    4.2176   -0.0397 C   0  0  0  0  0  0  0  0  0  0  0  0
    4.6037    1.8690   -0.5668 C   0  0  1  0  0  0  0  0  0  0  0  0
    5.5671    2.2937   -1.7146 C   0  0  0  0  0  0  0  0  0  0  0  0
    6.7061    1.2627   -1.8617 C   0  0  0  0  0  0  0  0  0  0  0  0
    7.4886    1.1109   -0.5431 C   0  0  1  0  0  0  0  0  0  0  0  0
    8.2789    2.4416   -0.2662 C   0  0  0  0  0  0  0  0  0  0  0  0
    8.3919   -0.1558   -0.4961 C   0  0  1  0  0  0  0  0  0  0  0  0
    9.8390   -0.0856   -0.9271 C   0  0  2  0  0  0  0  0  0  0  0  0
   10.0745   -0.5850   -2.3577 C   0  0  0  0  0  0  0  0  0  0  0  0
   12.7895    4.2027    0.3301 H   0  0  0  0  0  0  0  0  0  0  0  0
   12.9278    3.3524    1.9203 H   0  0  0  0  0  0  0  0  0  0  0  0
   11.3043    3.5903    1.1562 H   0  0  0  0  0  0  0  0  0  0  0  0
   12.5373   -0.3414   -0.6541 H   0  0  0  0  0  0  0  0  0  0  0  0
   12.2116   -1.3580    2.1869 H   0  0  0  0  0  0  0  0  0  0  0  0
   13.8142   -0.9364    1.4964 H   0  0  0  0  0  0  0  0  0  0  0  0
   13.8073   -2.7283   -0.0757 H   0  0  0  0  0  0  0  0  0  0  0  0
   12.1005   -3.8031    2.2621 H   0  0  0  0  0  0  0  0  0  0  0  0
   13.8956   -3.5936    2.2560 H   0  0  0  0  0  0  0  0  0  0  0  0
   13.1252   -4.7703    1.1337 H   0  0  0  0  0  0  0  0  0  0  0  0
   11.5850   -4.0058   -0.6572 H   0  0  0  0  0  0  0  0  0  0  0  0
   11.9501   -2.4445   -1.4026 H   0  0  0  0  0  0  0  0  0  0  0  0
   10.2513   -2.7802    0.9800 H   0  0  0  0  0  0  0  0  0  0  0  0
    8.1035   -1.5849    1.0980 H   0  0  0  0  0  0  0  0  0  0  0  0
    7.9824    1.3007    2.1064 H   0  0  0  0  0  0  0  0  0  0  0  0
    7.0224   -0.1103    2.6187 H   0  0  0  0  0  0  0  0  0  0  0  0
    6.0023   -0.2187    0.3248 H   0  0  0  0  0  0  0  0  0  0  0  0
    5.8052    2.7512    1.0846 H   0  0  0  0  0  0  0  0  0  0  0  0
    5.0119    1.3420    2.9409 H   0  0  0  0  0  0  0  0  0  0  0  0
    4.2024    0.2289    1.7960 H   0  0  0  0  0  0  0  0  0  0  0  0
    3.2875    3.1272    2.3918 H   0  0  0  0  0  0  0  0  0  0  0  0
    2.5133    1.5813    2.8340 H   0  0  0  0  0  0  0  0  0  0  0  0
    2.4571    0.8869    0.4840 H   0  0  0  0  0  0  0  0  0  0  0  0
    0.8882    3.4317    0.5985 H   0  0  0  0  0  0  0  0  0  0  0  0
    0.3977    1.9150    1.4315 H   0  0  0  0  0  0  0  0  0  0  0  0
    0.3178    0.5907   -0.5876 H   0  0  0  0  0  0  0  0  0  0  0  0
   -1.7121    0.8530   -0.0690 H   0  0  0  0  0  0  0  0  0  0  0  0
   -2.5594   -1.1800   -1.5435 H   0  0  0  0  0  0  0  0  0  0  0  0
   -2.8308   -0.8546   -3.9823 H   0  0  0  0  0  0  0  0  0  0  0  0
   -4.2064    0.2287   -3.7306 H   0  0  0  0  0  0  0  0  0  0  0  0
   -3.9538   -2.5273   -3.1265 H   0  0  0  0  0  0  0  0  0  0  0  0
   -3.6641   -0.0170    0.1715 H   0  0  0  0  0  0  0  0  0  0  0  0
   -5.1936   -0.9671    1.1030 H   0  0  0  0  0  0  0  0  0  0  0  0
   -4.5058   -3.4040    1.7559 H   0  0  0  0  0  0  0  0  0  0  0  0
   -6.5662   -5.1182    0.2529 H   0  0  0  0  0  0  0  0  0  0  0  0
   -5.6897   -5.5419    1.7447 H   0  0  0  0  0  0  0  0  0  0  0  0
   -4.6583   -5.0674   -0.8520 H   0  0  0  0  0  0  0  0  0  0  0  0
   -6.9748   -3.7963    2.7925 H   0  0  0  0  0  0  0  0  0  0  0  0
   -6.8364   -1.4503    3.4049 H   0  0  0  0  0  0  0  0  0  0  0  0
   -8.5389   -1.9419    1.9780 H   0  0  0  0  0  0  0  0  0  0  0  0
  -10.1433   -3.0205    1.3970 H   0  0  0  0  0  0  0  0  0  0  0  0
  -11.6733   -5.1759    1.2998 H   0  0  0  0  0  0  0  0  0  0  0  0
  -10.8370   -6.6935    1.6205 H   0  0  0  0  0  0  0  0  0  0  0  0
  -10.1746   -7.0300   -0.6979 H   0  0  0  0  0  0  0  0  0  0  0  0
  -12.7155   -5.7332   -0.7726 H   0  0  0  0  0  0  0  0  0  0  0  0
  -10.8419   -4.9755   -2.3551 H   0  0  0  0  0  0  0  0  0  0  0  0
   -8.4558   -5.5972   -0.9853 H   0  0  0  0  0  0  0  0  0  0  0  0
  -10.0837   -2.7947   -1.2635 H   0  0  0  0  0  0  0  0  0  0  0  0
  -11.9079   -2.5265   -0.0053 H   0  0  0  0  0  0  0  0  0  0  0  0
   -7.7472   -1.2629   -0.5425 H   0  0  0  0  0  0  0  0  0  0  0  0
   -8.7427    0.5050   -0.4662 H   0  0  0  0  0  0  0  0  0  0  0  0
   -9.2585    2.8622   -0.8488 H   0  0  0  0  0  0  0  0  0  0  0  0
   -7.1874    3.9889   -1.6471 H   0  0  0  0  0  0  0  0  0  0  0  0
   -6.9600    4.7320   -0.0420 H   0  0  0  0  0  0  0  0  0  0  0  0
   -8.9992    5.1683   -1.9605 H   0  0  0  0  0  0  0  0  0  0  0  0
   -8.6160    4.4363    1.7500 H   0  0  0  0  0  0  0  0  0  0  0  0
  -11.0388    3.6041    0.4913 H   0  0  0  0  0  0  0  0  0  0  0  0
  -10.2150    2.6960    2.9076 H   0  0  0  0  0  0  0  0  0  0  0  0
   -7.4168    2.6625    2.5719 H   0  0  0  0  0  0  0  0  0  0  0  0
   -9.6059    0.3118    2.1818 H   0  0  0  0  0  0  0  0  0  0  0  0
  -10.7159    1.3545   -0.1423 H   0  0  0  0  0  0  0  0  0  0  0  0
   -5.1474    1.9701   -0.1140 H   0  0  0  0  0  0  0  0  0  0  0  0
   -4.2706    2.2433   -2.7680 H   0  0  0  0  0  0  0  0  0  0  0  0
   -3.0909    3.3432   -1.2484 H   0  0  0  0  0  0  0  0  0  0  0  0
   -3.1262    2.0755    1.3079 H   0  0  0  0  0  0  0  0  0  0  0  0
    0.9667    1.7045   -2.8816 H   0  0  0  0  0  0  0  0  0  0  0  0
    2.1343    0.7916   -1.8854 H   0  0  0  0  0  0  0  0  0  0  0  0
    1.7722    3.7670   -1.6890 H   0  0  0  0  0  0  0  0  0  0  0  0
    3.0672    3.0504   -2.6368 H   0  0  0  0  0  0  0  0  0  0  0  0
    4.2223    4.7102   -0.8667 H   0  0  0  0  0  0  0  0  0  0  0  0
    4.2959    4.3113    0.8644 H   0  0  0  0  0  0  0  0  0  0  0  0
    2.7510    4.8137    0.1468 H   0  0  0  0  0  0  0  0  0  0  0  0
    4.2566    0.8474   -0.8428 H   0  0  0  0  0  0  0  0  0  0  0  0
    5.9680    3.3101   -1.5326 H   0  0  0  0  0  0  0  0  0  0  0  0
    5.0478    2.3141   -2.6899 H   0  0  0  0  0  0  0  0  0  0  0  0
    7.3891    1.5474   -2.6911 H   0  0  0  0  0  0  0  0  0  0  0  0
    6.2415    0.2885   -2.1310 H   0  0  0  0  0  0  0  0  0  0  0  0
    8.9046    2.7061   -1.1441 H   0  0  0  0  0  0  0  0  0  0  0  0
    8.9679    2.3793    0.5977 H   0  0  0  0  0  0  0  0  0  0  0  0
    7.6180    3.3093   -0.0888 H   0  0  0  0  0  0  0  0  0  0  0  0
    7.8679   -1.0226   -0.9690 H   0  0  0  0  0  0  0  0  0  0  0  0
   10.1851    0.9580   -0.8609 H   0  0  0  0  0  0  0  0  0  0  0  0
    9.7434   -1.6411   -2.4621 H   0  0  0  0  0  0  0  0  0  0  0  0
   11.1478   -0.5138   -2.6250 H   0  0  0  0  0  0  0  0  0  0  0  0
    9.4921    0.0337   -3.0725 H   0  0  0  0  0  0  0  0  0  0  0  0
  1  2  1  0  0  0  0
  1 77  1  0  0  0  0
  1 78  1  0  0  0  0
  1 79  1  0  0  0  0
  2  3  2  0  0  0  0
  2  4  1  0  0  0  0
  5  4  1  0  0  0  0
  5  6  1  0  0  0  0
  5 80  1  6  0  0  0
  6  7  1  0  0  0  0
  6 81  1  0  0  0  0
  6 82  1  0  0  0  0
  7  8  1  0  0  0  0
  7  9  1  0  0  0  0
  7 83  1  6  0  0  0
  8 84  1  0  0  0  0
  8 85  1  0  0  0  0
  8 86  1  0  0  0  0
  9 10  1  0  0  0  0
  9 87  1  0  0  0  0
  9 88  1  0  0  0  0
 10 89  1  0  0  0  0
 11 10  1  0  0  0  0
 11 12  1  1  0  0  0
 11  5  1  0  0  0  0
 12 13  1  0  0  0  0
 13 14  1  0  0  0  0
 13 90  1  1  0  0  0
 14 91  1  0  0  0  0
 14 92  1  0  0  0  0
 15 14  1  0  0  0  0
 15 16  1  0  0  0  0
 15 93  1  6  0  0  0
 16 17  1  0  0  0  0
 16 94  1  1  0  0  0
 17 18  1  0  0  0  0
 17 95  1  0  0  0  0
 17 96  1  0  0  0  0
 18 97  1  0  0  0  0
 18 98  1  0  0  0  0
 19 18  1  0  0  0  0
 19 20  1  0  0  0  0
 19 99  1  6  0  0  0
 20 21  1  0  0  0  0
 20100  1  0  0  0  0
 20101  1  0  0  0  0
 21 22  1  0  0  0  0
 21 65  1  0  0  0  0
 21102  1  1  0  0  0
 23 22  1  0  0  0  0
 23 24  1  0  0  0  0
 23103  1  1  0  0  0
 24 25  1  0  0  0  0
 25 26  1  0  0  0  0
 25 28  1  0  0  0  0
 25104  1  1  0  0  0
 26 27  1  0  0  0  0
 26105  1  0  0  0  0
 26106  1  0  0  0  0
 27107  1  0  0  0  0
 28 29  1  0  0  0  0
 28 61  1  0  0  0  0
 28108  1  1  0  0  0
 30 29  1  0  0  0  0
 30 31  1  0  0  0  0
 30109  1  1  0  0  0
 31 32  1  0  0  0  0
 32 33  1  0  0  0  0
 32 35  1  0  0  0  0
 32110  1  1  0  0  0
 33 34  1  0  0  0  0
 33111  1  0  0  0  0
 33112  1  0  0  0  0
 34113  1  0  0  0  0
 35 36  1  0  0  0  0
 35 37  1  0  0  0  0
 35114  1  1  0  0  0
 36115  1  0  0  0  0
 37 38  1  0  0  0  0
 37 48  1  0  0  0  0
 37116  1  1  0  0  0
 39 38  1  0  0  0  0
 39 40  1  0  0  0  0
 39117  1  1  0  0  0
 40 41  1  0  0  0  0
 41 42  1  0  0  0  0
 41118  1  0  0  0  0
 41119  1  0  0  0  0
 42 43  1  0  0  0  0
 42 44  1  0  0  0  0
 42120  1  6  0  0  0
 43121  1  0  0  0  0
 44 45  1  0  0  0  0
 44 46  1  0  0  0  0
 44122  1  6  0  0  0
 45123  1  0  0  0  0
 46 47  1  0  0  0  0
 46 39  1  0  0  0  0
 46124  1  6  0  0  0
 47125  1  0  0  0  0
 48 49  1  0  0  0  0
 48 30  1  0  0  0  0
 48126  1  6  0  0  0
 50 49  1  0  0  0  0
 50 51  1  0  0  0  0
 50127  1  6  0  0  0
 51 52  1  0  0  0  0
 52 53  1  0  0  0  0
 52 55  1  0  0  0  0
 52128  1  6  0  0  0
 53 54  1  0  0  0  0
 53129  1  0  0  0  0
 53130  1  0  0  0  0
 54131  1  0  0  0  0
 55 56  1  0  0  0  0
 55 57  1  0  0  0  0
 55132  1  1  0  0  0
 56133  1  0  0  0  0
 57 58  1  0  0  0  0
 57 59  1  0  0  0  0
 57134  1  1  0  0  0
 58135  1  0  0  0  0
 59 60  1  0  0  0  0
 59 50  1  0  0  0  0
 59136  1  1  0  0  0
 60137  1  0  0  0  0
 61 62  1  0  0  0  0
 61 63  1  0  0  0  0
 61138  1  1  0  0  0
 62139  1  0  0  0  0
 63 64  1  0  0  0  0
 63 23  1  0  0  0  0
 63140  1  6  0  0  0
 64141  1  0  0  0  0
 65 66  1  0  0  0  0
 65142  1  0  0  0  0
 65143  1  0  0  0  0
 66 67  1  0  0  0  0
 66144  1  0  0  0  0
 66145  1  0  0  0  0
 67 68  1  1  0  0  0
 67 69  1  0  0  0  0
 67 19  1  0  0  0  0
 68146  1  0  0  0  0
 68147  1  0  0  0  0
 68148  1  0  0  0  0
 69 70  1  0  0  0  0
 69 16  1  0  0  0  0
 69149  1  6  0  0  0
 70 71  1  0  0  0  0
 70150  1  0  0  0  0
 70151  1  0  0  0  0
 71 72  1  0  0  0  0
 71152  1  0  0  0  0
 71153  1  0  0  0  0
 72 73  1  1  0  0  0
 72 74  1  0  0  0  0
 72 15  1  0  0  0  0
 73154  1  0  0  0  0
 73155  1  0  0  0  0
 73156  1  0  0  0  0
 74 75  1  0  0  0  0
 74 13  1  0  0  0  0
 74157  1  6  0  0  0
 75 76  1  0  0  0  0
 75 11  1  0  0  0  0
 75158  1  1  0  0  0
 76159  1  0  0  0  0
 76160  1  0  0  0  0
 76161  1  0  0  0  0
M  END
>  <IDENTIFIER>
CNP0290146.2

>  <Energy>
2491.6

$$$$
