
 OpenBabel09092520063D

 43 44  0  0  0  0  0  0  0  0999 V2000
   -3.2067   -1.3884   -0.4729 C   0  0  0  0  0  0  0  0  0  0  0  0
   -2.2205   -0.2045   -0.6512 C   0  0  0  0  0  0  0  0  0  0  0  0
   -1.6704   -0.3253   -2.1104 C   0  0  0  0  0  0  0  0  0  0  0  0
   -1.0511   -0.3138    0.4214 C   0  0  1  0  0  0  0  0  0  0  0  0
   -0.2700   -1.6815    0.3261 C   0  0  0  0  0  0  0  0  0  0  0  0
    1.1595   -1.5982    0.8582 C   0  0  0  0  0  0  0  0  0  0  0  0
    1.8821   -0.5285    0.0334 C   0  0  0  0  0  0  0  0  0  0  0  0
    3.2033   -0.7438   -0.6356 C   0  0  0  0  0  0  0  0  0  0  0  0
    3.9270   -1.8811   -0.5787 C   0  0  0  0  0  0  0  0  0  0  0  0
    5.1953   -2.0296   -1.2214 N   0  0  0  0  0  0  0  0  0  0  0  0
    6.1356   -1.1460   -1.2984 C   0  0  0  0  0  0  0  0  0  0  0  0
    7.6058   -1.5655   -2.1543 Cl  0  0  0  0  0  0  0  0  0  0  0  0
    6.1023    0.4021   -0.4487 Cl  0  0  0  0  0  0  0  0  0  0  0  0
    1.2556    0.6590   -0.1611 C   0  0  0  0  0  0  0  0  0  0  0  0
   -0.0809    0.9551    0.4984 C   0  0  2  0  0  0  0  0  0  0  0  0
    0.2728    1.3093    1.9858 C   0  0  0  0  0  0  0  0  0  0  0  0
   -0.7249    2.2321   -0.1367 C   0  0  0  0  0  0  0  0  0  0  0  0
   -2.2251    2.3414    0.1611 C   0  0  2  0  0  0  0  0  0  0  0  0
   -2.4620    2.4313    1.5472 O   0  0  0  0  0  0  0  0  0  0  0  0
   -3.0032    1.1834   -0.5301 C   0  0  2  0  0  0  0  0  0  0  0  0
   -4.6824    1.1138    0.1264 Cl  0  0  0  0  0  0  0  0  0  0  0  0
   -2.7081   -2.3668   -0.6316 H   0  0  0  0  0  0  0  0  0  0  0  0
   -4.0416   -1.3232   -1.2040 H   0  0  0  0  0  0  0  0  0  0  0  0
   -3.6321   -1.3931    0.5539 H   0  0  0  0  0  0  0  0  0  0  0  0
   -1.2406   -1.3178   -2.3376 H   0  0  0  0  0  0  0  0  0  0  0  0
   -0.9028    0.4286   -2.3516 H   0  0  0  0  0  0  0  0  0  0  0  0
   -2.4991   -0.2107   -2.8432 H   0  0  0  0  0  0  0  0  0  0  0  0
   -1.5674   -0.3201    1.4051 H   0  0  0  0  0  0  0  0  0  0  0  0
   -0.1197   -1.9859   -0.7233 H   0  0  0  0  0  0  0  0  0  0  0  0
   -0.8483   -2.4940    0.8152 H   0  0  0  0  0  0  0  0  0  0  0  0
    1.6319   -2.5920    0.7754 H   0  0  0  0  0  0  0  0  0  0  0  0
    1.1426   -1.3811    1.9360 H   0  0  0  0  0  0  0  0  0  0  0  0
    3.6011    0.0879   -1.2064 H   0  0  0  0  0  0  0  0  0  0  0  0
    3.5495   -2.7524   -0.0662 H   0  0  0  0  0  0  0  0  0  0  0  0
    1.7053    1.4115   -0.8057 H   0  0  0  0  0  0  0  0  0  0  0  0
    0.9272    2.2080    2.0168 H   0  0  0  0  0  0  0  0  0  0  0  0
    0.8235    0.5362    2.5343 H   0  0  0  0  0  0  0  0  0  0  0  0
   -0.6051    1.5233    2.6148 H   0  0  0  0  0  0  0  0  0  0  0  0
   -0.6285    2.2182   -1.2390 H   0  0  0  0  0  0  0  0  0  0  0  0
   -0.1818    3.1475    0.1860 H   0  0  0  0  0  0  0  0  0  0  0  0
   -2.6227    3.2877   -0.2679 H   0  0  0  0  0  0  0  0  0  0  0  0
   -2.7332    1.5448    1.8978 H   0  0  0  0  0  0  0  0  0  0  0  0
   -3.1926    1.5222   -1.5726 H   0  0  0  0  0  0  0  0  0  0  0  0
  1  2  1  0  0  0  0
  1 22  1  0  0  0  0
  1 23  1  0  0  0  0
  1 24  1  0  0  0  0
  2  3  1  0  0  0  0
  2  4  1  0  0  0  0
  3 25  1  0  0  0  0
  3 26  1  0  0  0  0
  3 27  1  0  0  0  0
  4  5  1  0  0  0  0
  4 28  1  1  0  0  0
  5  6  1  0  0  0  0
  5 29  1  0  0  0  0
  5 30  1  0  0  0  0
  6  7  1  0  0  0  0
  6 31  1  0  0  0  0
  6 32  1  0  0  0  0
  7  8  1  0  0  0  0
  7 14  2  0  0  0  0
  8  9  2  0  0  0  0
  8 33  1  0  0  0  0
  9 10  1  0  0  0  0
  9 34  1  0  0  0  0
 10 11  2  0  0  0  0
 11 12  1  0  0  0  0
 11 13  1  0  0  0  0
 14 15  1  0  0  0  0
 14 35  1  0  0  0  0
 15 16  1  1  0  0  0
 15 17  1  0  0  0  0
 15  4  1  0  0  0  0
 16 36  1  0  0  0  0
 16 37  1  0  0  0  0
 16 38  1  0  0  0  0
 17 18  1  0  0  0  0
 17 39  1  0  0  0  0
 17 40  1  0  0  0  0
 18 19  1  0  0  0  0
 18 20  1  0  0  0  0
 18 41  1  6  0  0  0
 19 42  1  0  0  0  0
 20 21  1  0  0  0  0
 20  2  1  0  0  0  0
 20 43  1  6  0  0  0
M  END
>  <IDENTIFIER>
CNP0198112.8

>  <Energy>
597.159

$$$$
