
 OpenBabel09132505083D

144144  0  0  0  0  0  0  0  0999 V2000
   16.3700    1.3768    2.2209 C   0  0  0  0  0  0  0  0  0  0  0  0
   17.1126    1.6081    0.9059 C   0  0  0  0  0  0  0  0  0  0  0  0
   16.3336    1.2589   -0.3789 C   0  0  0  0  0  0  0  0  0  0  0  0
   15.2159    2.2257   -0.8331 C   0  0  0  0  0  0  0  0  0  0  0  0
   13.9223    2.2733    0.0025 C   0  0  0  0  0  0  0  0  0  0  0  0
   13.2355    0.9161    0.2241 C   0  0  0  0  0  0  0  0  0  0  0  0
   12.8107    0.2223   -1.0847 C   0  0  0  0  0  0  0  0  0  0  0  0
   12.1284   -1.1350   -0.8346 C   0  0  0  0  0  0  0  0  0  0  0  0
   10.7949   -1.0562   -0.0631 C   0  0  0  0  0  0  0  0  0  0  0  0
    9.6803   -0.2706   -0.7903 C   0  0  0  0  0  0  0  0  0  0  0  0
    9.2822   -0.8356   -2.1731 C   0  0  0  0  0  0  0  0  0  0  0  0
    8.7585   -2.2800   -2.0756 C   0  0  0  0  0  0  0  0  0  0  0  0
    8.3762   -2.9263   -3.4161 C   0  0  0  0  0  0  0  0  0  0  0  0
    7.2176   -2.3030   -4.2212 C   0  0  0  0  0  0  0  0  0  0  0  0
    5.8795   -2.2082   -3.4647 C   0  0  0  0  0  0  0  0  0  0  0  0
    5.8609   -1.0179   -2.5621 C   0  0  0  0  0  0  0  0  0  0  0  0
    6.0317    0.0846   -3.0648 O   0  0  0  0  0  0  0  0  0  0  0  0
    5.6396   -1.1478   -1.2210 O   0  0  0  0  0  0  0  0  0  0  0  0
    5.7710   -0.1055   -0.3308 C   0  0  0  0  0  0  0  0  0  0  0  0
    4.4178    0.2845    0.2048 C   0  0  0  0  0  0  0  0  0  0  0  0
    3.8296   -0.5280    1.1872 C   0  0  0  0  0  0  0  0  0  0  0  0
    2.5888   -0.2045    1.7575 C   0  0  0  0  0  0  0  0  0  0  0  0
    2.0390   -0.9812    2.7195 O   0  0  0  0  0  0  0  0  0  0  0  0
    2.6072   -2.0823    3.3276 C   0  0  0  0  0  0  0  0  0  0  0  0
    1.8918    0.9440    1.3147 C   0  0  0  0  0  0  0  0  0  0  0  0
    0.5018    1.2143    1.8669 C   0  0  0  0  0  0  0  0  0  0  0  0
   -0.4249    0.1063    1.4135 C   0  0  0  0  0  0  0  0  0  0  0  0
   -1.4904    0.1965    0.5680 C   0  0  0  0  0  0  0  0  0  0  0  0
   -1.9424    1.4775   -0.1039 C   0  0  0  0  0  0  0  0  0  0  0  0
   -2.2537   -1.0878    0.2599 C   0  0  0  0  0  0  0  0  0  0  0  0
   -3.7279   -1.0578    0.6867 C   0  0  1  0  0  0  0  0  0  0  0  0
   -3.8342   -0.6658    2.1572 C   0  0  0  0  0  0  0  0  0  0  0  0
   -4.4803    0.3624    2.7669 C   0  0  0  0  0  0  0  0  0  0  0  0
   -4.3589    0.5016    4.2666 C   0  0  0  0  0  0  0  0  0  0  0  0
   -5.3294    1.4259    2.1017 C   0  0  0  0  0  0  0  0  0  0  0  0
   -4.4362   -0.2427   -0.1793 O   0  0  0  0  0  0  0  0  0  0  0  0
   -5.4110   -0.6693   -1.0246 C   0  0  0  0  0  0  0  0  0  0  0  0
   -5.7118   -1.8550   -1.0791 O   0  0  0  0  0  0  0  0  0  0  0  0
   -6.1028    0.3379   -1.9126 C   0  0  0  0  0  0  0  0  0  0  0  0
   -7.2574   -0.2552   -2.7508 C   0  0  0  0  0  0  0  0  0  0  0  0
   -8.4262   -0.8075   -1.9048 C   0  0  0  0  0  0  0  0  0  0  0  0
   -9.1523    0.2912   -1.1113 C   0  0  0  0  0  0  0  0  0  0  0  0
  -10.3014   -0.2478   -0.2495 C   0  0  0  0  0  0  0  0  0  0  0  0
   -9.8115   -1.0219    0.9909 C   0  0  0  0  0  0  0  0  0  0  0  0
  -10.9053   -1.7165    1.8306 C   0  0  0  0  0  0  0  0  0  0  0  0
  -11.9570   -0.8403    2.5577 C   0  0  0  0  0  0  0  0  0  0  0  0
  -13.0297   -0.1301    1.7017 C   0  0  0  0  0  0  0  0  0  0  0  0
  -13.8350   -1.0961    0.8189 C   0  0  0  0  0  0  0  0  0  0  0  0
  -14.7647   -0.4469   -0.2249 C   0  0  0  0  0  0  0  0  0  0  0  0
  -15.9570    0.3946    0.2775 C   0  0  0  0  0  0  0  0  0  0  0  0
  -15.6456    1.8168    0.7958 C   0  0  0  0  0  0  0  0  0  0  0  0
  -14.8723    2.7186   -0.1868 C   0  0  0  0  0  0  0  0  0  0  0  0
  -15.5987    2.9356   -1.5145 C   0  0  0  0  0  0  0  0  0  0  0  0
    2.4920    1.7908    0.3342 C   0  0  0  0  0  0  0  0  0  0  0  0
    1.8780    2.8917   -0.1477 O   0  0  0  0  0  0  0  0  0  0  0  0
    3.7476    1.4650   -0.1963 C   0  0  0  0  0  0  0  0  0  0  0  0
    4.3170    2.3515   -1.2483 C   0  0  0  0  0  0  0  0  0  0  0  0
    4.1902    3.5767   -1.2016 O   0  0  0  0  0  0  0  0  0  0  0  0
   17.0728    1.5470    3.0640 H   0  0  0  0  0  0  0  0  0  0  0  0
   16.0019    0.3308    2.2787 H   0  0  0  0  0  0  0  0  0  0  0  0
   15.5345    2.0765    2.3664 H   0  0  0  0  0  0  0  0  0  0  0  0
   17.9942    0.9302    0.9331 H   0  0  0  0  0  0  0  0  0  0  0  0
   17.4907    2.6518    0.8543 H   0  0  0  0  0  0  0  0  0  0  0  0
   15.9639    0.2127   -0.3349 H   0  0  0  0  0  0  0  0  0  0  0  0
   17.0888    1.2936   -1.1952 H   0  0  0  0  0  0  0  0  0  0  0  0
   14.9286    1.9238   -1.8622 H   0  0  0  0  0  0  0  0  0  0  0  0
   15.6310    3.2535   -0.9096 H   0  0  0  0  0  0  0  0  0  0  0  0
   13.2072    2.9523   -0.5117 H   0  0  0  0  0  0  0  0  0  0  0  0
   14.1200    2.7379    0.9817 H   0  0  0  0  0  0  0  0  0  0  0  0
   12.3386    1.1143    0.8451 H   0  0  0  0  0  0  0  0  0  0  0  0
   13.9058    0.2434    0.8003 H   0  0  0  0  0  0  0  0  0  0  0  0
   13.7148    0.0186   -1.6953 H   0  0  0  0  0  0  0  0  0  0  0  0
   12.1461    0.8867   -1.6750 H   0  0  0  0  0  0  0  0  0  0  0  0
   12.8304   -1.7804   -0.2643 H   0  0  0  0  0  0  0  0  0  0  0  0
   11.9553   -1.6354   -1.8106 H   0  0  0  0  0  0  0  0  0  0  0  0
   10.9623   -0.6042    0.9349 H   0  0  0  0  0  0  0  0  0  0  0  0
   10.4465   -2.0884    0.1407 H   0  0  0  0  0  0  0  0  0  0  0  0
    9.9926    0.7880   -0.9105 H   0  0  0  0  0  0  0  0  0  0  0  0
    8.7838   -0.2681   -0.1348 H   0  0  0  0  0  0  0  0  0  0  0  0
   10.1435   -0.7880   -2.8683 H   0  0  0  0  0  0  0  0  0  0  0  0
    8.4928   -0.1798   -2.5887 H   0  0  0  0  0  0  0  0  0  0  0  0
    7.9031   -2.3321   -1.3762 H   0  0  0  0  0  0  0  0  0  0  0  0
    9.5619   -2.9226   -1.6628 H   0  0  0  0  0  0  0  0  0  0  0  0
    8.0975   -3.9769   -3.1971 H   0  0  0  0  0  0  0  0  0  0  0  0
    9.2757   -2.9454   -4.0714 H   0  0  0  0  0  0  0  0  0  0  0  0
    7.0641   -2.9776   -5.0913 H   0  0  0  0  0  0  0  0  0  0  0  0
    7.4996   -1.3093   -4.6326 H   0  0  0  0  0  0  0  0  0  0  0  0
    5.6631   -3.1544   -2.9232 H   0  0  0  0  0  0  0  0  0  0  0  0
    5.0673   -2.0442   -4.2077 H   0  0  0  0  0  0  0  0  0  0  0  0
    6.2789    0.7678   -0.7946 H   0  0  0  0  0  0  0  0  0  0  0  0
    6.4478   -0.3882    0.5045 H   0  0  0  0  0  0  0  0  0  0  0  0
    4.3776   -1.4077    1.5165 H   0  0  0  0  0  0  0  0  0  0  0  0
    1.9136   -2.4754    4.0983 H   0  0  0  0  0  0  0  0  0  0  0  0
    3.5585   -1.7901    3.8336 H   0  0  0  0  0  0  0  0  0  0  0  0
    2.8008   -2.8769    2.5816 H   0  0  0  0  0  0  0  0  0  0  0  0
    0.1185    2.1929    1.5875 H   0  0  0  0  0  0  0  0  0  0  0  0
    0.5381    1.2432    2.9747 H   0  0  0  0  0  0  0  0  0  0  0  0
   -0.1885   -0.8762    1.8034 H   0  0  0  0  0  0  0  0  0  0  0  0
   -1.3248    2.3636    0.1101 H   0  0  0  0  0  0  0  0  0  0  0  0
   -2.9741    1.7291    0.2100 H   0  0  0  0  0  0  0  0  0  0  0  0
   -1.9277    1.3337   -1.2041 H   0  0  0  0  0  0  0  0  0  0  0  0
   -1.7848   -1.9493    0.7852 H   0  0  0  0  0  0  0  0  0  0  0  0
   -2.1875   -1.3129   -0.8267 H   0  0  0  0  0  0  0  0  0  0  0  0
   -4.1023   -2.1022    0.6099 H   0  0  0  0  0  0  0  0  0  0  0  0
   -3.2695   -1.3373    2.8003 H   0  0  0  0  0  0  0  0  0  0  0  0
   -3.7208   -0.2868    4.7203 H   0  0  0  0  0  0  0  0  0  0  0  0
   -5.3642    0.4431    4.7342 H   0  0  0  0  0  0  0  0  0  0  0  0
   -3.9039    1.4852    4.5097 H   0  0  0  0  0  0  0  0  0  0  0  0
   -5.4388    1.3561    1.0156 H   0  0  0  0  0  0  0  0  0  0  0  0
   -4.8912    2.4234    2.3176 H   0  0  0  0  0  0  0  0  0  0  0  0
   -6.3528    1.3907    2.5313 H   0  0  0  0  0  0  0  0  0  0  0  0
   -5.3396    0.7643   -2.5979 H   0  0  0  0  0  0  0  0  0  0  0  0
   -6.4821    1.1740   -1.2936 H   0  0  0  0  0  0  0  0  0  0  0  0
   -6.8503   -1.0747   -3.3823 H   0  0  0  0  0  0  0  0  0  0  0  0
   -7.6516    0.5292   -3.4339 H   0  0  0  0  0  0  0  0  0  0  0  0
   -8.0597   -1.5992   -1.2300 H   0  0  0  0  0  0  0  0  0  0  0  0
   -9.1610   -1.2809   -2.5919 H   0  0  0  0  0  0  0  0  0  0  0  0
   -9.5742    1.0065   -1.8515 H   0  0  0  0  0  0  0  0  0  0  0  0
   -8.4639    0.8493   -0.4448 H   0  0  0  0  0  0  0  0  0  0  0  0
  -10.9773   -0.8717   -0.8734 H   0  0  0  0  0  0  0  0  0  0  0  0
  -10.8304    0.6489    0.0948 H   0  0  0  0  0  0  0  0  0  0  0  0
   -9.2211   -0.3378    1.6391 H   0  0  0  0  0  0  0  0  0  0  0  0
   -9.1379   -1.8382    0.6618 H   0  0  0  0  0  0  0  0  0  0  0  0
  -10.3562   -2.2561    2.6346 H   0  0  0  0  0  0  0  0  0  0  0  0
  -11.4003   -2.5024    1.2271 H   0  0  0  0  0  0  0  0  0  0  0  0
  -11.4312   -0.0878    3.1853 H   0  0  0  0  0  0  0  0  0  0  0  0
  -12.5072   -1.5188    3.2465 H   0  0  0  0  0  0  0  0  0  0  0  0
  -12.5954    0.6659    1.0874 H   0  0  0  0  0  0  0  0  0  0  0  0
  -13.7117    0.3600    2.4177 H   0  0  0  0  0  0  0  0  0  0  0  0
  -14.4052   -1.7963    1.4658 H   0  0  0  0  0  0  0  0  0  0  0  0
  -13.1273   -1.6915    0.2087 H   0  0  0  0  0  0  0  0  0  0  0  0
  -15.2075   -1.3033   -0.7807 H   0  0  0  0  0  0  0  0  0  0  0  0
  -14.1715    0.1285   -0.9651 H   0  0  0  0  0  0  0  0  0  0  0  0
  -16.5158   -0.1786    1.0475 H   0  0  0  0  0  0  0  0  0  0  0  0
  -16.6439    0.5188   -0.5857 H   0  0  0  0  0  0  0  0  0  0  0  0
  -15.0836    1.7811    1.7410 H   0  0  0  0  0  0  0  0  0  0  0  0
  -16.6145    2.3063    1.0367 H   0  0  0  0  0  0  0  0  0  0  0  0
  -13.8628    2.3012   -0.3839 H   0  0  0  0  0  0  0  0  0  0  0  0
  -14.7318    3.7099    0.2957 H   0  0  0  0  0  0  0  0  0  0  0  0
  -15.7066    1.9822   -2.0712 H   0  0  0  0  0  0  0  0  0  0  0  0
  -15.0094    3.6323   -2.1472 H   0  0  0  0  0  0  0  0  0  0  0  0
  -16.6022    3.3768   -1.3375 H   0  0  0  0  0  0  0  0  0  0  0  0
    0.9984    3.2077    0.0534 H   0  0  0  0  0  0  0  0  0  0  0  0
    4.8830    1.9212   -2.0640 H   0  0  0  0  0  0  0  0  0  0  0  0
  1  2  1  0  0  0  0
  1 59  1  0  0  0  0
  1 60  1  0  0  0  0
  1 61  1  0  0  0  0
  2  3  1  0  0  0  0
  2 62  1  0  0  0  0
  2 63  1  0  0  0  0
  3  4  1  0  0  0  0
  3 64  1  0  0  0  0
  3 65  1  0  0  0  0
  4  5  1  0  0  0  0
  4 66  1  0  0  0  0
  4 67  1  0  0  0  0
  5  6  1  0  0  0  0
  5 68  1  0  0  0  0
  5 69  1  0  0  0  0
  6  7  1  0  0  0  0
  6 70  1  0  0  0  0
  6 71  1  0  0  0  0
  7  8  1  0  0  0  0
  7 72  1  0  0  0  0
  7 73  1  0  0  0  0
  8  9  1  0  0  0  0
  8 74  1  0  0  0  0
  8 75  1  0  0  0  0
  9 10  1  0  0  0  0
  9 76  1  0  0  0  0
  9 77  1  0  0  0  0
 10 11  1  0  0  0  0
 10 78  1  0  0  0  0
 10 79  1  0  0  0  0
 11 12  1  0  0  0  0
 11 80  1  0  0  0  0
 11 81  1  0  0  0  0
 12 13  1  0  0  0  0
 12 82  1  0  0  0  0
 12 83  1  0  0  0  0
 13 14  1  0  0  0  0
 13 84  1  0  0  0  0
 13 85  1  0  0  0  0
 14 15  1  0  0  0  0
 14 86  1  0  0  0  0
 14 87  1  0  0  0  0
 15 16  1  0  0  0  0
 15 88  1  0  0  0  0
 15 89  1  0  0  0  0
 16 17  2  0  0  0  0
 16 18  1  0  0  0  0
 18 19  1  0  0  0  0
 19 20  1  0  0  0  0
 19 90  1  0  0  0  0
 19 91  1  0  0  0  0
 20 21  2  0  0  0  0
 21 22  1  0  0  0  0
 21 92  1  0  0  0  0
 22 23  1  0  0  0  0
 22 25  2  0  0  0  0
 23 24  1  0  0  0  0
 24 93  1  0  0  0  0
 24 94  1  0  0  0  0
 24 95  1  0  0  0  0
 25 26  1  0  0  0  0
 25 54  1  0  0  0  0
 26 27  1  0  0  0  0
 26 96  1  0  0  0  0
 26 97  1  0  0  0  0
 27 28  2  3  0  0  0
 27 98  1  0  0  0  0
 28 29  1  0  0  0  0
 28 30  1  0  0  0  0
 29 99  1  0  0  0  0
 29100  1  0  0  0  0
 29101  1  0  0  0  0
 30102  1  0  0  0  0
 30103  1  0  0  0  0
 31 30  1  0  0  0  0
 31 32  1  0  0  0  0
 31 36  1  0  0  0  0
 31104  1  6  0  0  0
 32 33  2  0  0  0  0
 32105  1  0  0  0  0
 33 34  1  0  0  0  0
 33 35  1  0  0  0  0
 34106  1  0  0  0  0
 34107  1  0  0  0  0
 34108  1  0  0  0  0
 35109  1  0  0  0  0
 35110  1  0  0  0  0
 35111  1  0  0  0  0
 36 37  1  0  0  0  0
 37 38  2  0  0  0  0
 37 39  1  0  0  0  0
 39 40  1  0  0  0  0
 39112  1  0  0  0  0
 39113  1  0  0  0  0
 40 41  1  0  0  0  0
 40114  1  0  0  0  0
 40115  1  0  0  0  0
 41 42  1  0  0  0  0
 41116  1  0  0  0  0
 41117  1  0  0  0  0
 42 43  1  0  0  0  0
 42118  1  0  0  0  0
 42119  1  0  0  0  0
 43 44  1  0  0  0  0
 43120  1  0  0  0  0
 43121  1  0  0  0  0
 44 45  1  0  0  0  0
 44122  1  0  0  0  0
 44123  1  0  0  0  0
 45 46  1  0  0  0  0
 45124  1  0  0  0  0
 45125  1  0  0  0  0
 46 47  1  0  0  0  0
 46126  1  0  0  0  0
 46127  1  0  0  0  0
 47 48  1  0  0  0  0
 47128  1  0  0  0  0
 47129  1  0  0  0  0
 48 49  1  0  0  0  0
 48130  1  0  0  0  0
 48131  1  0  0  0  0
 49 50  1  0  0  0  0
 49132  1  0  0  0  0
 49133  1  0  0  0  0
 50 51  1  0  0  0  0
 50134  1  0  0  0  0
 50135  1  0  0  0  0
 51 52  1  0  0  0  0
 51136  1  0  0  0  0
 51137  1  0  0  0  0
 52 53  1  0  0  0  0
 52138  1  0  0  0  0
 52139  1  0  0  0  0
 53140  1  0  0  0  0
 53141  1  0  0  0  0
 53142  1  0  0  0  0
 54 55  1  0  0  0  0
 54 56  2  0  0  0  0
 55143  1  0  0  0  0
 56 57  1  0  0  0  0
 56 20  1  0  0  0  0
 57 58  2  0  0  0  0
 57144  1  0  0  0  0
M  END
>  <IDENTIFIER>
CNP0515127.0

>  <Energy>
718.052

$$$$
