
 OpenBabel09062502193D

 23 22  0  0  0  0  0  0  0  0999 V2000
    2.6783   -0.3779    0.3375 C   0  0  0  0  0  0  0  0  0  0  0  0
    1.8462    0.2641   -0.7721 C   0  0  0  0  0  0  0  0  0  0  0  0
    0.8141    1.2797   -0.2471 C   0  0  0  0  0  0  0  0  0  0  0  0
   -0.2395    0.7001    0.7212 C   0  0  0  0  0  0  0  0  0  0  0  0
   -1.0880   -0.4655    0.1554 C   0  0  0  0  0  0  0  0  0  0  0  0
   -1.8891   -0.0513   -1.0880 C   0  0  0  0  0  0  0  0  0  0  0  0
   -2.0472   -0.9756    1.2386 C   0  0  0  0  0  0  0  0  0  0  0  0
    3.4295   -1.0597   -0.1135 H   0  0  0  0  0  0  0  0  0  0  0  0
    2.0399   -0.9772    1.0185 H   0  0  0  0  0  0  0  0  0  0  0  0
    3.2105    0.4030    0.9208 H   0  0  0  0  0  0  0  0  0  0  0  0
    1.3421   -0.5291   -1.3628 H   0  0  0  0  0  0  0  0  0  0  0  0
    2.5380    0.8007   -1.4568 H   0  0  0  0  0  0  0  0  0  0  0  0
    0.3019    1.7397   -1.1177 H   0  0  0  0  0  0  0  0  0  0  0  0
    1.3542    2.0973    0.2778 H   0  0  0  0  0  0  0  0  0  0  0  0
   -0.9164    1.5289    1.0253 H   0  0  0  0  0  0  0  0  0  0  0  0
    0.2801    0.3528    1.6395 H   0  0  0  0  0  0  0  0  0  0  0  0
   -0.4197   -1.3102   -0.1173 H   0  0  0  0  0  0  0  0  0  0  0  0
   -2.5737    0.7911   -0.8504 H   0  0  0  0  0  0  0  0  0  0  0  0
   -2.4924   -0.9092   -1.4548 H   0  0  0  0  0  0  0  0  0  0  0  0
   -1.2146    0.2517   -1.9141 H   0  0  0  0  0  0  0  0  0  0  0  0
   -2.7503   -0.1736    1.5515 H   0  0  0  0  0  0  0  0  0  0  0  0
   -1.4755   -1.3171    2.1280 H   0  0  0  0  0  0  0  0  0  0  0  0
   -2.6350   -1.8378    0.8569 H   0  0  0  0  0  0  0  0  0  0  0  0
  1  2  1  0  0  0  0
  1  8  1  0  0  0  0
  1  9  1  0  0  0  0
  1 10  1  0  0  0  0
  2  3  1  0  0  0  0
  2 11  1  0  0  0  0
  2 12  1  0  0  0  0
  3  4  1  0  0  0  0
  3 13  1  0  0  0  0
  3 14  1  0  0  0  0
  4  5  1  0  0  0  0
  4 15  1  0  0  0  0
  4 16  1  0  0  0  0
  5  6  1  0  0  0  0
  5  7  1  0  0  0  0
  5 17  1  0  0  0  0
  6 18  1  0  0  0  0
  6 19  1  0  0  0  0
  6 20  1  0  0  0  0
  7 21  1  0  0  0  0
  7 22  1  0  0  0  0
  7 23  1  0  0  0  0
M  END
>  <IDENTIFIER>
CNP0312749.0

>  <Energy>
38.5343

$$$$
