
 OpenBabel09122511413D

 46 48  0  0  0  0  0  0  0  0999 V2000
   -3.1181    3.0216    0.8214 C   0  0  0  0  0  0  0  0  0  0  0  0
   -2.8764    1.6644    0.8572 O   0  0  0  0  0  0  0  0  0  0  0  0
   -3.4534    0.7332    0.0556 C   0  0  0  0  0  0  0  0  0  0  0  0
   -4.3803    1.0758   -0.9625 C   0  0  0  0  0  0  0  0  0  0  0  0
   -4.9796    0.0780   -1.7583 C   0  0  0  0  0  0  0  0  0  0  0  0
   -4.6747   -1.2751   -1.5527 C   0  0  0  0  0  0  0  0  0  0  0  0
   -3.7654   -1.5927   -0.5488 C   0  0  0  0  0  0  0  0  0  0  0  0
   -3.1602   -0.6329    0.2280 C   0  0  0  0  0  0  0  0  0  0  0  0
   -2.3370   -1.2269    1.1271 N   0  0  0  0  0  0  0  0  0  0  0  0
   -1.5102   -0.6020    2.1660 C   0  0  0  0  0  0  0  0  0  0  0  0
   -0.2667    0.1115    1.5918 C   0  0  0  0  0  0  0  0  0  0  0  0
    0.7859   -0.8372    1.0300 C   0  0  0  0  0  0  0  0  0  0  0  0
    0.5434   -2.0365    1.0073 O   0  0  0  0  0  0  0  0  0  0  0  0
    2.0140   -0.3804    0.6080 N   0  0  0  0  0  0  0  0  0  0  0  0
    2.3151    1.0570    0.5974 C   0  0  0  0  0  0  0  0  0  0  0  0
    3.7781    1.3119    0.2133 C   0  0  0  0  0  0  0  0  0  0  0  0
    4.1801    0.6097   -1.1154 C   0  0  0  0  0  0  0  0  0  0  0  0
    5.6982    0.5285   -1.2416 C   0  0  0  0  0  0  0  0  0  0  0  0
    6.4278    0.9335   -0.3491 O   0  0  0  0  0  0  0  0  0  0  0  0
    6.2646    0.0196   -2.3572 O   0  0  0  0  0  0  0  0  0  0  0  0
    3.5248   -0.7993   -1.2427 C   0  0  0  0  0  0  0  0  0  0  0  0
    3.0361   -1.3148    0.1117 C   0  0  0  0  0  0  0  0  0  0  0  0
   -2.4459   -2.5625    0.9214 C   0  0  0  0  0  0  0  0  0  0  0  0
   -3.3177   -2.8228   -0.1250 C   0  0  0  0  0  0  0  0  0  0  0  0
   -2.5000    3.5191    1.5965 H   0  0  0  0  0  0  0  0  0  0  0  0
   -4.1887    3.2252    1.0383 H   0  0  0  0  0  0  0  0  0  0  0  0
   -2.8432    3.4358   -0.1716 H   0  0  0  0  0  0  0  0  0  0  0  0
   -4.6514    2.1069   -1.1443 H   0  0  0  0  0  0  0  0  0  0  0  0
   -5.6883    0.3576   -2.5271 H   0  0  0  0  0  0  0  0  0  0  0  0
   -5.1412   -2.0474   -2.1514 H   0  0  0  0  0  0  0  0  0  0  0  0
   -1.1518   -1.3704    2.8867 H   0  0  0  0  0  0  0  0  0  0  0  0
   -2.1408    0.1047    2.7460 H   0  0  0  0  0  0  0  0  0  0  0  0
    0.1991    0.6472    2.4453 H   0  0  0  0  0  0  0  0  0  0  0  0
   -0.5520    0.8563    0.8230 H   0  0  0  0  0  0  0  0  0  0  0  0
    2.1618    1.4945    1.6064 H   0  0  0  0  0  0  0  0  0  0  0  0
    1.6425    1.5662   -0.1268 H   0  0  0  0  0  0  0  0  0  0  0  0
    4.3706    0.8740    1.0471 H   0  0  0  0  0  0  0  0  0  0  0  0
    4.0167    2.3969    0.1781 H   0  0  0  0  0  0  0  0  0  0  0  0
    3.8205    1.2125   -1.9776 H   0  0  0  0  0  0  0  0  0  0  0  0
    5.7357   -0.2965   -3.1020 H   0  0  0  0  0  0  0  0  0  0  0  0
    4.1943   -1.5250   -1.7529 H   0  0  0  0  0  0  0  0  0  0  0  0
    2.6115   -0.7118   -1.8732 H   0  0  0  0  0  0  0  0  0  0  0  0
    3.8950   -1.3656    0.8151 H   0  0  0  0  0  0  0  0  0  0  0  0
    2.6441   -2.3477   -0.0021 H   0  0  0  0  0  0  0  0  0  0  0  0
   -1.9182   -3.3142    1.4943 H   0  0  0  0  0  0  0  0  0  0  0  0
   -3.5980   -3.7927   -0.5147 H   0  0  0  0  0  0  0  0  0  0  0  0
  1  2  1  0  0  0  0
  1 25  1  0  0  0  0
  1 26  1  0  0  0  0
  1 27  1  0  0  0  0
  2  3  1  0  0  0  0
  3  4  2  0  0  0  0
  4  5  1  0  0  0  0
  4 28  1  0  0  0  0
  5  6  2  0  0  0  0
  5 29  1  0  0  0  0
  6  7  1  0  0  0  0
  6 30  1  0  0  0  0
  7  8  2  0  0  0  0
  8  9  1  0  0  0  0
  8  3  1  0  0  0  0
  9 10  1  0  0  0  0
  9 23  1  0  0  0  0
 10 11  1  0  0  0  0
 10 31  1  0  0  0  0
 10 32  1  0  0  0  0
 11 12  1  0  0  0  0
 11 33  1  0  0  0  0
 11 34  1  0  0  0  0
 12 13  2  0  0  0  0
 12 14  1  0  0  0  0
 14 15  1  0  0  0  0
 15 16  1  0  0  0  0
 15 35  1  0  0  0  0
 15 36  1  0  0  0  0
 16 17  1  0  0  0  0
 16 37  1  0  0  0  0
 16 38  1  0  0  0  0
 17 18  1  0  0  0  0
 17 21  1  0  0  0  0
 17 39  1  0  0  0  0
 18 19  2  0  0  0  0
 18 20  1  0  0  0  0
 20 40  1  0  0  0  0
 21 22  1  0  0  0  0
 21 41  1  0  0  0  0
 21 42  1  0  0  0  0
 22 14  1  0  0  0  0
 22 43  1  0  0  0  0
 22 44  1  0  0  0  0
 23 24  2  0  0  0  0
 23 45  1  0  0  0  0
 24  7  1  0  0  0  0
 24 46  1  0  0  0  0
M  END
>  <IDENTIFIER>
CNP0235196.0

>  <Energy>
456.451

$$$$
