
 OpenBabel09112523523D

 53 54  0  0  0  0  0  0  0  0999 V2000
    0.6224   -0.0144    4.2431 C   0  0  0  0  0  0  0  0  0  0  0  0
   -0.4739    0.0276    3.4742 C   0  0  0  0  0  0  0  0  0  0  0  0
   -1.8391   -0.0421    3.9462 C   0  0  0  0  0  0  0  0  0  0  0  0
   -2.1764   -0.1469    5.1148 O   0  0  0  0  0  0  0  0  0  0  0  0
   -2.7144    0.0658    2.9383 O   0  0  0  0  0  0  0  0  0  0  0  0
   -2.0713    0.0446    1.7141 C   0  0  2  0  0  0  0  0  0  0  0  0
   -0.5334    0.2599    1.9931 C   0  0  2  0  0  0  0  0  0  0  0  0
    0.4086   -0.6608    1.1559 C   0  0  2  0  0  0  0  0  0  0  0  0
    0.5642   -0.1846   -0.1372 O   0  0  0  0  0  0  0  0  0  0  0  0
    1.7367    0.2930   -0.6511 C   0  0  0  0  0  0  0  0  0  0  0  0
    2.7559    0.2957    0.0258 O   0  0  0  0  0  0  0  0  0  0  0  0
    1.7554    0.8480   -2.0577 C   0  0  0  0  0  0  0  0  0  0  0  0
    3.0937    1.4530   -2.5632 C   0  0  0  0  0  0  0  0  0  0  0  0
    3.5363    2.6690   -1.7314 C   0  0  0  0  0  0  0  0  0  0  0  0
    4.2166    0.4099   -2.6583 C   0  0  0  0  0  0  0  0  0  0  0  0
   -0.0362   -2.1055    1.2025 C   0  0  0  0  0  0  0  0  0  0  0  0
   -0.6353   -2.8615    0.2420 C   0  0  0  0  0  0  0  0  0  0  0  0
   -0.9581   -4.2988    0.5997 C   0  0  0  0  0  0  0  0  0  0  0  0
   -1.0487   -2.4279   -1.1714 C   0  0  0  0  0  0  0  0  0  0  0  0
   -2.2404   -1.4375   -1.2633 C   0  0  0  0  0  0  0  0  0  0  0  0
   -1.8170   -0.0021   -1.4584 C   0  0  0  0  0  0  0  0  0  0  0  0
   -2.0447    1.0659   -0.6531 C   0  0  0  0  0  0  0  0  0  0  0  0
   -1.5679    2.4219   -1.1331 C   0  0  0  0  0  0  0  0  0  0  0  0
   -2.7541    0.9889    0.6976 C   0  0  2  0  0  0  0  0  0  0  0  0
   -2.9242    2.2705    1.2601 O   0  0  0  0  0  0  0  0  0  0  0  0
    0.5390   -0.1520    5.3162 H   0  0  0  0  0  0  0  0  0  0  0  0
    1.6117    0.0901    3.8116 H   0  0  0  0  0  0  0  0  0  0  0  0
   -2.2265   -0.9870    1.3785 H   0  0  0  0  0  0  0  0  0  0  0  0
   -0.2092    1.3161    1.8751 H   0  0  0  0  0  0  0  0  0  0  0  0
    1.4027   -0.6436    1.6470 H   0  0  0  0  0  0  0  0  0  0  0  0
    0.9987    1.6518   -2.1084 H   0  0  0  0  0  0  0  0  0  0  0  0
    1.4403    0.0397   -2.7520 H   0  0  0  0  0  0  0  0  0  0  0  0
    2.9051    1.8206   -3.5965 H   0  0  0  0  0  0  0  0  0  0  0  0
    3.7771    2.3946   -0.6849 H   0  0  0  0  0  0  0  0  0  0  0  0
    2.7342    3.4372   -1.7206 H   0  0  0  0  0  0  0  0  0  0  0  0
    4.4442    3.1263   -2.1797 H   0  0  0  0  0  0  0  0  0  0  0  0
    4.4951    0.0051   -1.6653 H   0  0  0  0  0  0  0  0  0  0  0  0
    5.1233    0.8721   -3.1046 H   0  0  0  0  0  0  0  0  0  0  0  0
    3.9002   -0.4302   -3.3119 H   0  0  0  0  0  0  0  0  0  0  0  0
    0.1342   -2.5672    2.1725 H   0  0  0  0  0  0  0  0  0  0  0  0
   -0.6484   -4.5747    1.6306 H   0  0  0  0  0  0  0  0  0  0  0  0
   -0.4381   -4.9831   -0.1032 H   0  0  0  0  0  0  0  0  0  0  0  0
   -2.0537   -4.4626    0.5205 H   0  0  0  0  0  0  0  0  0  0  0  0
   -1.4321   -3.3524   -1.6589 H   0  0  0  0  0  0  0  0  0  0  0  0
   -0.1877   -2.1088   -1.7960 H   0  0  0  0  0  0  0  0  0  0  0  0
   -2.9900   -1.6252   -0.4719 H   0  0  0  0  0  0  0  0  0  0  0  0
   -2.7865   -1.6590   -2.2064 H   0  0  0  0  0  0  0  0  0  0  0  0
   -1.2747    0.1650   -2.3860 H   0  0  0  0  0  0  0  0  0  0  0  0
   -1.1219    2.3879   -2.1482 H   0  0  0  0  0  0  0  0  0  0  0  0
   -0.8083    2.8278   -0.4335 H   0  0  0  0  0  0  0  0  0  0  0  0
   -2.4302    3.1187   -1.1885 H   0  0  0  0  0  0  0  0  0  0  0  0
   -3.7776    0.5932    0.5214 H   0  0  0  0  0  0  0  0  0  0  0  0
   -2.0419    2.5995    1.5703 H   0  0  0  0  0  0  0  0  0  0  0  0
  1  2  2  0  0  0  0
  1 26  1  0  0  0  0
  1 27  1  0  0  0  0
  2  3  1  0  0  0  0
  3  4  2  0  0  0  0
  3  5  1  0  0  0  0
  6  5  1  0  0  0  0
  6  7  1  0  0  0  0
  6 28  1  6  0  0  0
  7  8  1  0  0  0  0
  7  2  1  0  0  0  0
  7 29  1  6  0  0  0
  8  9  1  0  0  0  0
  8 16  1  0  0  0  0
  8 30  1  1  0  0  0
  9 10  1  0  0  0  0
 10 11  2  0  0  0  0
 10 12  1  0  0  0  0
 12 13  1  0  0  0  0
 12 31  1  0  0  0  0
 12 32  1  0  0  0  0
 13 14  1  0  0  0  0
 13 15  1  0  0  0  0
 13 33  1  0  0  0  0
 14 34  1  0  0  0  0
 14 35  1  0  0  0  0
 14 36  1  0  0  0  0
 15 37  1  0  0  0  0
 15 38  1  0  0  0  0
 15 39  1  0  0  0  0
 16 17  2  0  0  0  0
 16 40  1  0  0  0  0
 17 18  1  0  0  0  0
 17 19  1  0  0  0  0
 18 41  1  0  0  0  0
 18 42  1  0  0  0  0
 18 43  1  0  0  0  0
 19 20  1  0  0  0  0
 19 44  1  0  0  0  0
 19 45  1  0  0  0  0
 20 21  1  0  0  0  0
 20 46  1  0  0  0  0
 20 47  1  0  0  0  0
 21 22  2  0  0  0  0
 21 48  1  0  0  0  0
 22 23  1  0  0  0  0
 22 24  1  0  0  0  0
 23 49  1  0  0  0  0
 23 50  1  0  0  0  0
 23 51  1  0  0  0  0
 24 25  1  0  0  0  0
 24  6  1  0  0  0  0
 24 52  1  6  0  0  0
 25 53  1  0  0  0  0
M  END
>  <IDENTIFIER>
CNP0322519.2

>  <Energy>
473.926

$$$$
