
 OpenBabel09082501413D

 98102  0  0  0  0  0  0  0  0999 V2000
   -7.0348    0.0833    0.2212 C   0  0  0  0  0  0  0  0  0  0  0  0
   -5.8847    0.3929   -0.6813 C   0  0  0  0  0  0  0  0  0  0  0  0
   -6.0948    0.6632   -1.8561 O   0  0  0  0  0  0  0  0  0  0  0  0
   -4.6175    0.3533   -0.1907 O   0  0  0  0  0  0  0  0  0  0  0  0
   -3.4955    0.6002   -0.9632 C   0  0  0  0  0  0  0  0  0  0  0  0
   -2.1489    0.4146   -0.1353 C   0  0  2  0  0  0  0  0  0  0  0  0
   -2.0806    1.6294    0.8471 C   0  0  2  0  0  0  0  0  0  0  0  0
   -3.2927    1.8397    1.4907 O   0  0  0  0  0  0  0  0  0  0  0  0
   -3.5449    1.7569    2.8205 C   0  0  0  0  0  0  0  0  0  0  0  0
   -4.9389    1.9928    3.3075 C   0  0  0  0  0  0  0  0  0  0  0  0
   -2.6604    1.4799    3.6182 O   0  0  0  0  0  0  0  0  0  0  0  0
   -1.6772    2.8823    0.0610 C   0  0  0  0  0  0  0  0  0  0  0  0
   -2.3046    3.9241    0.1825 O   0  0  0  0  0  0  0  0  0  0  0  0
   -0.5066    2.8005   -0.9337 C   0  0  2  0  0  0  0  0  0  0  0  0
   -0.8776    1.7439   -1.9581 C   0  0  1  0  0  0  0  0  0  0  0  0
    0.0512    1.7348   -2.9837 O   0  0  0  0  0  0  0  0  0  0  0  0
   -0.1894    1.9274   -4.3074 C   0  0  0  0  0  0  0  0  0  0  0  0
    0.9597    1.9286   -5.2617 C   0  0  0  0  0  0  0  0  0  0  0  0
   -1.3221    2.1126   -4.7285 O   0  0  0  0  0  0  0  0  0  0  0  0
   -0.7751    0.4997   -1.0159 C   0  0  1  0  0  0  0  0  0  0  0  0
    0.3579    0.7796   -0.1419 O   0  0  0  0  0  0  0  0  0  0  0  0
    0.7357    2.1435   -0.2730 C   0  0  2  0  0  0  0  0  0  0  0  0
    1.0532    2.8108    1.0983 C   0  0  0  0  0  0  0  0  0  0  0  0
    2.0684    2.2435   -1.1167 C   0  0  0  0  0  0  0  0  0  0  0  0
    3.1847    1.7809   -0.4150 O   0  0  0  0  0  0  0  0  0  0  0  0
    4.1874    2.5813    0.0430 C   0  0  0  0  0  0  0  0  0  0  0  0
    4.0852    3.7931   -0.1083 O   0  0  0  0  0  0  0  0  0  0  0  0
    5.3777    2.0654    0.8097 C   0  0  0  0  0  0  0  0  0  0  0  0
    6.1597    3.0496    1.4655 C   0  0  0  0  0  0  0  0  0  0  0  0
    7.2957    2.7193    2.1939 C   0  0  0  0  0  0  0  0  0  0  0  0
    7.6788    1.3945    2.2800 C   0  0  0  0  0  0  0  0  0  0  0  0
    6.9526    0.4444    1.6476 N   0  0  0  0  0  0  0  0  0  0  0  0
    5.8245    0.7036    0.9219 C   0  0  0  0  0  0  0  0  0  0  0  0
    5.2514   -0.5127    0.2216 C   0  0  0  0  0  0  0  0  0  0  0  0
    3.8858   -1.0442    0.6988 C   0  0  0  0  0  0  0  0  0  0  0  0
    3.5502   -2.4668    0.1325 C   0  0  1  0  0  0  0  0  0  0  0  0
    3.8400   -2.5963   -1.3849 C   0  0  0  0  0  0  0  0  0  0  0  0
    4.2651   -3.4543    0.8420 O   0  0  0  0  0  0  0  0  0  0  0  0
    2.0691   -2.7161    0.3012 C   0  0  0  0  0  0  0  0  0  0  0  0
    1.6482   -3.6751    0.9303 O   0  0  0  0  0  0  0  0  0  0  0  0
    1.2380   -1.8851   -0.3666 O   0  0  0  0  0  0  0  0  0  0  0  0
   -0.1316   -1.9181   -0.5462 C   0  0  1  0  0  0  0  0  0  0  0  0
   -0.8331   -1.6150    0.8316 C   0  0  2  0  0  0  0  0  0  0  0  0
   -0.9681   -2.7941    1.5493 O   0  0  0  0  0  0  0  0  0  0  0  0
   -0.4940   -3.0425    2.7976 C   0  0  0  0  0  0  0  0  0  0  0  0
   -0.6916   -4.4006    3.3904 C   0  0  0  0  0  0  0  0  0  0  0  0
    0.0953   -2.1832    3.4346 O   0  0  0  0  0  0  0  0  0  0  0  0
   -2.2156   -0.9624    0.6696 C   0  0  2  0  0  0  0  0  0  0  0  0
   -3.0546   -1.8998    0.0795 O   0  0  0  0  0  0  0  0  0  0  0  0
   -4.1282   -2.4820    0.6862 C   0  0  0  0  0  0  0  0  0  0  0  0
   -4.9185   -3.5200   -0.0379 C   0  0  0  0  0  0  0  0  0  0  0  0
   -4.4557   -2.1800    1.8260 O   0  0  0  0  0  0  0  0  0  0  0  0
   -0.4476   -0.8737   -1.7003 C   0  0  1  0  0  0  0  0  0  0  0  0
   -1.5382   -1.4049   -2.6613 C   0  0  0  0  0  0  0  0  0  0  0  0
    0.7106   -0.6970   -2.4930 O   0  0  0  0  0  0  0  0  0  0  0  0
   -7.9953    0.1424   -0.3349 H   0  0  0  0  0  0  0  0  0  0  0  0
   -7.0590    0.8105    1.0571 H   0  0  0  0  0  0  0  0  0  0  0  0
   -6.9214   -0.9416    0.6299 H   0  0  0  0  0  0  0  0  0  0  0  0
   -3.6006    1.6294   -1.3590 H   0  0  0  0  0  0  0  0  0  0  0  0
   -3.5473   -0.0657   -1.8310 H   0  0  0  0  0  0  0  0  0  0  0  0
   -1.2914    1.3920    1.5836 H   0  0  0  0  0  0  0  0  0  0  0  0
   -5.6066    2.2341    2.4530 H   0  0  0  0  0  0  0  0  0  0  0  0
   -4.9533    2.8431    4.0202 H   0  0  0  0  0  0  0  0  0  0  0  0
   -5.3214    1.0803    3.8112 H   0  0  0  0  0  0  0  0  0  0  0  0
   -0.3199    3.8056   -1.3723 H   0  0  0  0  0  0  0  0  0  0  0  0
   -1.8624    1.9113   -2.4190 H   0  0  0  0  0  0  0  0  0  0  0  0
    1.9116    1.7528   -4.7171 H   0  0  0  0  0  0  0  0  0  0  0  0
    1.0173    2.9115   -5.7748 H   0  0  0  0  0  0  0  0  0  0  0  0
    0.8217    1.1260   -6.0154 H   0  0  0  0  0  0  0  0  0  0  0  0
    1.8729    2.2716    1.6179 H   0  0  0  0  0  0  0  0  0  0  0  0
    0.2173    2.8367    1.8159 H   0  0  0  0  0  0  0  0  0  0  0  0
    1.3627    3.8665    0.9430 H   0  0  0  0  0  0  0  0  0  0  0  0
    2.1925    3.3113   -1.4006 H   0  0  0  0  0  0  0  0  0  0  0  0
    2.0579    1.6753   -2.0572 H   0  0  0  0  0  0  0  0  0  0  0  0
    5.8969    4.0991    1.4200 H   0  0  0  0  0  0  0  0  0  0  0  0
    7.8762    3.4897    2.6854 H   0  0  0  0  0  0  0  0  0  0  0  0
    8.5626    1.1166    2.8388 H   0  0  0  0  0  0  0  0  0  0  0  0
    5.9753   -1.3366    0.3987 H   0  0  0  0  0  0  0  0  0  0  0  0
    5.2423   -0.3196   -0.8715 H   0  0  0  0  0  0  0  0  0  0  0  0
    3.1089   -0.3354    0.3840 H   0  0  0  0  0  0  0  0  0  0  0  0
    3.8504   -1.0978    1.8089 H   0  0  0  0  0  0  0  0  0  0  0  0
    4.9236   -2.4957   -1.6015 H   0  0  0  0  0  0  0  0  0  0  0  0
    3.2980   -1.8195   -1.9643 H   0  0  0  0  0  0  0  0  0  0  0  0
    3.5285   -3.5992   -1.7502 H   0  0  0  0  0  0  0  0  0  0  0  0
    5.2139   -3.4300    0.5554 H   0  0  0  0  0  0  0  0  0  0  0  0
   -0.4094   -2.9243   -0.9335 H   0  0  0  0  0  0  0  0  0  0  0  0
   -0.2252   -0.8794    1.4010 H   0  0  0  0  0  0  0  0  0  0  0  0
   -1.2380   -5.0546    2.6777 H   0  0  0  0  0  0  0  0  0  0  0  0
   -1.2798   -4.3206    4.3279 H   0  0  0  0  0  0  0  0  0  0  0  0
    0.2949   -4.8603    3.6112 H   0  0  0  0  0  0  0  0  0  0  0  0
   -2.5998   -0.7379    1.6891 H   0  0  0  0  0  0  0  0  0  0  0  0
   -4.4988   -3.6880   -1.0507 H   0  0  0  0  0  0  0  0  0  0  0  0
   -5.9738   -3.1885   -0.1298 H   0  0  0  0  0  0  0  0  0  0  0  0
   -4.8851   -4.4724    0.5328 H   0  0  0  0  0  0  0  0  0  0  0  0
   -1.1592   -2.2986   -3.2016 H   0  0  0  0  0  0  0  0  0  0  0  0
   -1.7952   -0.6388   -3.4228 H   0  0  0  0  0  0  0  0  0  0  0  0
   -2.4392   -1.7717   -2.1577 H   0  0  0  0  0  0  0  0  0  0  0  0
    0.9863   -1.5794   -2.8582 H   0  0  0  0  0  0  0  0  0  0  0  0
  1  2  1  0  0  0  0
  1 56  1  0  0  0  0
  1 57  1  0  0  0  0
  1 58  1  0  0  0  0
  2  3  2  0  0  0  0
  2  4  1  0  0  0  0
  4  5  1  0  0  0  0
  5 59  1  0  0  0  0
  5 60  1  0  0  0  0
  6  5  1  6  0  0  0
  6  7  1  0  0  0  0
  7  8  1  0  0  0  0
  7 12  1  0  0  0  0
  7 61  1  1  0  0  0
  8  9  1  0  0  0  0
  9 10  1  0  0  0  0
  9 11  2  0  0  0  0
 10 62  1  0  0  0  0
 10 63  1  0  0  0  0
 10 64  1  0  0  0  0
 12 13  2  0  0  0  0
 14 12  1  0  0  0  0
 14 15  1  0  0  0  0
 14 65  1  6  0  0  0
 15 16  1  0  0  0  0
 15 20  1  0  0  0  0
 15 66  1  6  0  0  0
 16 17  1  0  0  0  0
 17 18  1  0  0  0  0
 17 19  2  0  0  0  0
 18 67  1  0  0  0  0
 18 68  1  0  0  0  0
 18 69  1  0  0  0  0
 20 21  1  1  0  0  0
 20  6  1  0  0  0  0
 21 22  1  0  0  0  0
 22 23  1  1  0  0  0
 22 24  1  0  0  0  0
 22 14  1  0  0  0  0
 23 70  1  0  0  0  0
 23 71  1  0  0  0  0
 23 72  1  0  0  0  0
 24 25  1  0  0  0  0
 24 73  1  0  0  0  0
 24 74  1  0  0  0  0
 25 26  1  0  0  0  0
 26 27  2  0  0  0  0
 26 28  1  0  0  0  0
 28 29  2  0  0  0  0
 29 30  1  0  0  0  0
 29 75  1  0  0  0  0
 30 31  2  0  0  0  0
 30 76  1  0  0  0  0
 31 32  1  0  0  0  0
 31 77  1  0  0  0  0
 32 33  2  0  0  0  0
 33 34  1  0  0  0  0
 33 28  1  0  0  0  0
 34 35  1  0  0  0  0
 34 78  1  0  0  0  0
 34 79  1  0  0  0  0
 35 36  1  0  0  0  0
 35 80  1  0  0  0  0
 35 81  1  0  0  0  0
 36 37  1  0  0  0  0
 36 38  1  1  0  0  0
 36 39  1  0  0  0  0
 37 82  1  0  0  0  0
 37 83  1  0  0  0  0
 37 84  1  0  0  0  0
 38 85  1  0  0  0  0
 39 40  2  0  0  0  0
 39 41  1  0  0  0  0
 42 41  1  0  0  0  0
 42 43  1  0  0  0  0
 42 53  1  0  0  0  0
 42 86  1  6  0  0  0
 43 44  1  0  0  0  0
 43 48  1  0  0  0  0
 43 87  1  1  0  0  0
 44 45  1  0  0  0  0
 45 46  1  0  0  0  0
 45 47  2  0  0  0  0
 46 88  1  0  0  0  0
 46 89  1  0  0  0  0
 46 90  1  0  0  0  0
 48 49  1  0  0  0  0
 48  6  1  0  0  0  0
 48 91  1  1  0  0  0
 49 50  1  0  0  0  0
 50 51  1  0  0  0  0
 50 52  2  0  0  0  0
 51 92  1  0  0  0  0
 51 93  1  0  0  0  0
 51 94  1  0  0  0  0
 53 54  1  0  0  0  0
 53 55  1  6  0  0  0
 53 20  1  0  0  0  0
 54 95  1  0  0  0  0
 54 96  1  0  0  0  0
 54 97  1  0  0  0  0
 55 98  1  0  0  0  0
M  END
>  <IDENTIFIER>
CNP0163193.1

>  <Energy>
1009.87

$$$$
