
 OpenBabel09122509253D

 61 64  0  0  0  0  0  0  0  0999 V2000
   -3.3754   -2.7232    0.4811 C   0  0  0  0  0  0  0  0  0  0  0  0
   -3.7185   -1.4853    0.0830 C   0  0  0  0  0  0  0  0  0  0  0  0
   -4.8933   -1.3264   -0.8547 C   0  0  0  0  0  0  0  0  0  0  0  0
   -5.7207   -0.0972   -0.5091 C   0  0  0  0  0  0  0  0  0  0  0  0
   -4.8055    1.1242   -0.6042 C   0  0  0  0  0  0  0  0  0  0  0  0
   -3.6750    1.1058    0.4718 C   0  0  2  0  0  0  0  0  0  0  0  0
   -4.3067    1.4232    1.8540 C   0  0  0  0  0  0  0  0  0  0  0  0
   -2.6586    2.2237    0.1367 C   0  0  0  0  0  0  0  0  0  0  0  0
   -1.9109    1.9442   -1.1999 C   0  0  1  0  0  0  0  0  0  0  0  0
   -0.7843    2.7222   -1.2450 O   0  0  0  0  0  0  0  0  0  0  0  0
    0.2905    2.0487   -1.6740 C   0  0  0  0  0  0  0  0  0  0  0  0
    1.3191    2.6392   -1.9433 O   0  0  0  0  0  0  0  0  0  0  0  0
    0.0010    0.6172   -2.0203 C   0  0  1  0  0  0  0  0  0  0  0  0
    1.0133   -0.4548   -1.5072 C   0  0  0  0  0  0  0  0  0  0  0  0
    2.2736   -0.6290   -2.2632 N   0  0  0  0  0  0  0  0  0  0  0  0
    3.2764    0.4425   -2.2476 C   0  0  0  0  0  0  0  0  0  0  0  0
    3.7163    0.9057   -0.8440 C   0  0  0  0  0  0  0  0  0  0  0  0
    4.5299   -0.1233   -0.0767 C   0  0  0  0  0  0  0  0  0  0  0  0
    5.8069    0.1489    0.2814 C   0  0  0  0  0  0  0  0  0  0  0  0
    6.5521   -0.8802    1.0869 C   0  0  0  0  0  0  0  0  0  0  0  0
    5.7006   -1.3309    2.2960 C   0  0  0  0  0  0  0  0  0  0  0  0
    4.1914   -1.4882    1.9407 C   0  0  0  0  0  0  0  0  0  0  0  0
    3.9480   -1.4414    0.4201 C   0  0  0  0  0  0  0  0  0  0  0  0
   -1.4218    0.4703   -1.3826 C   0  0  1  0  0  0  0  0  0  0  0  0
   -1.4611   -0.2402   -0.0092 C   0  0  0  0  0  0  0  0  0  0  0  0
   -2.9050   -0.2796    0.5703 C   0  0  2  0  0  0  0  0  0  0  0  0
   -3.9265   -3.5953    0.1448 H   0  0  0  0  0  0  0  0  0  0  0  0
   -2.5333   -2.8826    1.1489 H   0  0  0  0  0  0  0  0  0  0  0  0
   -5.5352   -2.2351   -0.8750 H   0  0  0  0  0  0  0  0  0  0  0  0
   -4.4919   -1.1915   -1.8829 H   0  0  0  0  0  0  0  0  0  0  0  0
   -6.1902   -0.1952    0.4903 H   0  0  0  0  0  0  0  0  0  0  0  0
   -6.5367    0.0023   -1.2571 H   0  0  0  0  0  0  0  0  0  0  0  0
   -5.4014    2.0580   -0.5035 H   0  0  0  0  0  0  0  0  0  0  0  0
   -4.3921    1.1211   -1.6326 H   0  0  0  0  0  0  0  0  0  0  0  0
   -4.8406    2.3977    1.8317 H   0  0  0  0  0  0  0  0  0  0  0  0
   -3.5179    1.4924    2.6349 H   0  0  0  0  0  0  0  0  0  0  0  0
   -5.0160    0.6355    2.1757 H   0  0  0  0  0  0  0  0  0  0  0  0
   -1.9109    2.2558    0.9607 H   0  0  0  0  0  0  0  0  0  0  0  0
   -3.1290    3.2308    0.1001 H   0  0  0  0  0  0  0  0  0  0  0  0
   -2.5370    2.2206   -2.0749 H   0  0  0  0  0  0  0  0  0  0  0  0
   -0.0875    0.5557   -3.1272 H   0  0  0  0  0  0  0  0  0  0  0  0
    0.5036   -1.4371   -1.6039 H   0  0  0  0  0  0  0  0  0  0  0  0
    1.2071   -0.2972   -0.4296 H   0  0  0  0  0  0  0  0  0  0  0  0
    2.0490   -0.8699   -3.2568 H   0  0  0  0  0  0  0  0  0  0  0  0
    2.9083    1.2904   -2.8487 H   0  0  0  0  0  0  0  0  0  0  0  0
    4.1813    0.0907   -2.7899 H   0  0  0  0  0  0  0  0  0  0  0  0
    2.8513    1.2383   -0.2363 H   0  0  0  0  0  0  0  0  0  0  0  0
    4.3482    1.8069   -1.0051 H   0  0  0  0  0  0  0  0  0  0  0  0
    6.2860    1.0897    0.0271 H   0  0  0  0  0  0  0  0  0  0  0  0
    7.5636   -0.5413    1.3950 H   0  0  0  0  0  0  0  0  0  0  0  0
    6.6864   -1.7609    0.4213 H   0  0  0  0  0  0  0  0  0  0  0  0
    5.7789   -0.6031    3.1333 H   0  0  0  0  0  0  0  0  0  0  0  0
    6.1242   -2.2949    2.6514 H   0  0  0  0  0  0  0  0  0  0  0  0
    3.6445   -0.6131    2.3611 H   0  0  0  0  0  0  0  0  0  0  0  0
    3.7670   -2.3947    2.4223 H   0  0  0  0  0  0  0  0  0  0  0  0
    2.8718   -1.5358    0.2079 H   0  0  0  0  0  0  0  0  0  0  0  0
    4.4621   -2.2991   -0.0651 H   0  0  0  0  0  0  0  0  0  0  0  0
   -2.0930   -0.1321   -2.0340 H   0  0  0  0  0  0  0  0  0  0  0  0
   -0.8040    0.3310    0.6834 H   0  0  0  0  0  0  0  0  0  0  0  0
   -1.0606   -1.2736   -0.0392 H   0  0  0  0  0  0  0  0  0  0  0  0
   -2.7246   -0.4808    1.6518 H   0  0  0  0  0  0  0  0  0  0  0  0
  1  2  2  0  0  0  0
  1 27  1  0  0  0  0
  1 28  1  0  0  0  0
  2  3  1  0  0  0  0
  3  4  1  0  0  0  0
  3 29  1  0  0  0  0
  3 30  1  0  0  0  0
  4  5  1  0  0  0  0
  4 31  1  0  0  0  0
  4 32  1  0  0  0  0
  5  6  1  0  0  0  0
  5 33  1  0  0  0  0
  5 34  1  0  0  0  0
  6  7  1  1  0  0  0
  6  8  1  0  0  0  0
  7 35  1  0  0  0  0
  7 36  1  0  0  0  0
  7 37  1  0  0  0  0
  8 38  1  0  0  0  0
  8 39  1  0  0  0  0
  9  8  1  0  0  0  0
  9 10  1  0  0  0  0
  9 40  1  6  0  0  0
 10 11  1  0  0  0  0
 11 12  2  0  0  0  0
 11 13  1  0  0  0  0
 13 14  1  0  0  0  0
 13 24  1  0  0  0  0
 13 41  1  6  0  0  0
 14 15  1  0  0  0  0
 14 42  1  0  0  0  0
 14 43  1  0  0  0  0
 15 16  1  0  0  0  0
 15 44  1  0  0  0  0
 16 17  1  0  0  0  0
 16 45  1  0  0  0  0
 16 46  1  0  0  0  0
 17 18  1  0  0  0  0
 17 47  1  0  0  0  0
 17 48  1  0  0  0  0
 18 19  2  0  0  0  0
 19 20  1  0  0  0  0
 19 49  1  0  0  0  0
 20 21  1  0  0  0  0
 20 50  1  0  0  0  0
 20 51  1  0  0  0  0
 21 22  1  0  0  0  0
 21 52  1  0  0  0  0
 21 53  1  0  0  0  0
 22 23  1  0  0  0  0
 22 54  1  0  0  0  0
 22 55  1  0  0  0  0
 23 18  1  0  0  0  0
 23 56  1  0  0  0  0
 23 57  1  0  0  0  0
 24 25  1  0  0  0  0
 24  9  1  0  0  0  0
 24 58  1  6  0  0  0
 25 59  1  0  0  0  0
 25 60  1  0  0  0  0
 26 25  1  0  0  0  0
 26  2  1  0  0  0  0
 26  6  1  0  0  0  0
 26 61  1  1  0  0  0
M  END
>  <IDENTIFIER>
CNP0244137.2

>  <Energy>
730.313

$$$$
