
 OpenBabel09132512273D

 48 49  0  0  0  0  0  0  0  0999 V2000
    5.9489    0.9276    3.7475 C   0  0  0  0  0  0  0  0  0  0  0  0
    5.3090    1.2914    2.5815 O   0  0  0  0  0  0  0  0  0  0  0  0
    5.6863    0.8677    1.3477 C   0  0  0  0  0  0  0  0  0  0  0  0
    6.6626    0.1403    1.2133 O   0  0  0  0  0  0  0  0  0  0  0  0
    4.9582    1.2485    0.2663 N   0  0  0  0  0  0  0  0  0  0  0  0
    5.2950    0.8070   -1.0777 C   0  0  0  0  0  0  0  0  0  0  0  0
    4.2915    1.3187   -2.1293 C   0  0  0  0  0  0  0  0  0  0  0  0
    2.8383    0.8644   -1.8935 C   0  0  0  0  0  0  0  0  0  0  0  0
    2.6488   -0.6669   -1.9375 C   0  0  0  0  0  0  0  0  0  0  0  0
    1.2560   -1.0148   -1.7068 N   0  0  0  0  0  0  0  0  0  0  0  0
    0.6389   -0.7876   -0.5121 C   0  0  0  0  0  0  0  0  0  0  0  0
    1.2640   -0.3201    0.4293 O   0  0  0  0  0  0  0  0  0  0  0  0
   -0.8007   -1.0621   -0.3265 C   0  0  0  0  0  0  0  0  0  0  0  0
   -1.5571   -1.6152   -1.1937 N   0  0  0  0  0  0  0  0  0  0  0  0
   -2.7982   -1.7057   -0.7599 O   0  0  0  0  0  0  0  0  0  0  0  0
   -2.9992   -0.9609    0.3879 C   0  0  1  0  0  0  0  0  0  0  0  0
   -3.5269    0.3754   -0.1004 C   0  0  0  0  0  0  0  0  0  0  0  0
   -4.7536    0.8275    0.1626 C   0  0  0  0  0  0  0  0  0  0  0  0
   -5.2871    2.5135   -0.5805 Br  0  0  0  0  0  0  0  0  0  0  0  0
   -5.7108    0.0449    0.9670 C   0  0  0  0  0  0  0  0  0  0  0  0
   -6.9513    0.5558    1.1614 O   0  0  0  0  0  0  0  0  0  0  0  0
   -8.0452    0.1663    0.4208 C   0  0  0  0  0  0  0  0  0  0  0  0
   -5.3501   -1.1237    1.5326 C   0  0  0  0  0  0  0  0  0  0  0  0
   -6.5844   -2.0834    2.6516 Br  0  0  0  0  0  0  0  0  0  0  0  0
   -3.9453   -1.6876    1.4148 C   0  0  2  0  0  0  0  0  0  0  0  0
   -3.3895   -1.7136    2.7074 O   0  0  0  0  0  0  0  0  0  0  0  0
   -1.5546   -0.7709    0.9151 C   0  0  0  0  0  0  0  0  0  0  0  0
    5.4363    1.4043    4.6081 H   0  0  0  0  0  0  0  0  0  0  0  0
    7.0066    1.2661    3.7261 H   0  0  0  0  0  0  0  0  0  0  0  0
    5.9098   -0.1756    3.8759 H   0  0  0  0  0  0  0  0  0  0  0  0
    4.1438    1.8602    0.4254 H   0  0  0  0  0  0  0  0  0  0  0  0
    5.3289   -0.3008   -1.1104 H   0  0  0  0  0  0  0  0  0  0  0  0
    6.3071    1.1848   -1.3406 H   0  0  0  0  0  0  0  0  0  0  0  0
    4.6194    0.9727   -3.1332 H   0  0  0  0  0  0  0  0  0  0  0  0
    4.3141    2.4307   -2.1278 H   0  0  0  0  0  0  0  0  0  0  0  0
    2.2018    1.3144   -2.6860 H   0  0  0  0  0  0  0  0  0  0  0  0
    2.4867    1.2741   -0.9288 H   0  0  0  0  0  0  0  0  0  0  0  0
    3.2737   -1.1838   -1.1796 H   0  0  0  0  0  0  0  0  0  0  0  0
    2.9539   -1.0240   -2.9449 H   0  0  0  0  0  0  0  0  0  0  0  0
    0.7246   -1.4370   -2.4807 H   0  0  0  0  0  0  0  0  0  0  0  0
   -2.8842    0.9734   -0.7425 H   0  0  0  0  0  0  0  0  0  0  0  0
   -8.9321    0.7390    0.7617 H   0  0  0  0  0  0  0  0  0  0  0  0
   -8.2445   -0.9164    0.5545 H   0  0  0  0  0  0  0  0  0  0  0  0
   -7.8725    0.3824   -0.6549 H   0  0  0  0  0  0  0  0  0  0  0  0
   -4.0263   -2.7461    1.0850 H   0  0  0  0  0  0  0  0  0  0  0  0
   -3.3288   -0.7741    3.0254 H   0  0  0  0  0  0  0  0  0  0  0  0
   -1.2184   -1.5480    1.6345 H   0  0  0  0  0  0  0  0  0  0  0  0
   -1.4008    0.2464    1.3374 H   0  0  0  0  0  0  0  0  0  0  0  0
  1  2  1  0  0  0  0
  1 28  1  0  0  0  0
  1 29  1  0  0  0  0
  1 30  1  0  0  0  0
  2  3  1  0  0  0  0
  3  4  2  0  0  0  0
  3  5  1  0  0  0  0
  5  6  1  0  0  0  0
  5 31  1  0  0  0  0
  6  7  1  0  0  0  0
  6 32  1  0  0  0  0
  6 33  1  0  0  0  0
  7  8  1  0  0  0  0
  7 34  1  0  0  0  0
  7 35  1  0  0  0  0
  8  9  1  0  0  0  0
  8 36  1  0  0  0  0
  8 37  1  0  0  0  0
  9 10  1  0  0  0  0
  9 38  1  0  0  0  0
  9 39  1  0  0  0  0
 10 11  1  0  0  0  0
 10 40  1  0  0  0  0
 11 12  2  0  0  0  0
 11 13  1  0  0  0  0
 13 14  2  0  0  0  0
 14 15  1  0  0  0  0
 16 15  1  6  0  0  0
 16 17  1  0  0  0  0
 16 27  1  0  0  0  0
 17 18  2  0  0  0  0
 17 41  1  0  0  0  0
 18 19  1  0  0  0  0
 18 20  1  0  0  0  0
 20 21  1  0  0  0  0
 20 23  2  0  0  0  0
 21 22  1  0  0  0  0
 22 42  1  0  0  0  0
 22 43  1  0  0  0  0
 22 44  1  0  0  0  0
 23 24  1  0  0  0  0
 23 25  1  0  0  0  0
 25 26  1  0  0  0  0
 25 16  1  0  0  0  0
 25 45  1  6  0  0  0
 26 46  1  0  0  0  0
 27 13  1  0  0  0  0
 27 47  1  0  0  0  0
 27 48  1  0  0  0  0
M  END
>  <IDENTIFIER>
CNP0445899.1

>  <Energy>
489.675

$$$$
