
 OpenBabel09072517173D

 71 74  0  0  0  0  0  0  0  0999 V2000
    4.0758   -2.4884    1.6960 C   0  0  0  0  0  0  0  0  0  0  0  0
    3.5703   -2.3314    0.4221 O   0  0  0  0  0  0  0  0  0  0  0  0
    2.2749   -2.0808    0.0956 C   0  0  0  0  0  0  0  0  0  0  0  0
    1.2734   -1.9791    1.0800 C   0  0  0  0  0  0  0  0  0  0  0  0
   -0.0631   -1.7492    0.7301 C   0  0  0  0  0  0  0  0  0  0  0  0
   -1.0026   -1.6830    1.6970 O   0  0  0  0  0  0  0  0  0  0  0  0
   -0.4234   -1.6158   -0.6279 C   0  0  0  0  0  0  0  0  0  0  0  0
   -1.8658   -1.3865   -1.0781 C   0  0  2  0  0  0  0  0  0  0  0  0
   -2.3040    0.0984   -0.9076 C   0  0  0  0  0  0  0  0  0  0  0  0
   -2.2315    0.7128    0.5084 C   0  0  0  0  0  0  0  0  0  0  0  0
   -2.7474    2.1376    0.5060 C   0  0  0  0  0  0  0  0  0  0  0  0
   -3.9493    2.4355    1.1732 C   0  0  0  0  0  0  0  0  0  0  0  0
   -4.4584    3.7347    1.1768 C   0  0  0  0  0  0  0  0  0  0  0  0
   -3.7719    4.7614    0.5201 C   0  0  0  0  0  0  0  0  0  0  0  0
   -4.2558    6.0204    0.5138 O   0  0  0  0  0  0  0  0  0  0  0  0
   -2.5700    4.4833   -0.1361 C   0  0  0  0  0  0  0  0  0  0  0  0
   -2.0427    3.1738   -0.1507 C   0  0  0  0  0  0  0  0  0  0  0  0
   -0.8662    2.8834   -0.7688 O   0  0  0  0  0  0  0  0  0  0  0  0
   -0.0517    3.7810   -1.4269 C   0  0  0  0  0  0  0  0  0  0  0  0
   -2.7932   -2.4698   -0.5260 C   0  0  0  0  0  0  0  0  0  0  0  0
   -2.4393   -3.8182   -0.7390 C   0  0  0  0  0  0  0  0  0  0  0  0
   -3.2422   -4.8561   -0.2629 C   0  0  0  0  0  0  0  0  0  0  0  0
   -4.4230   -4.5696    0.4310 C   0  0  0  0  0  0  0  0  0  0  0  0
   -5.2084   -5.5618    0.8969 O   0  0  0  0  0  0  0  0  0  0  0  0
   -4.7954   -3.2394    0.6389 C   0  0  0  0  0  0  0  0  0  0  0  0
   -3.9937   -2.1962    0.1639 C   0  0  0  0  0  0  0  0  0  0  0  0
    0.5776   -1.7284   -1.6076 C   0  0  0  0  0  0  0  0  0  0  0  0
    1.9222   -1.9437   -1.2643 C   0  0  0  0  0  0  0  0  0  0  0  0
    2.9566   -2.0170   -2.3760 C   0  0  0  0  0  0  0  0  0  0  0  0
    3.7454   -0.7023   -2.5132 C   0  0  0  0  0  0  0  0  0  0  0  0
    4.6475   -0.4264   -1.3340 C   0  0  0  0  0  0  0  0  0  0  0  0
    5.6189   -1.1554   -1.1904 O   0  0  0  0  0  0  0  0  0  0  0  0
    4.3987    0.6574   -0.3298 C   0  0  0  0  0  0  0  0  0  0  0  0
    3.2267    1.4464   -0.3372 C   0  0  0  0  0  0  0  0  0  0  0  0
    3.0207    2.4260    0.6376 C   0  0  0  0  0  0  0  0  0  0  0  0
    3.9761    2.6408    1.6378 C   0  0  0  0  0  0  0  0  0  0  0  0
    3.7851    3.5814    2.5845 O   0  0  0  0  0  0  0  0  0  0  0  0
    5.1379    1.8675    1.6582 C   0  0  0  0  0  0  0  0  0  0  0  0
    5.3479    0.8843    0.6880 C   0  0  0  0  0  0  0  0  0  0  0  0
    5.1666   -2.6787    1.6302 H   0  0  0  0  0  0  0  0  0  0  0  0
    3.5947   -3.3556    2.1963 H   0  0  0  0  0  0  0  0  0  0  0  0
    3.9140   -1.5630    2.2888 H   0  0  0  0  0  0  0  0  0  0  0  0
    1.5207   -2.0878    2.1274 H   0  0  0  0  0  0  0  0  0  0  0  0
   -0.7890   -1.7759    2.6364 H   0  0  0  0  0  0  0  0  0  0  0  0
   -1.9055   -1.5343   -2.1812 H   0  0  0  0  0  0  0  0  0  0  0  0
   -3.3407    0.1987   -1.2975 H   0  0  0  0  0  0  0  0  0  0  0  0
   -1.6530    0.7016   -1.5741 H   0  0  0  0  0  0  0  0  0  0  0  0
   -1.1917    0.7193    0.8945 H   0  0  0  0  0  0  0  0  0  0  0  0
   -2.8382    0.1042    1.2045 H   0  0  0  0  0  0  0  0  0  0  0  0
   -4.5026    1.6576    1.6847 H   0  0  0  0  0  0  0  0  0  0  0  0
   -5.3897    3.9415    1.6892 H   0  0  0  0  0  0  0  0  0  0  0  0
   -5.0863    6.2549    0.9521 H   0  0  0  0  0  0  0  0  0  0  0  0
   -2.0542    5.2957   -0.6304 H   0  0  0  0  0  0  0  0  0  0  0  0
    0.8344    3.2436   -1.8218 H   0  0  0  0  0  0  0  0  0  0  0  0
    0.2966    4.5689   -0.7252 H   0  0  0  0  0  0  0  0  0  0  0  0
   -0.5958    4.2401   -2.2794 H   0  0  0  0  0  0  0  0  0  0  0  0
   -1.5315   -4.0677   -1.2749 H   0  0  0  0  0  0  0  0  0  0  0  0
   -2.9445   -5.8829   -0.4356 H   0  0  0  0  0  0  0  0  0  0  0  0
   -4.9844   -6.4953    0.7718 H   0  0  0  0  0  0  0  0  0  0  0  0
   -5.7122   -3.0114    1.1680 H   0  0  0  0  0  0  0  0  0  0  0  0
   -4.3362   -1.1897    0.3369 H   0  0  0  0  0  0  0  0  0  0  0  0
    0.3098   -1.6282   -2.6526 H   0  0  0  0  0  0  0  0  0  0  0  0
    2.4329   -2.1481   -3.3486 H   0  0  0  0  0  0  0  0  0  0  0  0
    3.6151   -2.9034   -2.2506 H   0  0  0  0  0  0  0  0  0  0  0  0
    3.0164    0.1078   -2.6930 H   0  0  0  0  0  0  0  0  0  0  0  0
    4.3828   -0.7397   -3.4232 H   0  0  0  0  0  0  0  0  0  0  0  0
    2.4492    1.3167   -1.0714 H   0  0  0  0  0  0  0  0  0  0  0  0
    2.1131    3.0158    0.6171 H   0  0  0  0  0  0  0  0  0  0  0  0
    2.9905    4.1336    2.6071 H   0  0  0  0  0  0  0  0  0  0  0  0
    5.8802    2.0249    2.4308 H   0  0  0  0  0  0  0  0  0  0  0  0
    6.2571    0.2983    0.7382 H   0  0  0  0  0  0  0  0  0  0  0  0
  1  2  1  0  0  0  0
  1 40  1  0  0  0  0
  1 41  1  0  0  0  0
  1 42  1  0  0  0  0
  2  3  1  0  0  0  0
  3  4  2  0  0  0  0
  4  5  1  0  0  0  0
  4 43  1  0  0  0  0
  5  6  1  0  0  0  0
  5  7  2  0  0  0  0
  6 44  1  0  0  0  0
  7  8  1  0  0  0  0
  7 27  1  0  0  0  0
  8  9  1  0  0  0  0
  8 20  1  0  0  0  0
  8 45  1  6  0  0  0
  9 10  1  0  0  0  0
  9 46  1  0  0  0  0
  9 47  1  0  0  0  0
 10 11  1  0  0  0  0
 10 48  1  0  0  0  0
 10 49  1  0  0  0  0
 11 12  2  0  0  0  0
 12 13  1  0  0  0  0
 12 50  1  0  0  0  0
 13 14  2  0  0  0  0
 13 51  1  0  0  0  0
 14 15  1  0  0  0  0
 14 16  1  0  0  0  0
 15 52  1  0  0  0  0
 16 17  2  0  0  0  0
 16 53  1  0  0  0  0
 17 18  1  0  0  0  0
 17 11  1  0  0  0  0
 18 19  1  0  0  0  0
 19 54  1  0  0  0  0
 19 55  1  0  0  0  0
 19 56  1  0  0  0  0
 20 21  2  0  0  0  0
 21 22  1  0  0  0  0
 21 57  1  0  0  0  0
 22 23  2  0  0  0  0
 22 58  1  0  0  0  0
 23 24  1  0  0  0  0
 23 25  1  0  0  0  0
 24 59  1  0  0  0  0
 25 26  2  0  0  0  0
 25 60  1  0  0  0  0
 26 20  1  0  0  0  0
 26 61  1  0  0  0  0
 27 28  2  0  0  0  0
 27 62  1  0  0  0  0
 28 29  1  0  0  0  0
 28  3  1  0  0  0  0
 29 30  1  0  0  0  0
 29 63  1  0  0  0  0
 29 64  1  0  0  0  0
 30 31  1  0  0  0  0
 30 65  1  0  0  0  0
 30 66  1  0  0  0  0
 31 32  2  0  0  0  0
 31 33  1  0  0  0  0
 33 34  2  0  0  0  0
 34 35  1  0  0  0  0
 34 67  1  0  0  0  0
 35 36  2  0  0  0  0
 35 68  1  0  0  0  0
 36 37  1  0  0  0  0
 36 38  1  0  0  0  0
 37 69  1  0  0  0  0
 38 39  2  0  0  0  0
 38 70  1  0  0  0  0
 39 33  1  0  0  0  0
 39 71  1  0  0  0  0
M  END
>  <IDENTIFIER>
CNP0247961.1

>  <Energy>
373.732

$$$$
