
 OpenBabel09072514503D

 57 57  0  0  0  0  0  0  0  0999 V2000
   -6.5192   -1.6585    2.0620 C   0  0  0  0  0  0  0  0  0  0  0  0
   -5.5174   -0.5161    2.2100 C   0  0  0  0  0  0  0  0  0  0  0  0
   -5.8040    0.6671    1.2684 C   0  0  0  0  0  0  0  0  0  0  0  0
   -5.7241    0.3479   -0.2406 C   0  0  0  0  0  0  0  0  0  0  0  0
   -4.3761   -0.2280   -0.7208 C   0  0  0  0  0  0  0  0  0  0  0  0
   -3.1641    0.6650   -0.3825 C   0  0  2  0  0  0  0  0  0  0  0  0
   -3.3287    1.9687   -0.8861 O   0  0  0  0  0  0  0  0  0  0  0  0
   -1.8760    0.0233   -0.8523 C   0  0  0  0  0  0  0  0  0  0  0  0
   -0.9307    0.6664   -1.5620 C   0  0  0  0  0  0  0  0  0  0  0  0
    0.3655   -0.0286   -1.9531 C   0  0  1  0  0  0  0  0  0  0  0  0
    0.6535    0.1887   -3.4458 C   0  0  2  0  0  0  0  0  0  0  0  0
    1.6762   -0.6955   -3.8300 O   0  0  0  0  0  0  0  0  0  0  0  0
    1.1791    1.6356   -3.5033 C   0  0  0  0  0  0  0  0  0  0  0  0
    1.8834    1.7691   -2.1918 C   0  0  0  0  0  0  0  0  0  0  0  0
    2.6112    2.7092   -1.9123 O   0  0  0  0  0  0  0  0  0  0  0  0
    1.5531    0.6628   -1.2341 C   0  0  2  0  0  0  0  0  0  0  0  0
    2.7938   -0.2199   -0.9776 C   0  0  0  0  0  0  0  0  0  0  0  0
    2.4637   -1.3721   -0.0473 C   0  0  0  0  0  0  0  0  0  0  0  0
    2.9618   -1.5909    1.1868 C   0  0  0  0  0  0  0  0  0  0  0  0
    3.9464   -0.7249    1.9351 C   0  0  0  0  0  0  0  0  0  0  0  0
    5.2237   -1.5255    2.2188 C   0  0  0  0  0  0  0  0  0  0  0  0
    6.2729   -0.7613    3.0442 C   0  0  0  0  0  0  0  0  0  0  0  0
    6.8546    0.4370    2.3292 C   0  0  0  0  0  0  0  0  0  0  0  0
    6.1527    1.4022    2.0705 O   0  0  0  0  0  0  0  0  0  0  0  0
    8.1619    0.4723    1.9960 O   0  0  0  0  0  0  0  0  0  0  0  0
   -6.2809   -2.4525    2.8011 H   0  0  0  0  0  0  0  0  0  0  0  0
   -6.4670   -2.1036    1.0476 H   0  0  0  0  0  0  0  0  0  0  0  0
   -7.5499   -1.2923    2.2544 H   0  0  0  0  0  0  0  0  0  0  0  0
   -4.4885   -0.9003    2.0477 H   0  0  0  0  0  0  0  0  0  0  0  0
   -5.5738   -0.1424    3.2556 H   0  0  0  0  0  0  0  0  0  0  0  0
   -5.0839    1.4787    1.5038 H   0  0  0  0  0  0  0  0  0  0  0  0
   -6.8183    1.0652    1.4887 H   0  0  0  0  0  0  0  0  0  0  0  0
   -5.9295    1.2882   -0.7963 H   0  0  0  0  0  0  0  0  0  0  0  0
   -6.5257   -0.3714   -0.5117 H   0  0  0  0  0  0  0  0  0  0  0  0
   -4.4344   -0.3742   -1.8218 H   0  0  0  0  0  0  0  0  0  0  0  0
   -4.2251   -1.2293   -0.2620 H   0  0  0  0  0  0  0  0  0  0  0  0
   -3.0871    0.7269    0.7218 H   0  0  0  0  0  0  0  0  0  0  0  0
   -3.4962    1.8914   -1.8625 H   0  0  0  0  0  0  0  0  0  0  0  0
   -1.7027   -1.0065   -0.5510 H   0  0  0  0  0  0  0  0  0  0  0  0
   -1.0670    1.7111   -1.8200 H   0  0  0  0  0  0  0  0  0  0  0  0
    0.2610   -1.1006   -1.6891 H   0  0  0  0  0  0  0  0  0  0  0  0
   -0.2301    0.0014   -4.0985 H   0  0  0  0  0  0  0  0  0  0  0  0
    1.7871   -0.5977   -4.8120 H   0  0  0  0  0  0  0  0  0  0  0  0
    0.3670    2.3925   -3.5273 H   0  0  0  0  0  0  0  0  0  0  0  0
    1.8392    1.7744   -4.3864 H   0  0  0  0  0  0  0  0  0  0  0  0
    1.2142    1.0545   -0.2475 H   0  0  0  0  0  0  0  0  0  0  0  0
    3.5841    0.4343   -0.5728 H   0  0  0  0  0  0  0  0  0  0  0  0
    3.1978   -0.6404   -1.9198 H   0  0  0  0  0  0  0  0  0  0  0  0
    1.7571   -2.1097   -0.4121 H   0  0  0  0  0  0  0  0  0  0  0  0
    2.6196   -2.4833    1.7052 H   0  0  0  0  0  0  0  0  0  0  0  0
    3.4780   -0.4145    2.8938 H   0  0  0  0  0  0  0  0  0  0  0  0
    4.1972    0.1894    1.3831 H   0  0  0  0  0  0  0  0  0  0  0  0
    5.6825   -1.8514    1.2590 H   0  0  0  0  0  0  0  0  0  0  0  0
    4.9425   -2.4357    2.7943 H   0  0  0  0  0  0  0  0  0  0  0  0
    7.0960   -1.4760    3.2604 H   0  0  0  0  0  0  0  0  0  0  0  0
    5.8403   -0.4422    4.0168 H   0  0  0  0  0  0  0  0  0  0  0  0
    8.7583   -0.2667    2.1806 H   0  0  0  0  0  0  0  0  0  0  0  0
  1  2  1  0  0  0  0
  1 26  1  0  0  0  0
  1 27  1  0  0  0  0
  1 28  1  0  0  0  0
  2  3  1  0  0  0  0
  2 29  1  0  0  0  0
  2 30  1  0  0  0  0
  3  4  1  0  0  0  0
  3 31  1  0  0  0  0
  3 32  1  0  0  0  0
  4  5  1  0  0  0  0
  4 33  1  0  0  0  0
  4 34  1  0  0  0  0
  5  6  1  0  0  0  0
  5 35  1  0  0  0  0
  5 36  1  0  0  0  0
  6  7  1  0  0  0  0
  6  8  1  0  0  0  0
  6 37  1  1  0  0  0
  7 38  1  0  0  0  0
  8  9  2  0  0  0  0
  8 39  1  0  0  0  0
  9 40  1  0  0  0  0
 10  9  1  0  0  0  0
 10 11  1  0  0  0  0
 10 41  1  1  0  0  0
 11 12  1  0  0  0  0
 11 13  1  0  0  0  0
 11 42  1  6  0  0  0
 12 43  1  0  0  0  0
 13 14  1  0  0  0  0
 13 44  1  0  0  0  0
 13 45  1  0  0  0  0
 14 15  2  0  0  0  0
 14 16  1  0  0  0  0
 16 17  1  0  0  0  0
 16 10  1  0  0  0  0
 16 46  1  1  0  0  0
 17 18  1  0  0  0  0
 17 47  1  0  0  0  0
 17 48  1  0  0  0  0
 18 19  2  0  0  0  0
 18 49  1  0  0  0  0
 19 20  1  0  0  0  0
 19 50  1  0  0  0  0
 20 21  1  0  0  0  0
 20 51  1  0  0  0  0
 20 52  1  0  0  0  0
 21 22  1  0  0  0  0
 21 53  1  0  0  0  0
 21 54  1  0  0  0  0
 22 23  1  0  0  0  0
 22 55  1  0  0  0  0
 22 56  1  0  0  0  0
 23 24  2  0  0  0  0
 23 25  1  0  0  0  0
 25 57  1  0  0  0  0
M  END
>  <IDENTIFIER>
CNP0410482.1

>  <Energy>
323.656

$$$$
