
 OpenBabel09082520333D

 74 78  0  0  0  0  0  0  0  0999 V2000
    2.0507   -1.5654   -0.4067 C   0  0  0  0  0  0  0  0  0  0  0  0
    0.7979   -0.9266    0.2333 C   0  0  1  0  0  0  0  0  0  0  0  0
    0.0527   -1.9663    1.1245 C   0  0  0  0  0  0  0  0  0  0  0  0
   -1.2582   -1.4034    1.7228 C   0  0  0  0  0  0  0  0  0  0  0  0
   -2.0573   -0.7534    0.5784 C   0  0  2  0  0  0  0  0  0  0  0  0
   -1.1793    0.3679   -0.1438 C   0  0  1  0  0  0  0  0  0  0  0  0
   -2.0415    1.3059   -1.0441 C   0  0  0  0  0  0  0  0  0  0  0  0
   -3.2370    0.5967   -1.6586 C   0  0  0  0  0  0  0  0  0  0  0  0
   -4.1722   -0.0552   -0.5790 C   0  0  1  0  0  0  0  0  0  0  0  0
   -3.5385   -0.3282    0.8438 C   0  0  2  0  0  0  0  0  0  0  0  0
   -3.5790    0.8839    1.8251 C   0  0  0  0  0  0  0  0  0  0  0  0
   -4.3642   -1.5183    1.4836 C   0  0  0  0  0  0  0  0  0  0  0  0
   -5.8293   -1.6625    0.9719 C   0  0  0  0  0  0  0  0  0  0  0  0
   -6.4457   -0.3029    0.6448 C   0  0  0  0  0  0  0  0  0  0  0  0
   -5.6926    0.4038   -0.5448 C   0  0  2  0  0  0  0  0  0  0  0  0
   -6.3454   -0.0270   -1.8889 C   0  0  0  0  0  0  0  0  0  0  0  0
   -5.8864    1.9114   -0.3944 C   0  0  0  0  0  0  0  0  0  0  0  0
   -4.9273    2.6595   -0.3043 O   0  0  0  0  0  0  0  0  0  0  0  0
   -7.1262    2.4501   -0.3536 O   0  0  0  0  0  0  0  0  0  0  0  0
   -0.2605    1.2358    0.7809 C   0  0  0  0  0  0  0  0  0  0  0  0
    0.9518    0.3694    1.0178 C   0  0  0  0  0  0  0  0  0  0  0  0
    2.0275    0.8345    1.5706 N   0  0  0  0  0  0  0  0  0  0  0  0
    3.1698    0.0786    1.6890 N   0  0  0  0  0  0  0  0  0  0  0  0
    4.3412    0.5192    1.1634 C   0  0  0  0  0  0  0  0  0  0  0  0
    4.4224    1.6619    0.7295 O   0  0  0  0  0  0  0  0  0  0  0  0
    5.3798   -0.3544    1.0059 N   0  0  0  0  0  0  0  0  0  0  0  0
    6.5341   -0.0331    0.2354 C   0  0  0  0  0  0  0  0  0  0  0  0
    6.7666   -0.8165   -0.9054 C   0  0  0  0  0  0  0  0  0  0  0  0
    7.8254   -0.5418   -1.7647 C   0  0  0  0  0  0  0  0  0  0  0  0
    8.7017    0.5195   -1.4977 C   0  0  0  0  0  0  0  0  0  0  0  0
    9.7874    0.8037   -2.3821 N   0  3  0  0  0  0  0  0  0  0  0  0
    9.9522    0.1544   -3.3704 O   0  0  0  0  0  0  0  0  0  0  0  0
   10.6168    1.7933   -2.1237 O   0  5  0  0  0  0  0  0  0  0  0  0
    8.4955    1.2938   -0.3416 C   0  0  0  0  0  0  0  0  0  0  0  0
    7.4227    1.0386    0.5417 C   0  0  0  0  0  0  0  0  0  0  0  0
    7.3003    1.8308    1.7314 N   0  3  0  0  0  0  0  0  0  0  0  0
    6.5250    1.5376    2.5896 O   0  0  0  0  0  0  0  0  0  0  0  0
    8.1497    2.8103    1.9634 O   0  5  0  0  0  0  0  0  0  0  0  0
   -0.1102   -0.4190   -0.9109 C   0  0  0  0  0  0  0  0  0  0  0  0
    2.7226   -2.0408    0.3289 H   0  0  0  0  0  0  0  0  0  0  0  0
    2.6173   -0.8170   -1.0008 H   0  0  0  0  0  0  0  0  0  0  0  0
    1.7410   -2.3869   -1.0878 H   0  0  0  0  0  0  0  0  0  0  0  0
    0.7045   -2.3157    1.9547 H   0  0  0  0  0  0  0  0  0  0  0  0
   -0.1963   -2.8476    0.4927 H   0  0  0  0  0  0  0  0  0  0  0  0
   -1.0443   -0.6507    2.5101 H   0  0  0  0  0  0  0  0  0  0  0  0
   -1.8103   -2.2336    2.2091 H   0  0  0  0  0  0  0  0  0  0  0  0
   -2.2028   -1.5862   -0.1509 H   0  0  0  0  0  0  0  0  0  0  0  0
   -1.4061    1.7797   -1.8236 H   0  0  0  0  0  0  0  0  0  0  0  0
   -2.4444    2.1511   -0.4633 H   0  0  0  0  0  0  0  0  0  0  0  0
   -2.8111   -0.1959   -2.3160 H   0  0  0  0  0  0  0  0  0  0  0  0
   -3.7967    1.2878   -2.3209 H   0  0  0  0  0  0  0  0  0  0  0  0
   -4.2335   -1.0859   -1.0011 H   0  0  0  0  0  0  0  0  0  0  0  0
   -4.5977    1.2295    2.0536 H   0  0  0  0  0  0  0  0  0  0  0  0
   -3.0374    1.7728    1.4816 H   0  0  0  0  0  0  0  0  0  0  0  0
   -3.1199    0.5976    2.7945 H   0  0  0  0  0  0  0  0  0  0  0  0
   -4.3412   -1.4192    2.5910 H   0  0  0  0  0  0  0  0  0  0  0  0
   -3.9050   -2.5054    1.2591 H   0  0  0  0  0  0  0  0  0  0  0  0
   -6.4236   -2.2285    1.7206 H   0  0  0  0  0  0  0  0  0  0  0  0
   -5.8497   -2.2602    0.0348 H   0  0  0  0  0  0  0  0  0  0  0  0
   -6.4044    0.2830    1.5813 H   0  0  0  0  0  0  0  0  0  0  0  0
   -7.5289   -0.3954    0.4115 H   0  0  0  0  0  0  0  0  0  0  0  0
   -7.4252    0.2277   -1.9180 H   0  0  0  0  0  0  0  0  0  0  0  0
   -6.2669   -1.1241   -2.0439 H   0  0  0  0  0  0  0  0  0  0  0  0
   -5.8654    0.4753   -2.7538 H   0  0  0  0  0  0  0  0  0  0  0  0
   -7.9283    1.9130   -0.4070 H   0  0  0  0  0  0  0  0  0  0  0  0
   -0.7585    1.5895    1.7062 H   0  0  0  0  0  0  0  0  0  0  0  0
    0.1149    2.1212    0.2198 H   0  0  0  0  0  0  0  0  0  0  0  0
    3.0973   -0.8868    2.0409 H   0  0  0  0  0  0  0  0  0  0  0  0
    5.1950   -1.3490    1.2089 H   0  0  0  0  0  0  0  0  0  0  0  0
    6.0930   -1.6295   -1.1481 H   0  0  0  0  0  0  0  0  0  0  0  0
    7.9526   -1.1578   -2.6458 H   0  0  0  0  0  0  0  0  0  0  0  0
    9.1844    2.0993   -0.1247 H   0  0  0  0  0  0  0  0  0  0  0  0
    0.4714    0.2800   -1.5592 H   0  0  0  0  0  0  0  0  0  0  0  0
   -0.5074   -1.2215   -1.5703 H   0  0  0  0  0  0  0  0  0  0  0  0
  1 40  1  0  0  0  0
  1 41  1  0  0  0  0
  1 42  1  0  0  0  0
  2  1  1  6  0  0  0
  2  3  1  0  0  0  0
  3  4  1  0  0  0  0
  3 43  1  0  0  0  0
  3 44  1  0  0  0  0
  4 45  1  0  0  0  0
  4 46  1  0  0  0  0
  5  4  1  0  0  0  0
  5  6  1  0  0  0  0
  5 47  1  6  0  0  0
  6  7  1  6  0  0  0
  6 20  1  0  0  0  0
  6 39  1  0  0  0  0
  7  8  1  0  0  0  0
  7 48  1  0  0  0  0
  7 49  1  0  0  0  0
  8 50  1  0  0  0  0
  8 51  1  0  0  0  0
  9  8  1  0  0  0  0
  9 10  1  0  0  0  0
  9 52  1  6  0  0  0
 10 11  1  1  0  0  0
 10 12  1  0  0  0  0
 10  5  1  0  0  0  0
 11 53  1  0  0  0  0
 11 54  1  0  0  0  0
 11 55  1  0  0  0  0
 12 13  1  0  0  0  0
 12 56  1  0  0  0  0
 12 57  1  0  0  0  0
 13 14  1  0  0  0  0
 13 58  1  0  0  0  0
 13 59  1  0  0  0  0
 14 15  1  0  0  0  0
 14 60  1  0  0  0  0
 14 61  1  0  0  0  0
 15 16  1  0  0  0  0
 15 17  1  1  0  0  0
 15  9  1  0  0  0  0
 16 62  1  0  0  0  0
 16 63  1  0  0  0  0
 16 64  1  0  0  0  0
 17 18  2  0  0  0  0
 17 19  1  0  0  0  0
 19 65  1  0  0  0  0
 20 21  1  0  0  0  0
 20 66  1  0  0  0  0
 20 67  1  0  0  0  0
 21 22  2  0  0  0  0
 21  2  1  0  0  0  0
 22 23  1  0  0  0  0
 23 24  1  0  0  0  0
 23 68  1  0  0  0  0
 24 25  2  0  0  0  0
 24 26  1  0  0  0  0
 26 27  1  0  0  0  0
 26 69  1  0  0  0  0
 27 28  2  0  0  0  0
 28 29  1  0  0  0  0
 28 70  1  0  0  0  0
 29 30  2  0  0  0  0
 29 71  1  0  0  0  0
 30 31  1  0  0  0  0
 30 34  1  0  0  0  0
 31 32  2  0  0  0  0
 31 33  1  0  0  0  0
 34 35  2  0  0  0  0
 34 72  1  0  0  0  0
 35 36  1  0  0  0  0
 35 27  1  0  0  0  0
 36 37  2  0  0  0  0
 36 38  1  0  0  0  0
 39  2  1  0  0  0  0
 39 73  1  0  0  0  0
 39 74  1  0  0  0  0
M  CHG  4  31   1  33  -1  36   1  38  -1
M  END
>  <IDENTIFIER>
CNP0497056.2

>  <Energy>
1104.54

$$$$
