
 OpenBabel09102518232D

 79 84  0  0  0  0  0  0  0  0999 V2000
    2.1613   -3.7240    0.0000 C   0  0  0  0  0  0  0  0  0  0  0  0
    2.1613   -5.2240    0.0000 C   0  0  2  0  0  0  0  0  0  0  0  0
    2.6744   -6.6335    0.0000 C   0  0  2  0  0  0  0  0  0  0  0  0
    3.9734   -5.8835    0.0000 C   0  0  0  0  0  0  0  0  0  0  0  0
    2.1989   -7.5610   -1.1125 C   0  0  0  0  0  0  0  0  0  0  0  0
    0.7252   -7.8246   -0.7992 C   0  0  0  0  0  0  0  0  0  0  0  0
   -0.0413   -6.5022   -0.8570 C   0  0  0  0  0  0  0  0  0  0  0  0
    0.4806   -5.3560    0.0773 C   0  0  2  0  0  0  0  0  0  0  0  0
   -0.3361   -4.1500   -0.3953 N   0  0  0  0  0  0  0  0  0  0  0  0
   -1.2564   -3.3590    0.3055 C   0  0  0  0  0  0  0  0  0  0  0  0
   -1.4286   -3.5652    1.4989 O   0  0  0  0  0  0  0  0  0  0  0  0
   -2.0396   -2.1330   -0.4005 C   0  0  2  0  0  0  0  0  0  0  0  0
   -3.4932   -1.6449   -0.1507 N   0  0  0  0  0  0  0  0  0  0  0  0
   -4.8600   -2.2501   -0.6297 C   0  0  2  0  0  0  0  0  0  0  0  0
   -6.0956   -1.2995   -0.6332 C   0  0  0  0  0  0  0  0  0  0  0  0
   -7.3101   -1.9279   -1.3551 C   0  0  0  0  0  0  0  0  0  0  0  0
   -7.7122   -3.2877   -0.7621 C   0  0  0  0  0  0  0  0  0  0  0  0
   -6.5259   -4.2560   -0.8121 C   0  0  0  0  0  0  0  0  0  0  0  0
   -5.3929   -3.6252    0.0000 C   0  0  2  0  0  0  0  0  0  0  0  0
   -4.0225   -4.2353    0.0000 C   0  0  0  0  0  0  0  0  0  0  0  0
   -3.3924   -0.2978    0.1394 C   0  0  0  0  0  0  0  0  0  0  0  0
   -4.3455    0.4346    0.3422 O   0  0  0  0  0  0  0  0  0  0  0  0
   -2.0384    0.2909   -0.1439 C   0  0  2  0  0  0  0  0  0  0  0  0
   -1.4137    1.2524    0.8854 C   0  0  1  0  0  0  0  0  0  0  0  0
   -0.8644    2.5438    0.2838 C   0  0  0  0  0  0  0  0  0  0  0  0
   -0.0397    2.4674   -0.6123 O   0  0  0  0  0  0  0  0  0  0  0  0
   -1.3135    3.7588    0.7215 N   0  0  0  0  0  0  0  0  0  0  0  0
   -0.8454    5.0502    0.2893 C   0  0  0  0  0  0  0  0  0  0  0  0
    0.3585    5.2553   -0.4320 C   0  0  0  0  0  0  0  0  0  0  0  0
    0.7582    6.5437   -0.8002 C   0  0  0  0  0  0  0  0  0  0  0  0
   -0.0261    7.6457   -0.4655 C   0  0  0  0  0  0  0  0  0  0  0  0
   -1.2108    7.4672    0.2473 C   0  0  0  0  0  0  0  0  0  0  0  0
   -2.1955    8.8563    0.6686 Cl  0  0  0  0  0  0  0  0  0  0  0  0
   -1.6135    6.1818    0.6267 C   0  0  0  0  0  0  0  0  0  0  0  0
   -0.3161    0.3354    1.4667 C   0  0  2  0  0  0  0  0  0  0  0  0
    0.7640    0.0584    0.4550 C   0  0  0  0  0  0  0  0  0  0  0  0
    0.1731   -0.7624   -0.4591 C   0  0  0  0  0  0  0  0  0  0  0  0
   -1.2046   -0.9380    0.0789 C   0  0  1  0  0  0  0  0  0  0  0  0
   -0.9892   -0.8927    1.4824 O   0  0  0  0  0  0  0  0  0  0  0  0
    3.2099   -3.5357   -0.3371 H   0  0  0  0  0  0  0  0  0  0  0  0
    2.1524   -3.6288    1.1086 H   0  0  0  0  0  0  0  0  0  0  0  0
    2.1613   -2.6540    0.0000 H   0  0  0  0  0  0  0  0  0  0  0  0
    2.1742   -5.1134   -1.1379 H   0  0  0  0  0  0  0  0  0  0  0  0
    2.5345   -7.1343    0.9898 H   0  0  0  0  0  0  0  0  0  0  0  0
    4.5975   -6.7718   -0.2408 H   0  0  0  0  0  0  0  0  0  0  0  0
    4.1238   -5.7346    1.1137 H   0  0  0  0  0  0  0  0  0  0  0  0
    4.9000   -5.3485    0.0000 H   0  0  0  0  0  0  0  0  0  0  0  0
    2.3241   -7.1143   -2.1234 H   0  0  0  0  0  0  0  0  0  0  0  0
    2.7708   -8.5125   -1.0752 H   0  0  0  0  0  0  0  0  0  0  0  0
    0.3040   -8.5302   -1.5473 H   0  0  0  0  0  0  0  0  0  0  0  0
    0.6130   -8.2837    0.2084 H   0  0  0  0  0  0  0  0  0  0  0  0
   -1.1200   -6.6819   -0.6549 H   0  0  0  0  0  0  0  0  0  0  0  0
    0.0431   -6.1548   -1.9114 H   0  0  0  0  0  0  0  0  0  0  0  0
    0.2281   -5.5986    1.1334 H   0  0  0  0  0  0  0  0  0  0  0  0
   -0.2030   -3.8894   -1.3851 H   0  0  0  0  0  0  0  0  0  0  0  0
   -1.9122   -2.2062   -1.5025 H   0  0  0  0  0  0  0  0  0  0  0  0
   -4.6819   -2.4465   -1.7146 H   0  0  0  0  0  0  0  0  0  0  0  0
   -6.3790   -1.0601    0.4164 H   0  0  0  0  0  0  0  0  0  0  0  0
   -5.8763   -0.3653   -1.1910 H   0  0  0  0  0  0  0  0  0  0  0  0
   -8.1740   -1.2305   -1.2953 H   0  0  0  0  0  0  0  0  0  0  0  0
   -7.0562   -2.0696   -2.4280 H   0  0  0  0  0  0  0  0  0  0  0  0
   -8.5650   -3.7077   -1.3368 H   0  0  0  0  0  0  0  0  0  0  0  0
   -8.0404   -3.1520    0.2930 H   0  0  0  0  0  0  0  0  0  0  0  0
   -6.8112   -5.2347   -0.3710 H   0  0  0  0  0  0  0  0  0  0  0  0
   -6.2151   -4.4163   -1.8678 H   0  0  0  0  0  0  0  0  0  0  0  0
   -5.7079   -3.4706    1.0583 H   0  0  0  0  0  0  0  0  0  0  0  0
   -4.3192   -5.1655    0.5321 H   0  0  0  0  0  0  0  0  0  0  0  0
   -3.9454   -4.4760   -1.0880 H   0  0  0  0  0  0  0  0  0  0  0  0
   -3.0450   -4.6705    0.0000 H   0  0  0  0  0  0  0  0  0  0  0  0
   -2.0145    0.6500   -1.1985 H   0  0  0  0  0  0  0  0  0  0  0  0
   -2.1605    1.4642    1.6821 H   0  0  0  0  0  0  0  0  0  0  0  0
   -2.0737    3.7510    1.4175 H   0  0  0  0  0  0  0  0  0  0  0  0
    1.0243    4.4569   -0.7078 H   0  0  0  0  0  0  0  0  0  0  0  0
    1.6836    6.6866   -1.3443 H   0  0  0  0  0  0  0  0  0  0  0  0
    0.2939    8.6395   -0.7572 H   0  0  0  0  0  0  0  0  0  0  0  0
   -2.5359    6.0620    1.1812 H   0  0  0  0  0  0  0  0  0  0  0  0
    0.0903    0.6855    2.4386 H   0  0  0  0  0  0  0  0  0  0  0  0
    1.8066    0.3460    0.4758 H   0  0  0  0  0  0  0  0  0  0  0  0
    0.6515   -1.2528   -1.2967 H   0  0  0  0  0  0  0  0  0  0  0  0
  1 40  1  0  0  0  0
  1 41  1  0  0  0  0
  1 42  1  0  0  0  0
  2  1  1  0  0  0  0
  2  3  1  0  0  0  0
  2 43  1  1  0  0  0
  3  4  1  0  0  0  0
  3  5  1  0  0  0  0
  3 44  1  1  0  0  0
  4 45  1  0  0  0  0
  4 46  1  0  0  0  0
  4 47  1  0  0  0  0
  5  6  1  0  0  0  0
  5 48  1  0  0  0  0
  5 49  1  0  0  0  0
  6  7  1  0  0  0  0
  6 50  1  0  0  0  0
  6 51  1  0  0  0  0
  7  8  1  0  0  0  0
  7 52  1  0  0  0  0
  7 53  1  0  0  0  0
  8  9  1  0  0  0  0
  8  2  1  0  0  0  0
  8 54  1  1  0  0  0
  9 10  1  0  0  0  0
  9 55  1  0  0  0  0
 10 11  2  0  0  0  0
 12 10  1  0  0  0  0
 12 13  1  0  0  0  0
 12 56  1  1  0  0  0
 13 21  1  0  0  0  0
 14 13  1  0  0  0  0
 14 15  1  0  0  0  0
 14 57  1  6  0  0  0
 15 16  1  0  0  0  0
 15 58  1  0  0  0  0
 15 59  1  0  0  0  0
 16 17  1  0  0  0  0
 16 60  1  0  0  0  0
 16 61  1  0  0  0  0
 17 18  1  0  0  0  0
 17 62  1  0  0  0  0
 17 63  1  0  0  0  0
 18 19  1  0  0  0  0
 18 64  1  0  0  0  0
 18 65  1  0  0  0  0
 19 20  1  0  0  0  0
 19 14  1  0  0  0  0
 19 66  1  6  0  0  0
 20 67  1  0  0  0  0
 20 68  1  0  0  0  0
 20 69  1  0  0  0  0
 21 22  2  0  0  0  0
 23 21  1  0  0  0  0
 23 24  1  0  0  0  0
 23 70  1  1  0  0  0
 24 25  1  0  0  0  0
 24 35  1  0  0  0  0
 24 71  1  6  0  0  0
 25 26  2  0  0  0  0
 25 27  1  0  0  0  0
 27 28  1  0  0  0  0
 27 72  1  0  0  0  0
 28 29  2  0  0  0  0
 29 30  1  0  0  0  0
 29 73  1  0  0  0  0
 30 31  2  0  0  0  0
 30 74  1  0  0  0  0
 31 32  1  0  0  0  0
 31 75  1  0  0  0  0
 32 33  1  0  0  0  0
 32 34  2  0  0  0  0
 34 28  1  0  0  0  0
 34 76  1  0  0  0  0
 35 36  1  0  0  0  0
 35 77  1  1  0  0  0
 36 37  2  0  0  0  0
 36 78  1  0  0  0  0
 37 79  1  0  0  0  0
 38 37  1  1  0  0  0
 38 39  1  0  0  0  0
 38 12  1  0  0  0  0
 38 23  1  0  0  0  0
 39 35  1  0  0  0  0
M  END
>  <IDENTIFIER>
CNP0516892.4

>  <Energy>
2780.67

$$$$
