
 OpenBabel09092518442D

155154  0  0  0  0  0  0  0  0999 V2000
    0.1508   -2.7535   -0.0680 C   0  0  0  0  0  0  0  0  0  0  0  0
   -0.1694   -1.2628   -0.0973 C   0  0  0  0  0  0  0  0  0  0  0  0
    0.9711   -0.2556   -0.1178 C   0  0  0  0  0  0  0  0  0  0  0  0
    2.3161   -0.4131   -0.0805 C   0  0  0  0  0  0  0  0  0  0  0  0
    3.0714   -1.7204    0.0130 C   0  0  0  0  0  0  0  0  0  0  0  0
    4.5987   -1.7521    0.1223 C   0  0  0  0  0  0  0  0  0  0  0  0
    5.5577   -0.7915    0.0896 C   0  0  0  0  0  0  0  0  0  0  0  0
    5.3468    0.6881   -0.1094 C   0  0  0  0  0  0  0  0  0  0  0  0
    6.5307    1.6475   -0.0601 C   0  0  0  0  0  0  0  0  0  0  0  0
    7.8504    1.4980   -0.3250 C   0  0  0  0  0  0  0  0  0  0  0  0
    8.5872    0.2836   -0.8252 C   0  0  0  0  0  0  0  0  0  0  0  0
    9.4090   -0.3221    0.2836 C   0  0  0  0  0  0  0  0  0  0  0  0
   10.4978    0.2125    0.8746 C   0  0  0  0  0  0  0  0  0  0  0  0
   11.1915    1.5115    0.5088 C   0  0  0  0  0  0  0  0  0  0  0  0
   12.3370    1.7034    1.5031 C   0  0  0  0  0  2  0  0  0  0  0  0
   13.5586    2.5266    1.0875 C   0  0  0  0  0  0  0  0  0  0  0  0
   13.3442    4.0450    0.9131 C   0  0  0  0  0  0  0  0  0  0  0  0
   14.7296    4.7283    0.8931 C   0  0  0  0  0  0  0  0  0  0  0  0
   14.7300    6.2630    0.6928 C   0  0  0  0  0  0  0  0  0  0  0  0
   16.1238    6.8422    0.9348 C   0  0  0  0  0  0  0  0  0  0  0  0
   17.0163    6.1088    1.3345 O   0  0  0  0  0  0  0  0  0  0  0  0
   16.4405    8.1506    0.7449 O   0  0  0  0  0  0  0  0  0  0  0  0
   15.7500    9.0933    0.0000 C   0  0  0  0  0  0  0  0  0  0  0  0
   16.5000   10.3923    0.0000 C   0  0  2  0  0  0  0  0  0  0  0  0
   17.8337    9.7050   -0.8541 C   0  0  0  0  0  0  0  0  0  0  0  0
   19.1182    9.5014   -0.2092 O   0  0  0  0  0  0  0  0  0  0  0  0
   20.2707    8.8163   -0.7211 C   0  0  0  0  0  0  0  0  0  0  0  0
   20.1655    8.1260   -1.7215 O   0  0  0  0  0  0  0  0  0  0  0  0
   21.6962    8.8923    0.0000 C   0  0  0  0  0  0  0  0  0  0  0  0
   22.9952    8.1423    0.0000 C   0  0  0  0  0  0  0  0  0  0  0  0
   24.2942    7.3923    0.0000 C   0  0  0  0  0  0  0  0  0  0  0  0
   25.5933    6.6423    0.0000 C   0  0  0  0  0  0  0  0  0  0  0  0
   26.8923    5.8923    0.0000 C   0  0  0  0  0  2  0  0  0  0  0  0
   28.1913    5.1423    0.0000 C   0  0  0  0  0  0  0  0  0  0  0  0
   28.7537    4.9065    1.4063 C   0  0  0  0  0  0  0  0  0  0  0  0
   30.1554    4.3411    1.3275 C   0  0  0  0  0  0  0  0  0  0  0  0
   30.5243    3.0473    1.1967 C   0  0  0  0  0  0  0  0  0  0  0  0
   29.6355    1.8237    1.1665 C   0  0  0  0  0  0  0  0  0  0  0  0
   30.0570    0.9519    2.3335 C   0  0  0  0  0  0  0  0  0  0  0  0
   30.6184   -0.2785    2.2695 C   0  0  0  0  0  0  0  0  0  0  0  0
   30.8778   -1.0734    1.0068 C   0  0  0  0  0  0  0  0  0  0  0  0
   31.8843   -2.2267    1.2597 C   0  0  0  0  0  0  0  0  0  0  0  0
   32.0885   -3.1077    0.0000 C   0  0  0  0  0  0  0  0  0  0  0  0
   33.3875   -3.8577    0.0000 C   0  0  0  0  0  0  0  0  0  0  0  0
   34.6865   -4.6077    0.0000 C   0  0  0  0  0  0  0  0  0  0  0  0
   17.2500   11.6913    0.0000 O   0  0  0  0  0  0  0  0  0  0  0  0
   17.0819   13.0678    0.0408 C   0  0  0  0  0  0  0  0  0  0  0  0
   15.9532   13.5307    0.0892 O   0  0  0  0  0  0  0  0  0  0  0  0
   18.3477   14.0428    0.0011 C   0  0  0  0  0  0  0  0  0  0  0  0
   18.0000   15.5885    0.0000 C   0  0  0  0  0  0  0  0  0  0  0  0
   18.7500   16.8875    0.0000 C   0  0  0  0  0  2  0  0  0  0  0  0
   19.5000   18.1865    0.0000 C   0  0  0  0  0  0  0  0  0  0  0  0
   20.2500   19.4856    0.0000 C   0  0  0  0  0  0  0  0  0  0  0  0
   21.0000   20.7846    0.0000 C   0  0  0  0  0  2  0  0  0  0  0  0
   21.7500   22.0836    0.0000 C   0  0  0  0  0  0  0  0  0  0  0  0
   22.7725   22.1537   -1.1450 C   0  0  0  0  0  0  0  0  0  0  0  0
   24.1382   22.3482   -1.1494 C   0  0  0  0  0  0  0  0  0  0  0  0
   25.1488   22.5570   -0.0087 C   0  0  0  0  0  0  0  0  0  0  0  0
   26.1622   21.4170   -0.0159 C   0  0  0  0  0  0  0  0  0  0  0  0
   27.5339   21.3310   -0.0953 C   0  0  0  0  0  0  0  0  0  0  0  0
   28.7880   22.2388   -0.1825 C   0  0  0  0  0  0  0  0  0  0  0  0
   28.7457   23.7721   -0.0995 C   0  0  0  0  0  0  0  0  0  0  0  0
   30.1945   24.4562   -0.1467 C   0  0  0  0  0  0  0  0  0  0  0  0
   30.0000   25.9808    0.0000 C   0  0  0  0  0  0  0  0  0  0  0  0
   30.7500   27.2798    0.0000 C   0  0  0  0  0  0  0  0  0  0  0  0
   -0.8036   -3.3222   -0.0715 H   0  0  0  0  0  0  0  0  0  0  0  0
    0.6899   -3.0311    0.8579 H   0  0  0  0  0  0  0  0  0  0  0  0
    0.7150   -3.0531   -0.9730 H   0  0  0  0  0  0  0  0  0  0  0  0
   -0.7989   -1.0345    0.7899 H   0  0  0  0  0  0  0  0  0  0  0  0
   -0.7829   -1.0768   -1.0047 H   0  0  0  0  0  0  0  0  0  0  0  0
    0.6242    0.7742   -0.1664 H   0  0  0  0  0  0  0  0  0  0  0  0
    2.8492    0.5122   -0.1072 H   0  0  0  0  0  0  0  0  0  0  0  0
    2.8111   -2.3377   -0.8694 H   0  0  0  0  0  0  0  0  0  0  0  0
    2.7200   -2.2209    0.9361 H   0  0  0  0  0  0  0  0  0  0  0  0
    4.9763   -2.7631    0.2618 H   0  0  0  0  0  0  0  0  0  0  0  0
    6.5604   -1.1551    0.2417 H   0  0  0  0  0  0  0  0  0  0  0  0
    4.7215    0.9958    0.7541 H   0  0  0  0  0  0  0  0  0  0  0  0
    4.8049    0.8820   -1.0584 H   0  0  0  0  0  0  0  0  0  0  0  0
    6.2450    2.6503    0.2476 H   0  0  0  0  0  0  0  0  0  0  0  0
    8.4582    2.3786   -0.1632 H   0  0  0  0  0  0  0  0  0  0  0  0
    9.2211    0.5414   -1.6994 H   0  0  0  0  0  0  0  0  0  0  0  0
    7.8776   -0.4708   -1.2021 H   0  0  0  0  0  0  0  0  0  0  0  0
    9.0817   -1.2941    0.6449 H   0  0  0  0  0  0  0  0  0  0  0  0
   10.9320   -0.3793    1.6789 H   0  0  0  0  0  0  0  0  0  0  0  0
   10.5197    2.3857    0.5891 H   0  0  0  0  0  0  0  0  0  0  0  0
   11.5793    1.4242   -0.5283 H   0  0  0  0  0  0  0  0  0  0  0  0
   14.0245    2.0937    0.1757 H   0  0  0  0  0  0  0  0  0  0  0  0
   14.2705    2.3730    1.9266 H   0  0  0  0  0  0  0  0  0  0  0  0
   12.7782    4.4470    1.7813 H   0  0  0  0  0  0  0  0  0  0  0  0
   12.7707    4.2421   -0.0181 H   0  0  0  0  0  0  0  0  0  0  0  0
   15.1983    4.5074    1.8784 H   0  0  0  0  0  0  0  0  0  0  0  0
   15.3601    4.2768    0.0943 H   0  0  0  0  0  0  0  0  0  0  0  0
   14.3901    6.4852   -0.3410 H   0  0  0  0  0  0  0  0  0  0  0  0
   14.0343    6.7434    1.4129 H   0  0  0  0  0  0  0  0  0  0  0  0
   15.5391    8.6737   -1.0187 H   0  0  0  0  0  0  0  0  0  0  0  0
   14.7486    9.2481    0.4657 H   0  0  0  0  0  0  0  0  0  0  0  0
   15.7409   10.7692   -0.7246 H   0  0  0  0  0  0  0  0  0  0  0  0
   17.6162    8.7639   -1.4132 H   0  0  0  0  0  0  0  0  0  0  0  0
   18.0378   10.3700   -1.7256 H   0  0  0  0  0  0  0  0  0  0  0  0
   21.9136    9.9925   -0.0297 H   0  0  0  0  0  0  0  0  0  0  0  0
   21.3429    8.6831    1.0382 H   0  0  0  0  0  0  0  0  0  0  0  0
   23.2349    8.6124   -0.9909 H   0  0  0  0  0  0  0  0  0  0  0  0
   23.4195    8.8070    0.8051 H   0  0  0  0  0  0  0  0  0  0  0  0
   23.9771    6.8431    0.9318 H   0  0  0  0  0  0  0  0  0  0  0  0
   23.9252    6.7213   -0.8272 H   0  0  0  0  0  0  0  0  0  0  0  0
   25.9393    7.1583   -0.9293 H   0  0  0  0  0  0  0  0  0  0  0  0
   25.9916    7.2416    0.8557 H   0  0  0  0  0  0  0  0  0  0  0  0
   28.0496    4.1690   -0.5157 H   0  0  0  0  0  0  0  0  0  0  0  0
   28.9139    5.7477   -0.5888 H   0  0  0  0  0  0  0  0  0  0  0  0
   28.0916    4.2888    2.0496 H   0  0  0  0  0  0  0  0  0  0  0  0
   28.8387    5.9081    1.8824 H   0  0  0  0  0  0  0  0  0  0  0  0
   30.9596    5.0702    1.3853 H   0  0  0  0  0  0  0  0  0  0  0  0
   31.5925    2.8519    1.1396 H   0  0  0  0  0  0  0  0  0  0  0  0
   29.7806    1.3049    0.1974 H   0  0  0  0  0  0  0  0  0  0  0  0
   28.5620    2.0861    1.2627 H   0  0  0  0  0  0  0  0  0  0  0  0
   29.9438    1.3904    3.3218 H   0  0  0  0  0  0  0  0  0  0  0  0
   30.9274   -0.7225    3.2125 H   0  0  0  0  0  0  0  0  0  0  0  0
   29.9084   -1.4469    0.6131 H   0  0  0  0  0  0  0  0  0  0  0  0
   31.3449   -0.4110    0.2460 H   0  0  0  0  0  0  0  0  0  0  0  0
   31.5752   -2.8799    2.1048 H   0  0  0  0  0  0  0  0  0  0  0  0
   32.8409   -1.7313    1.5391 H   0  0  0  0  0  0  0  0  0  0  0  0
   32.0729   -2.4245   -0.8913 H   0  0  0  0  0  0  0  0  0  0  0  0
   31.2010   -3.7778   -0.0971 H   0  0  0  0  0  0  0  0  0  0  0  0
   33.9681   -2.9036   -0.0667 H   0  0  0  0  0  0  0  0  0  0  0  0
   33.0765   -4.2900   -0.9939 H   0  0  0  0  0  0  0  0  0  0  0  0
   34.2497   -5.6290    0.1066 H   0  0  0  0  0  0  0  0  0  0  0  0
   35.0737   -4.3915   -1.0359 H   0  0  0  0  0  0  0  0  0  0  0  0
   35.6131   -5.1427    0.0000 H   0  0  0  0  0  0  0  0  0  0  0  0
   18.9844   13.8227    0.8835 H   0  0  0  0  0  0  0  0  0  0  0  0
   18.9322   13.8207   -0.9163 H   0  0  0  0  0  0  0  0  0  0  0  0
   17.3233   15.7075   -0.8725 H   0  0  0  0  0  0  0  0  0  0  0  0
   17.3492   15.7071    0.8920 H   0  0  0  0  0  0  0  0  0  0  0  0
   20.0552   17.8177    0.8964 H   0  0  0  0  0  0  0  0  0  0  0  0
   20.0562   17.8171   -0.8955 H   0  0  0  0  0  0  0  0  0  0  0  0
   19.6938   19.8551    0.8954 H   0  0  0  0  0  0  0  0  0  0  0  0
   19.6953   19.8544   -0.8966 H   0  0  0  0  0  0  0  0  0  0  0  0
   22.2585   22.2053    0.9777 H   0  0  0  0  0  0  0  0  0  0  0  0
   21.0188   22.9092   -0.1222 H   0  0  0  0  0  0  0  0  0  0  0  0
   22.3230   22.0383   -2.1281 H   0  0  0  0  0  0  0  0  0  0  0  0
   24.5975   22.3539   -2.1347 H   0  0  0  0  0  0  0  0  0  0  0  0
   24.6152   22.5503    0.9637 H   0  0  0  0  0  0  0  0  0  0  0  0
   25.6648   23.5322   -0.1275 H   0  0  0  0  0  0  0  0  0  0  0  0
   25.6656   20.4508    0.0559 H   0  0  0  0  0  0  0  0  0  0  0  0
   27.8653   20.2944   -0.0918 H   0  0  0  0  0  0  0  0  0  0  0  0
   29.4415   21.9155    0.6567 H   0  0  0  0  0  0  0  0  0  0  0  0
   29.3082   21.9726   -1.1278 H   0  0  0  0  0  0  0  0  0  0  0  0
   28.1228   24.1493   -0.9392 H   0  0  0  0  0  0  0  0  0  0  0  0
   28.2442   24.0382    0.8564 H   0  0  0  0  0  0  0  0  0  0  0  0
   30.6912   24.2267   -1.1136 H   0  0  0  0  0  0  0  0  0  0  0  0
   30.8264   24.0815    0.6867 H   0  0  0  0  0  0  0  0  0  0  0  0
   29.4124   26.0324    0.9520 H   0  0  0  0  0  0  0  0  0  0  0  0
   29.2837   26.1791   -0.8318 H   0  0  0  0  0  0  0  0  0  0  0  0
   31.3591   27.0534    0.9029 H   0  0  0  0  0  0  0  0  0  0  0  0
   29.8931   27.9580    0.2325 H   0  0  0  0  0  0  0  0  0  0  0  0
   31.2850   28.2064    0.0000 H   0  0  0  0  0  0  0  0  0  0  0  0
  1  2  1  0  0  0  0
  1 66  1  0  0  0  0
  1 67  1  0  0  0  0
  1 68  1  0  0  0  0
  2  3  1  0  0  0  0
  2 69  1  0  0  0  0
  2 70  1  0  0  0  0
  3  4  2  0  0  0  0
  3 71  1  0  0  0  0
  4  5  1  0  0  0  0
  4 72  1  0  0  0  0
  5  6  1  0  0  0  0
  5 73  1  0  0  0  0
  5 74  1  0  0  0  0
  6  7  2  0  0  0  0
  6 75  1  0  0  0  0
  7  8  1  0  0  0  0
  7 76  1  0  0  0  0
  8  9  1  0  0  0  0
  8 77  1  0  0  0  0
  8 78  1  0  0  0  0
  9 10  2  0  0  0  0
  9 79  1  0  0  0  0
 10 11  1  0  0  0  0
 10 80  1  0  0  0  0
 11 12  1  0  0  0  0
 11 81  1  0  0  0  0
 11 82  1  0  0  0  0
 12 13  2  0  0  0  0
 12 83  1  0  0  0  0
 13 14  1  0  0  0  0
 13 84  1  0  0  0  0
 14 15  1  0  0  0  0
 14 85  1  0  0  0  0
 14 86  1  0  0  0  0
 15 16  1  0  0  0  0
 16 17  1  0  0  0  0
 16 87  1  0  0  0  0
 16 88  1  0  0  0  0
 17 18  1  0  0  0  0
 17 89  1  0  0  0  0
 17 90  1  0  0  0  0
 18 19  1  0  0  0  0
 18 91  1  0  0  0  0
 18 92  1  0  0  0  0
 19 20  1  0  0  0  0
 19 93  1  0  0  0  0
 19 94  1  0  0  0  0
 20 21  2  0  0  0  0
 20 22  1  0  0  0  0
 22 23  1  0  0  0  0
 23 95  1  0  0  0  0
 23 96  1  0  0  0  0
 24 23  1  0  0  0  0
 24 25  1  0  0  0  0
 24 46  1  0  0  0  0
 24 97  1  6  0  0  0
 25 26  1  0  0  0  0
 25 98  1  0  0  0  0
 25 99  1  0  0  0  0
 26 27  1  0  0  0  0
 27 28  2  0  0  0  0
 27 29  1  0  0  0  0
 29 30  1  0  0  0  0
 29100  1  0  0  0  0
 29101  1  0  0  0  0
 30 31  1  0  0  0  0
 30102  1  0  0  0  0
 30103  1  0  0  0  0
 31 32  1  0  0  0  0
 31104  1  0  0  0  0
 31105  1  0  0  0  0
 32 33  1  0  0  0  0
 32106  1  0  0  0  0
 32107  1  0  0  0  0
 33 34  1  0  0  0  0
 34 35  1  0  0  0  0
 34108  1  0  0  0  0
 34109  1  0  0  0  0
 35 36  1  0  0  0  0
 35110  1  0  0  0  0
 35111  1  0  0  0  0
 36 37  2  0  0  0  0
 36112  1  0  0  0  0
 37 38  1  0  0  0  0
 37113  1  0  0  0  0
 38 39  1  0  0  0  0
 38114  1  0  0  0  0
 38115  1  0  0  0  0
 39 40  2  0  0  0  0
 39116  1  0  0  0  0
 40 41  1  0  0  0  0
 40117  1  0  0  0  0
 41 42  1  0  0  0  0
 41118  1  0  0  0  0
 41119  1  0  0  0  0
 42 43  1  0  0  0  0
 42120  1  0  0  0  0
 42121  1  0  0  0  0
 43 44  1  0  0  0  0
 43122  1  0  0  0  0
 43123  1  0  0  0  0
 44 45  1  0  0  0  0
 44124  1  0  0  0  0
 44125  1  0  0  0  0
 45126  1  0  0  0  0
 45127  1  0  0  0  0
 45128  1  0  0  0  0
 46 47  1  0  0  0  0
 47 48  2  0  0  0  0
 47 49  1  0  0  0  0
 49 50  1  0  0  0  0
 49129  1  0  0  0  0
 49130  1  0  0  0  0
 50 51  1  0  0  0  0
 50131  1  0  0  0  0
 50132  1  0  0  0  0
 51 52  1  0  0  0  0
 52 53  1  0  0  0  0
 52133  1  0  0  0  0
 52134  1  0  0  0  0
 53 54  1  0  0  0  0
 53135  1  0  0  0  0
 53136  1  0  0  0  0
 54 55  1  0  0  0  0
 55 56  1  0  0  0  0
 55137  1  0  0  0  0
 55138  1  0  0  0  0
 56 57  2  0  0  0  0
 56139  1  0  0  0  0
 57 58  1  0  0  0  0
 57140  1  0  0  0  0
 58 59  1  0  0  0  0
 58141  1  0  0  0  0
 58142  1  0  0  0  0
 59 60  2  0  0  0  0
 59143  1  0  0  0  0
 60 61  1  0  0  0  0
 60144  1  0  0  0  0
 61 62  1  0  0  0  0
 61145  1  0  0  0  0
 61146  1  0  0  0  0
 62 63  1  0  0  0  0
 62147  1  0  0  0  0
 62148  1  0  0  0  0
 63 64  1  0  0  0  0
 63149  1  0  0  0  0
 63150  1  0  0  0  0
 64 65  1  0  0  0  0
 64151  1  0  0  0  0
 64152  1  0  0  0  0
 65153  1  0  0  0  0
 65154  1  0  0  0  0
 65155  1  0  0  0  0
M  END
>  <IDENTIFIER>
CNP0578313.1

>  <Energy>
5731.65

$$$$
