
 OpenBabel09072502453D

 93 97  0  0  0  0  0  0  0  0999 V2000
  -10.0026    0.4681   -1.7949 C   0  0  0  0  0  0  0  0  0  0  0  0
   -9.1886   -0.7734   -2.1972 C   0  0  0  0  0  0  0  0  0  0  0  0
  -10.0854   -2.0161   -2.1245 C   0  0  0  0  0  0  0  0  0  0  0  0
   -7.9358   -0.9786   -1.3075 C   0  0  0  0  0  0  0  0  0  0  0  0
   -6.9501    0.1954   -1.3967 C   0  0  0  0  0  0  0  0  0  0  0  0
   -5.5407    0.0049   -0.7857 C   0  0  0  0  0  0  0  0  0  0  0  0
   -5.4121   -0.1540    0.7608 C   0  0  1  0  0  0  0  0  0  0  0  0
   -5.7918   -1.5715    1.2300 C   0  0  0  0  0  0  0  0  0  0  0  0
   -4.0103    0.2760    1.3613 C   0  0  2  0  0  0  0  0  0  0  0  0
   -3.7348    1.7854    1.2343 C   0  0  0  0  0  0  0  0  0  0  0  0
   -2.2565    1.9747    1.5983 C   0  0  0  0  0  0  0  0  0  0  0  0
   -1.6828    0.5558    1.8028 C   0  0  2  0  0  0  0  0  0  0  0  0
   -0.1493    0.4541    1.4884 C   0  0  1  0  0  0  0  0  0  0  0  0
    0.6678   -0.3381    2.5268 C   0  0  0  0  0  0  0  0  0  0  0  0
    2.1410   -0.3190    2.1697 C   0  0  0  0  0  0  0  0  0  0  0  0
    2.5973   -0.0790    0.9133 C   0  0  0  0  0  0  0  0  0  0  0  0
    4.0831    0.1215    0.6639 C   0  0  0  0  0  0  0  0  0  0  0  0
    4.2839    1.5610    0.1303 C   0  0  1  0  0  0  0  0  0  0  0  0
    6.0128    1.8768   -0.3902 S   0  0  0  0  0  0  0  0  0  0  0  0
    6.8332    1.7748    1.2138 C   0  0  0  0  0  0  0  0  0  0  0  0
    6.2547    2.1459    2.2239 O   0  0  0  0  0  0  0  0  0  0  0  0
    8.2574    1.2758    1.3033 C   0  0  2  0  0  0  0  0  0  0  0  0
    9.1656    2.3653    1.8725 C   0  0  0  0  0  0  0  0  0  0  0  0
    8.7125    0.9427    0.0356 O   0  0  0  0  0  0  0  0  0  0  0  0
    9.2496   -0.2258   -0.4058 C   0  0  0  0  0  0  0  0  0  0  0  0
    9.6770   -1.2626    0.4538 C   0  0  0  0  0  0  0  0  0  0  0  0
   10.2287   -2.4336   -0.0780 C   0  0  0  0  0  0  0  0  0  0  0  0
   10.3599   -2.5853   -1.4602 C   0  0  0  0  0  0  0  0  0  0  0  0
    9.9429   -1.5646   -2.3159 C   0  0  0  0  0  0  0  0  0  0  0  0
    9.3935   -0.3916   -1.7898 C   0  0  0  0  0  0  0  0  0  0  0  0
    3.3900    1.8326   -1.0993 C   0  0  0  0  0  0  0  0  0  0  0  0
    1.9030    1.5621   -0.7953 C   0  0  0  0  0  0  0  0  0  0  0  0
    1.6628    0.1062   -0.2958 C   0  0  1  0  0  0  0  0  0  0  0  0
    2.0258   -0.9208   -1.4101 C   0  0  0  0  0  0  0  0  0  0  0  0
    0.1643   -0.1621    0.1032 C   0  0  2  0  0  0  0  0  0  0  0  0
   -0.8814    0.2895   -0.9203 C   0  0  0  0  0  0  0  0  0  0  0  0
   -2.2883   -0.2492   -0.5661 C   0  0  0  0  0  0  0  0  0  0  0  0
   -2.6226   -0.3576    0.9735 C   0  0  2  0  0  0  0  0  0  0  0  0
   -2.4801   -1.8218    1.4644 C   0  0  0  0  0  0  0  0  0  0  0  0
  -10.8945    0.5673   -2.4501 H   0  0  0  0  0  0  0  0  0  0  0  0
   -9.4078    1.3956   -1.9178 H   0  0  0  0  0  0  0  0  0  0  0  0
  -10.3413    0.3905   -0.7397 H   0  0  0  0  0  0  0  0  0  0  0  0
   -8.8633   -0.6516   -3.2545 H   0  0  0  0  0  0  0  0  0  0  0  0
  -10.4453   -2.1806   -1.0859 H   0  0  0  0  0  0  0  0  0  0  0  0
   -9.5244   -2.9155   -2.4564 H   0  0  0  0  0  0  0  0  0  0  0  0
  -10.9654   -1.8944   -2.7920 H   0  0  0  0  0  0  0  0  0  0  0  0
   -7.4131   -1.8975   -1.6533 H   0  0  0  0  0  0  0  0  0  0  0  0
   -8.2811   -1.1083   -0.2665 H   0  0  0  0  0  0  0  0  0  0  0  0
   -7.4074    1.1030   -0.9497 H   0  0  0  0  0  0  0  0  0  0  0  0
   -6.7806    0.3939   -2.4791 H   0  0  0  0  0  0  0  0  0  0  0  0
   -5.0637    0.9554   -1.0758 H   0  0  0  0  0  0  0  0  0  0  0  0
   -4.9976   -0.8167   -1.3003 H   0  0  0  0  0  0  0  0  0  0  0  0
   -6.1355    0.5485    1.2318 H   0  0  0  0  0  0  0  0  0  0  0  0
   -5.2022   -2.3437    0.7094 H   0  0  0  0  0  0  0  0  0  0  0  0
   -6.8449   -1.8139    1.0458 H   0  0  0  0  0  0  0  0  0  0  0  0
   -5.6506   -1.6673    2.3272 H   0  0  0  0  0  0  0  0  0  0  0  0
   -4.1149    0.1150    2.4616 H   0  0  0  0  0  0  0  0  0  0  0  0
   -4.4284    2.4208    1.8255 H   0  0  0  0  0  0  0  0  0  0  0  0
   -3.8279    2.1070    0.1803 H   0  0  0  0  0  0  0  0  0  0  0  0
   -2.1005    2.5859    2.5139 H   0  0  0  0  0  0  0  0  0  0  0  0
   -1.7746    2.5168    0.7582 H   0  0  0  0  0  0  0  0  0  0  0  0
   -1.8556    0.3577    2.8880 H   0  0  0  0  0  0  0  0  0  0  0  0
    0.2326    1.4963    1.5451 H   0  0  0  0  0  0  0  0  0  0  0  0
    0.3300   -1.3880    2.6477 H   0  0  0  0  0  0  0  0  0  0  0  0
    0.5411    0.1743    3.5053 H   0  0  0  0  0  0  0  0  0  0  0  0
    2.8481   -0.4435    2.9848 H   0  0  0  0  0  0  0  0  0  0  0  0
    4.4542   -0.6240   -0.0667 H   0  0  0  0  0  0  0  0  0  0  0  0
    4.6757   -0.0132    1.5942 H   0  0  0  0  0  0  0  0  0  0  0  0
    3.9894    2.2937    0.9145 H   0  0  0  0  0  0  0  0  0  0  0  0
    8.2657    0.4078    1.9897 H   0  0  0  0  0  0  0  0  0  0  0  0
    9.1541    3.2613    1.2145 H   0  0  0  0  0  0  0  0  0  0  0  0
   10.2078    1.9868    1.9392 H   0  0  0  0  0  0  0  0  0  0  0  0
    8.8332    2.6592    2.8907 H   0  0  0  0  0  0  0  0  0  0  0  0
    9.6049   -1.1840    1.5272 H   0  0  0  0  0  0  0  0  0  0  0  0
   10.5582   -3.2239    0.5837 H   0  0  0  0  0  0  0  0  0  0  0  0
   10.7872   -3.4925   -1.8677 H   0  0  0  0  0  0  0  0  0  0  0  0
   10.0459   -1.6809   -3.3873 H   0  0  0  0  0  0  0  0  0  0  0  0
    9.0749    0.3937   -2.4641 H   0  0  0  0  0  0  0  0  0  0  0  0
    3.7224    1.2058   -1.9511 H   0  0  0  0  0  0  0  0  0  0  0  0
    3.5059    2.8922   -1.4156 H   0  0  0  0  0  0  0  0  0  0  0  0
    1.3111    1.7654   -1.7128 H   0  0  0  0  0  0  0  0  0  0  0  0
    1.5856    2.2892   -0.0190 H   0  0  0  0  0  0  0  0  0  0  0  0
    1.3955   -0.7824   -2.3103 H   0  0  0  0  0  0  0  0  0  0  0  0
    1.8831   -1.9587   -1.0393 H   0  0  0  0  0  0  0  0  0  0  0  0
    3.0725   -0.8567   -1.7555 H   0  0  0  0  0  0  0  0  0  0  0  0
    0.0526   -1.2624    0.1882 H   0  0  0  0  0  0  0  0  0  0  0  0
   -0.6557   -0.0266   -1.9582 H   0  0  0  0  0  0  0  0  0  0  0  0
   -0.8873    1.3980   -0.9206 H   0  0  0  0  0  0  0  0  0  0  0  0
   -2.4344   -1.2540   -1.0196 H   0  0  0  0  0  0  0  0  0  0  0  0
   -2.9623    0.4242   -1.1161 H   0  0  0  0  0  0  0  0  0  0  0  0
   -3.1160   -2.5098    0.8848 H   0  0  0  0  0  0  0  0  0  0  0  0
   -2.7489   -1.9044    2.5393 H   0  0  0  0  0  0  0  0  0  0  0  0
   -1.4552   -2.2115    1.3543 H   0  0  0  0  0  0  0  0  0  0  0  0
  1  2  1  0  0  0  0
  1 40  1  0  0  0  0
  1 41  1  0  0  0  0
  1 42  1  0  0  0  0
  2  3  1  0  0  0  0
  2  4  1  0  0  0  0
  2 43  1  0  0  0  0
  3 44  1  0  0  0  0
  3 45  1  0  0  0  0
  3 46  1  0  0  0  0
  4  5  1  0  0  0  0
  4 47  1  0  0  0  0
  4 48  1  0  0  0  0
  5  6  1  0  0  0  0
  5 49  1  0  0  0  0
  5 50  1  0  0  0  0
  6  7  1  0  0  0  0
  6 51  1  0  0  0  0
  6 52  1  0  0  0  0
  7  8  1  0  0  0  0
  7  9  1  0  0  0  0
  7 53  1  1  0  0  0
  8 54  1  0  0  0  0
  8 55  1  0  0  0  0
  8 56  1  0  0  0  0
  9 10  1  0  0  0  0
  9 57  1  1  0  0  0
 10 11  1  0  0  0  0
 10 58  1  0  0  0  0
 10 59  1  0  0  0  0
 11 60  1  0  0  0  0
 11 61  1  0  0  0  0
 12 11  1  0  0  0  0
 12 13  1  0  0  0  0
 12 62  1  1  0  0  0
 13 14  1  0  0  0  0
 13 63  1  6  0  0  0
 14 15  1  0  0  0  0
 14 64  1  0  0  0  0
 14 65  1  0  0  0  0
 15 16  2  0  0  0  0
 15 66  1  0  0  0  0
 16 17  1  0  0  0  0
 17 18  1  0  0  0  0
 17 67  1  0  0  0  0
 17 68  1  0  0  0  0
 18 19  1  0  0  0  0
 18 31  1  0  0  0  0
 18 69  1  1  0  0  0
 19 20  1  0  0  0  0
 20 21  2  0  0  0  0
 20 22  1  0  0  0  0
 22 23  1  0  0  0  0
 22 24  1  0  0  0  0
 22 70  1  1  0  0  0
 23 71  1  0  0  0  0
 23 72  1  0  0  0  0
 23 73  1  0  0  0  0
 24 25  1  0  0  0  0
 25 26  2  0  0  0  0
 26 27  1  0  0  0  0
 26 74  1  0  0  0  0
 27 28  2  0  0  0  0
 27 75  1  0  0  0  0
 28 29  1  0  0  0  0
 28 76  1  0  0  0  0
 29 30  2  0  0  0  0
 29 77  1  0  0  0  0
 30 25  1  0  0  0  0
 30 78  1  0  0  0  0
 31 32  1  0  0  0  0
 31 79  1  0  0  0  0
 31 80  1  0  0  0  0
 32 33  1  0  0  0  0
 32 81  1  0  0  0  0
 32 82  1  0  0  0  0
 33 34  1  6  0  0  0
 33 35  1  0  0  0  0
 33 16  1  0  0  0  0
 34 83  1  0  0  0  0
 34 84  1  0  0  0  0
 34 85  1  0  0  0  0
 35 36  1  0  0  0  0
 35 13  1  0  0  0  0
 35 86  1  1  0  0  0
 36 37  1  0  0  0  0
 36 87  1  0  0  0  0
 36 88  1  0  0  0  0
 37 38  1  0  0  0  0
 37 89  1  0  0  0  0
 37 90  1  0  0  0  0
 38 39  1  1  0  0  0
 38  9  1  0  0  0  0
 38 12  1  0  0  0  0
 39 91  1  0  0  0  0
 39 92  1  0  0  0  0
 39 93  1  0  0  0  0
M  END
>  <IDENTIFIER>
CNP0562868.2

>  <Energy>
912.851

$$$$
