
 OpenBabel09052523202D

300300  0  0  0  0  0  0  0  0999 V2000
   -4.2357    1.8594    0.0000 C   0  0  0  0  0  0  0  0  0  0  0  0
   -2.7684    2.1713    0.0000 C   0  0  0  0  0  0  0  0  0  0  0  0
   -1.9514    1.0619   -0.3741 C   0  0  0  0  0  0  0  0  0  0  0  0
   -2.4123   -0.3170   -0.3288 N   0  0  0  0  0  0  0  0  0  0  0  0
   -3.6955   -0.6819    0.0000 C   0  0  0  0  0  0  0  0  0  0  0  0
   -3.9985   -1.8694    0.0911 O   0  0  0  0  0  0  0  0  0  0  0  0
   -4.6992    0.4328    0.0000 C   0  0  0  0  0  0  0  0  0  0  0  0
   -5.7029    1.5475    0.0000 C   0  0  1  0  0  0  0  0  0  0  0  0
   -6.7066    2.6622    0.0000 O   0  0  0  0  0  0  0  0  0  0  0  0
   -4.5882    2.5512    0.0000 C   0  0  0  0  0  0  0  0  0  0  0  0
   -3.4735    3.5549    0.0000 C   0  0  0  0  0  0  0  0  0  0  0  0
   -2.3587    4.5586    0.0000 C   0  0  0  0  0  0  0  0  0  0  0  0
   -1.2440    5.5623    0.0000 C   0  0  0  0  0  0  0  0  0  0  0  0
   -0.1293    6.5660    0.0000 C   0  0  0  0  0  0  0  0  0  0  0  0
   -0.4439    1.4118   -0.3628 C   0  0  0  0  0  0  0  0  0  0  0  0
   -0.2477    2.5652   -0.7123 O   0  0  0  0  0  0  0  0  0  0  0  0
    0.7125    0.6919   -0.0707 N   0  0  0  0  0  0  0  0  0  0  0  0
    2.0129    1.2665   -0.4724 C   0  0  0  0  0  0  0  0  0  0  0  0
    2.7737    0.0736   -1.0754 C   0  0  0  0  0  0  0  0  0  0  0  0
    1.7928   -1.1040   -0.9684 C   0  0  0  0  0  0  0  0  0  0  0  0
    1.0446   -0.6912    0.2806 C   0  0  2  0  0  0  0  0  0  0  0  0
    0.8218   -1.7390    1.3962 C   0  0  0  0  0  0  0  0  0  0  0  0
   -0.3080   -1.8338    1.8574 O   0  0  0  0  0  0  0  0  0  0  0  0
    1.8546   -2.6000    1.8818 N   0  0  0  0  0  0  0  0  0  0  0  0
    3.3250   -2.5280    1.5355 C   0  0  1  0  0  0  0  0  0  0  0  0
    4.0343   -1.9745    2.7679 C   0  0  0  0  0  2  0  0  0  0  0  0
    3.3871   -0.8023    3.2104 O   0  0  0  0  0  0  0  0  0  0  0  0
    4.3733   -3.3951    0.5935 C   0  0  0  0  0  0  0  0  0  0  0  0
    5.3038   -2.6503    0.3009 O   0  0  0  0  0  0  0  0  0  0  0  0
    4.5311   -4.6973    0.0000 N   0  0  0  0  0  0  0  0  0  0  0  0
    3.9210   -6.0676    0.0000 C   0  0  1  0  0  0  0  0  0  0  0  0
    2.5507   -5.4575    0.0000 C   0  0  0  0  0  0  0  0  0  0  0  0
    1.1804   -4.8474    0.0000 C   0  0  0  0  0  0  0  0  0  0  0  0
    1.5936   -4.3527   -1.5930 C   0  0  0  0  0  0  0  0  0  0  0  0
   -0.1899   -4.2373    0.0000 C   0  0  0  0  0  0  0  0  0  0  0  0
    3.3109   -7.4379    0.0000 C   0  0  0  0  0  0  0  0  0  0  0  0
    4.0014   -8.4539   -0.0415 O   0  0  0  0  0  0  0  0  0  0  0  0
    2.2095   -7.3632    0.9029 N   0  0  0  0  0  0  0  0  0  0  0  0
    0.9374   -6.3812    0.0000 C   0  0  2  0  0  0  0  0  0  0  0  0
   -0.4208   -6.0369   -1.1078 C   0  0  0  0  0  0  0  0  0  0  0  0
   -0.5282   -6.0071   -2.3419 O   0  0  0  0  0  0  0  0  0  0  0  0
   -1.4360   -5.3245    0.0000 N   0  0  0  0  0  0  0  0  0  0  0  0
   -2.0461   -6.6948    0.0000 C   0  0  1  0  0  0  0  0  0  0  0  0
   -3.0817   -5.7157    0.9951 C   0  0  0  0  0  0  0  0  0  0  0  0
   -2.6114   -4.8793    2.0895 O   0  0  0  0  0  0  0  0  0  0  0  0
   -2.6562   -8.0651   -0.0000 C   0  0  0  0  0  0  0  0  0  0  0  0
   -2.6057   -8.2002   -1.6888 O   0  0  0  0  0  0  0  0  0  0  0  0
   -4.1480   -8.2219    0.0000 N   0  0  0  0  0  0  0  0  0  0  0  0
   -5.0297   -7.0084    0.0000 C   0  0  2  0  0  0  0  0  0  0  0  0
   -6.0320   -8.3333   -0.3620 C   0  0  0  0  0  0  0  0  0  0  0  0
   -7.4567   -8.7717    0.0000 C   0  0  0  0  0  0  0  0  0  0  0  0
   -8.3384   -7.5582    0.0000 C   0  0  0  0  0  0  0  0  0  0  0  0
   -8.6703   -9.6534   -0.0000 C   0  0  0  0  0  0  0  0  0  0  0  0
   -5.9114   -5.7949    0.0000 C   0  0  0  0  0  0  0  0  0  0  0  0
   -6.3167   -5.3297   -1.0525 O   0  0  0  0  0  0  0  0  0  0  0  0
   -6.9058   -6.1670    1.3564 N   0  0  0  0  0  0  0  0  0  0  0  0
   -8.5593   -6.6918    1.9691 C   0  0  1  0  0  0  0  0  0  0  0  0
   -9.3465   -8.4540    1.6705 C   0  0  0  0  0  0  0  0  0  0  0  0
   -9.3164   -9.4019    2.4561 O   0  0  0  0  0  0  0  0  0  0  0  0
  -10.1004   -8.4026   -0.8328 N   0  0  0  0  0  0  0  0  0  0  0  0
  -11.5355   -8.2193   -1.3194 C   0  0  1  0  0  0  0  0  0  0  0  0
  -12.5141   -7.1559   -1.9804 C   0  0  0  0  0  0  0  0  0  0  0  0
  -12.4034   -6.5627   -3.0753 O   0  0  0  0  0  0  0  0  0  0  0  0
  -13.6124   -6.9933   -1.2385 N   0  0  0  0  0  0  0  0  0  0  0  0
  -13.9804   -7.9491    0.0000 C   0  0  1  0  0  0  0  0  0  0  0  0
  -15.3507   -7.3390   -0.0000 C   0  0  0  0  0  0  0  0  0  0  0  0
  -16.7210   -6.7289    0.0000 C   0  0  0  0  0  2  0  0  0  0  0  0
  -18.0913   -6.1188   -0.0000 C   0  0  0  0  0  0  0  0  0  0  0  0
  -18.4380   -4.9596    1.6698 N   0  0  0  0  0  0  0  0  0  0  0  0
  -18.3355   -5.8761   -1.6463 O   0  0  0  0  0  0  0  0  0  0  0  0
  -15.6144   -8.7240    0.4480 C   0  0  0  0  0  0  0  0  0  0  0  0
  -15.6240   -9.2780    1.5747 O   0  0  0  0  0  0  0  0  0  0  0  0
  -16.2121   -9.4022   -0.7150 N   0  0  0  0  0  0  0  0  0  0  0  0
  -17.5287   -8.9035   -1.1672 C   0  0  1  0  0  0  0  0  0  0  0  0
  -18.1775   -9.1444    0.0000 C   0  0  0  0  0  0  0  0  0  0  0  0
  -19.3910  -10.0261    0.0000 C   0  0  0  0  0  0  0  0  0  0  0  0
  -20.2727   -8.8126    0.0000 C   0  0  0  0  0  0  0  0  0  0  0  0
  -20.6045  -10.9078    0.0000 C   0  0  0  0  0  0  0  0  0  0  0  0
  -18.3635   -7.7967   -0.4627 C   0  0  0  0  0  0  0  0  0  0  0  0
  -17.2355   -5.6789    0.0000 O   0  0  0  0  0  0  0  0  0  0  0  0
  -19.3374   -7.2060    0.0000 N   0  0  0  0  0  0  0  0  0  0  0  0
  -19.9475   -8.5763    0.0000 C   0  0  1  0  0  0  0  0  0  0  0  0
  -20.5576   -9.9466    0.0000 C   0  0  0  0  0  0  0  0  0  0  0  0
  -20.2814  -10.3612    1.8847 O   0  0  0  0  0  0  0  0  0  0  0  0
  -22.0195  -10.0497   -1.2502 N   0  0  0  0  0  0  0  0  0  0  0  0
  -22.8410   -9.1160   -1.6197 C   0  0  0  0  0  0  0  0  0  0  0  0
  -24.4229   -9.0467    0.0000 C   0  0  0  0  0  0  0  0  0  0  0  0
  -25.3045   -7.8332    0.0000 C   0  0  0  0  0  0  0  0  0  0  0  0
  -21.8283   -7.3204   -1.8526 C   0  0  0  0  0  0  0  0  0  0  0  0
  -21.4474   -7.1639   -3.0242 O   0  0  0  0  0  0  0  0  0  0  0  0
  -23.2027   -6.3061    0.0000 N   0  0  0  0  0  0  0  0  0  0  0  0
  -24.6932   -6.7194   -1.5133 C   0  0  2  0  0  0  0  0  0  0  0  0
  -26.8324   -5.9594   -1.7576 C   0  0  0  0  0  0  0  0  0  0  0  0
  -27.6817   -6.5707   -2.3851 O   0  0  0  0  0  0  0  0  0  0  0  0
  -27.0679   -5.4061   -0.0000 N   0  0  0  0  0  0  0  0  0  0  0  0
  -26.4578   -4.0358    0.0000 C   0  0  2  0  0  0  0  0  0  0  0  0
  -25.8477   -2.6655   -0.0000 C   0  0  0  0  0  0  0  0  0  0  0  0
  -26.7663   -1.7757    0.0781 O   0  0  0  0  0  0  0  0  0  0  0  0
  -24.3559   -2.5087    0.0000 N   0  0  0  0  0  0  0  0  0  0  0  0
  -23.4742   -3.7222    0.0000 C   0  0  2  0  0  0  0  0  0  0  0  0
  -23.2622   -2.6638   -2.1617 C   0  0  0  0  0  0  0  0  0  0  0  0
  -22.3677   -1.1644   -2.2377 C   0  0  0  0  0  0  0  0  0  0  0  0
  -20.9690   -1.0712   -2.4922 O   0  0  0  0  0  0  0  0  0  0  0  0
  -22.5925   -4.9357    0.0000 C   0  0  0  0  0  0  0  0  0  0  0  0
  -23.2027   -6.3061    0.0000 O   0  0  0  0  0  0  0  0  0  0  0  0
  -21.5646   -4.1951    1.0807 N   0  0  0  0  0  0  0  0  0  0  0  0
  -20.4907   -3.4086    0.0000 C   0  0  2  0  0  0  0  0  0  0  0  0
  -21.8610   -2.7985    0.0000 C   0  0  0  0  0  0  0  0  0  0  0  0
  -23.2313   -2.1884    0.0000 C   0  0  0  0  0  2  0  0  0  0  0  0
  -24.6016   -1.5783    0.0000 N   0  0  0  0  0  0  0  0  0  0  0  0
  -19.5063   -3.2855    2.4910 C   0  0  0  0  0  0  0  0  0  0  0  0
  -20.0269   -2.9646    3.5474 O   0  0  0  0  0  0  0  0  0  0  0  0
  -17.7340   -2.9756    2.0266 N   0  0  0  0  0  0  0  0  0  0  0  0
  -17.5071   -3.0950    0.0000 C   0  0  2  0  0  0  0  0  0  0  0  0
  -18.7206   -3.9767    0.0000 C   0  0  0  0  0  0  0  0  0  0  0  0
  -19.9341   -4.8584    0.0000 C   0  0  0  0  0  0  0  0  0  0  0  0
  -20.5892   -5.3633   -1.7159 C   0  0  0  0  0  0  0  0  0  0  0  0
  -23.0547   -5.4406   -2.1231 C   0  0  0  0  0  0  0  0  0  0  0  0
  -23.4634   -6.0316   -3.5114 N   0  0  0  0  0  0  0  0  0  0  0  0
  -16.3620   -3.9686   -0.0908 C   0  0  0  0  0  0  0  0  0  0  0  0
  -17.2355   -5.6789    0.0000 O   0  0  0  0  0  0  0  0  0  0  0  0
  -15.0474   -3.6776    0.0005 O   0  0  0  0  0  0  0  0  0  0  0  0
  -25.0875   -4.6459    0.0000 C   0  0  1  0  0  0  0  0  0  0  0  0
  -25.6976   -6.0162    0.0000 C   0  0  0  0  0  0  0  0  0  0  0  0
  -23.7172   -5.2560    0.0000 C   0  0  0  0  0  0  0  0  0  0  0  0
  -22.3468   -5.8661    0.0000 C   0  0  0  0  0  0  0  0  0  0  0  0
  -24.1712   -7.7600    1.6937 C   0  0  1  0  0  0  0  0  0  0  0  0
  -25.3905   -8.7191    2.5704 C   0  0  0  0  0  0  0  0  0  0  0  0
  -23.0827   -8.1710    2.7128 O   0  0  0  0  0  0  0  0  0  0  0  0
  -21.3178   -7.9662    0.0000 C   0  0  0  0  0  0  0  0  0  0  0  0
  -20.8382   -7.4385    2.1619 C   0  0  0  0  0  0  0  0  0  0  0  0
  -22.6882   -7.3561    0.0000 C   0  0  0  0  0  0  0  0  0  0  0  0
  -12.2103   -8.5172    0.0000 C   0  0  0  0  0  0  0  0  0  0  0  0
  -11.3287   -9.7308    0.0000 C   0  0  0  0  0  0  0  0  0  0  0  0
  -13.4239   -9.3989    0.0000 C   0  0  0  0  0  0  0  0  0  0  0  0
   -9.3836   -6.7119    0.0000 C   0  0  0  0  0  0  0  0  0  0  0  0
   -8.7735   -5.3415    0.0000 C   0  0  0  0  0  0  0  0  0  0  0  0
  -10.7539   -6.1018   -0.0000 C   0  0  0  0  0  0  0  0  0  0  0  0
   -0.2761   -7.2629    0.0000 C   0  0  0  0  0  0  0  0  0  0  0  0
    0.6056   -8.4764    0.0000 C   0  0  0  0  0  0  0  0  0  0  0  0
   -1.4896   -8.1446    0.0000 C   0  0  0  0  0  0  0  0  0  0  0  0
   -3.7007    1.5164    1.4305 H   0  0  0  0  0  0  0  0  0  0  0  0
   -3.7002    1.5163    1.4301 H   0  0  0  0  0  0  0  0  0  0  0  0
   -5.2823    1.6369   -0.0000 H   0  0  0  0  0  0  0  0  0  0  0  0
   -2.0258    2.5616    0.9656 H   0  0  0  0  0  0  0  0  0  0  0  0
   -1.7090   -1.0606   -0.4475 H   0  0  0  0  0  0  0  0  0  0  0  0
   -5.1655   -0.1119   -0.9199 H   0  0  0  0  0  0  0  0  0  0  0  0
   -5.1396   -0.0954    0.9512 H   0  0  0  0  0  0  0  0  0  0  0  0
   -6.7750    0.7629    0.0774 H   0  0  0  0  0  0  0  0  0  0  0  0
   -7.1521    2.6628   -0.8937 H   0  0  0  0  0  0  0  0  0  0  0  0
   -5.0559    3.4777   -0.9095 H   0  0  0  0  0  0  0  0  0  0  0  0
   -5.0566    3.4790   -0.9073 H   0  0  0  0  0  0  0  0  0  0  0  0
   -3.6367    3.8737    1.1289 H   0  0  0  0  0  0  0  0  0  0  0  0
   -4.1169    4.3639    0.5464 H   0  0  0  0  0  0  0  0  0  0  0  0
   -2.9244    5.3450   -0.5906 H   0  0  0  0  0  0  0  0  0  0  0  0
   -1.9490    4.1331   -0.9502 H   0  0  0  0  0  0  0  0  0  0  0  0
   -0.5105    4.7800    0.3331 H   0  0  0  0  0  0  0  0  0  0  0  0
   -1.6102    5.9632    0.9791 H   0  0  0  0  0  0  0  0  0  0  0  0
    0.4174    6.1654   -0.8890 H   0  0  0  0  0  0  0  0  0  0  0  0
   -0.7557    7.4062   -0.3785 H   0  0  0  0  0  0  0  0  0  0  0  0
    0.6659    7.2820    0.0000 H   0  0  0  0  0  0  0  0  0  0  0  0
    1.9762    2.1479   -1.1411 H   0  0  0  0  0  0  0  0  0  0  0  0
    2.5530    1.5759    0.4523 H   0  0  0  0  0  0  0  0  0  0  0  0
    3.7551    0.0787   -1.5795 H   0  0  0  0  0  0  0  0  0  0  0  0
    3.4719   -0.1329   -0.2837 H   0  0  0  0  0  0  0  0  0  0  0  0
    2.3521   -2.0077   -0.8834 H   0  0  0  0  0  0  0  0  0  0  0  0
    1.0536   -1.1822   -1.8017 H   0  0  0  0  0  0  0  0  0  0  0  0
    1.7615   -0.4054    1.0787 H   0  0  0  0  0  0  0  0  0  0  0  0
    1.5871   -3.2899    2.6026 H   0  0  0  0  0  0  0  0  0  0  0  0
    3.3624   -1.6770    0.9179 H   0  0  0  0  0  0  0  0  0  0  0  0
    3.5855   -0.0948    2.5382 H   0  0  0  0  0  0  0  0  0  0  0  0
    5.3596   -4.7364   -0.6194 H   0  0  0  0  0  0  0  0  0  0  0  0
    4.7885   -6.5224    0.5332 H   0  0  0  0  0  0  0  0  0  0  0  0
    2.6759   -5.1959    1.1312 H   0  0  0  0  0  0  0  0  0  0  0  0
    2.6759   -5.1959    1.1312 H   0  0  0  0  0  0  0  0  0  0  0  0
    1.5749   -3.8667    0.2137 H   0  0  0  0  0  0  0  0  0  0  0  0
    2.5393   -4.5665   -2.1492 H   0  0  0  0  0  0  0  0  0  0  0  0
    0.8591   -3.7856   -2.2172 H   0  0  0  0  0  0  0  0  0  0  0  0
    2.5107   -3.7526   -1.6641 H   0  0  0  0  0  0  0  0  0  0  0  0
   -0.1406   -3.2237   -0.4989 H   0  0  0  0  0  0  0  0  0  0  0  0
   -0.1735   -4.0320    1.1351 H   0  0  0  0  0  0  0  0  0  0  0  0
   -1.1674   -3.8021    0.0000 H   0  0  0  0  0  0  0  0  0  0  0  0
    2.0613   -8.0767    1.6463 H   0  0  0  0  0  0  0  0  0  0  0  0
    1.2917   -6.7366   -1.1397 H   0  0  0  0  0  0  0  0  0  0  0  0
   -2.1267   -5.0020   -0.8323 H   0  0  0  0  0  0  0  0  0  0  0  0
   -2.2155   -6.6847    1.2206 H   0  0  0  0  0  0  0  0  0  0  0  0
   -3.7092   -5.0195    0.3645 H   0  0  0  0  0  0  0  0  0  0  0  0
   -3.7092   -5.0195    0.3645 H   0  0  0  0  0  0  0  0  0  0  0  0
   -3.3575   -4.2550    2.3176 H   0  0  0  0  0  0  0  0  0  0  0  0
   -4.1855   -8.8758    0.8345 H   0  0  0  0  0  0  0  0  0  0  0  0
   -4.8990   -6.9731    1.0691 H   0  0  0  0  0  0  0  0  0  0  0  0
   -5.7536   -8.5454   -1.4625 H   0  0  0  0  0  0  0  0  0  0  0  0
   -5.9171   -9.3287    0.2064 H   0  0  0  0  0  0  0  0  0  0  0  0
   -7.5100   -9.0651   -1.0885 H   0  0  0  0  0  0  0  0  0  0  0  0
   -7.7600   -7.2145   -1.1182 H   0  0  0  0  0  0  0  0  0  0  0  0
  -10.7047   -7.7368    0.8389 H   0  0  0  0  0  0  0  0  0  0  0  0
   -8.9673   -6.6926    0.0000 H   0  0  0  0  0  0  0  0  0  0  0  0
   -8.5321  -10.5389   -0.7314 H   0  0  0  0  0  0  0  0  0  0  0  0
   -8.1881  -10.3478    0.7371 H   0  0  0  0  0  0  0  0  0  0  0  0
   -9.5360  -10.2823   -0.0000 H   0  0  0  0  0  0  0  0  0  0  0  0
   -6.4068   -6.5857    2.1542 H   0  0  0  0  0  0  0  0  0  0  0  0
   -8.8884   -6.2540    2.9341 H   0  0  0  0  0  0  0  0  0  0  0  0
   -9.8766   -9.0626   -1.6521 H   0  0  0  0  0  0  0  0  0  0  0  0
  -11.0847   -7.4481   -1.8208 H   0  0  0  0  0  0  0  0  0  0  0  0
  -14.1310   -6.1543   -1.5774 H   0  0  0  0  0  0  0  0  0  0  0  0
  -13.6967   -7.3968    1.0475 H   0  0  0  0  0  0  0  0  0  0  0  0
  -15.6806   -7.2385   -1.1476 H   0  0  0  0  0  0  0  0  0  0  0  0
  -15.0607   -6.3072    0.3752 H   0  0  0  0  0  0  0  0  0  0  0  0
  -19.0669   -2.5482    0.9731 H   0  0  0  0  0  0  0  0  0  0  0  0
  -17.9388   -5.2217    2.5444 H   0  0  0  0  0  0  0  0  0  0  0  0
  -16.2364  -10.4416   -0.6830 H   0  0  0  0  0  0  0  0  0  0  0  0
  -17.8868   -9.1612   -2.1858 H   0  0  0  0  0  0  0  0  0  0  0  0
  -17.6764   -9.2103    1.0474 H   0  0  0  0  0  0  0  0  0  0  0  0
  -17.7886  -10.0888    0.5417 H   0  0  0  0  0  0  0  0  0  0  0  0
  -18.8454  -10.7026   -0.9380 H   0  0  0  0  0  0  0  0  0  0  0  0
  -20.2773   -8.9731   -1.8247 H   0  0  0  0  0  0  0  0  0  0  0  0
  -21.6369   -9.3153    1.4268 H   0  0  0  0  0  0  0  0  0  0  0  0
  -20.9016   -7.9470    0.0000 H   0  0  0  0  0  0  0  0  0  0  0  0
  -20.1089  -11.9617    0.4608 H   0  0  0  0  0  0  0  0  0  0  0  0
  -20.4675  -11.8008   -0.9184 H   0  0  0  0  0  0  0  0  0  0  0  0
  -21.4701  -11.5367    0.0000 H   0  0  0  0  0  0  0  0  0  0  0  0
  -19.6727   -7.1250   -1.0505 H   0  0  0  0  0  0  0  0  0  0  0  0
  -19.2707   -8.5866    1.6206 H   0  0  0  0  0  0  0  0  0  0  0  0
  -22.6925  -10.8425   -1.2709 H   0  0  0  0  0  0  0  0  0  0  0  0
  -24.6323  -10.0414    0.4301 H   0  0  0  0  0  0  0  0  0  0  0  0
  -26.1078   -8.7103    0.3024 H   0  0  0  0  0  0  0  0  0  0  0  0
  -25.8182   -8.5350   -0.8902 H   0  0  0  0  0  0  0  0  0  0  0  0
  -25.9334   -6.9675    0.0000 H   0  0  0  0  0  0  0  0  0  0  0  0
  -22.8293   -6.2890    1.7783 H   0  0  0  0  0  0  0  0  0  0  0  0
  -24.2057   -7.4888    1.3449 H   0  0  0  0  0  0  0  0  0  0  0  0
  -28.0623   -5.4163    0.3120 H   0  0  0  0  0  0  0  0  0  0  0  0
  -27.0112   -3.7283   -0.9383 H   0  0  0  0  0  0  0  0  0  0  0  0
  -24.4521   -2.7174    1.4362 H   0  0  0  0  0  0  0  0  0  0  0  0
  -23.7001   -3.6220   -1.3029 H   0  0  0  0  0  0  0  0  0  0  0  0
  -23.7152   -2.8396   -3.1722 H   0  0  0  0  0  0  0  0  0  0  0  0
  -24.1920   -2.0524   -2.3368 H   0  0  0  0  0  0  0  0  0  0  0  0
  -22.6293   -0.3771   -1.4588 H   0  0  0  0  0  0  0  0  0  0  0  0
  -22.6293   -0.3771   -1.4588 H   0  0  0  0  0  0  0  0  0  0  0  0
  -20.6081   -0.2230   -2.0553 H   0  0  0  0  0  0  0  0  0  0  0  0
  -21.3628   -4.5131    2.0423 H   0  0  0  0  0  0  0  0  0  0  0  0
  -20.2555   -2.4570   -0.6693 H   0  0  0  0  0  0  0  0  0  0  0  0
  -21.5807   -1.9193    0.6759 H   0  0  0  0  0  0  0  0  0  0  0  0
  -21.5807   -1.9193    0.6759 H   0  0  0  0  0  0  0  0  0  0  0  0
  -24.6982   -0.6931   -0.7395 H   0  0  0  0  0  0  0  0  0  0  0  0
  -24.5981   -0.6733    0.7251 H   0  0  0  0  0  0  0  0  0  0  0  0
  -17.0305   -2.5982    2.6771 H   0  0  0  0  0  0  0  0  0  0  0  0
  -17.3675   -2.0576   -0.4456 H   0  0  0  0  0  0  0  0  0  0  0  0
  -18.3346   -3.7768   -1.0556 H   0  0  0  0  0  0  0  0  0  0  0  0
  -18.3346   -3.7769   -1.0556 H   0  0  0  0  0  0  0  0  0  0  0  0
  -19.9937   -4.2180   -1.7322 H   0  0  0  0  0  0  0  0  0  0  0  0
  -19.9937   -4.2180   -1.7322 H   0  0  0  0  0  0  0  0  0  0  0  0
  -20.0978   -5.4890   -0.6142 H   0  0  0  0  0  0  0  0  0  0  0  0
  -20.0978   -5.4890   -0.6142 H   0  0  0  0  0  0  0  0  0  0  0  0
  -23.2476   -4.6804   -2.7891 H   0  0  0  0  0  0  0  0  0  0  0  0
  -24.4802   -5.9197    1.3857 H   0  0  0  0  0  0  0  0  0  0  0  0
  -24.4549   -5.8601   -3.8171 H   0  0  0  0  0  0  0  0  0  0  0  0
  -23.3948   -7.0495   -3.7516 H   0  0  0  0  0  0  0  0  0  0  0  0
  -14.3571   -4.3480    0.0003 H   0  0  0  0  0  0  0  0  0  0  0  0
  -25.2174   -4.5768   -1.1253 H   0  0  0  0  0  0  0  0  0  0  0  0
  -26.1587   -6.1166    1.5081 H   0  0  0  0  0  0  0  0  0  0  0  0
  -26.1587   -6.1165    1.5081 H   0  0  0  0  0  0  0  0  0  0  0  0
  -26.1328   -6.9937    0.0000 H   0  0  0  0  0  0  0  0  0  0  0  0
  -23.6078   -4.5896    1.7225 H   0  0  0  0  0  0  0  0  0  0  0  0
  -23.6078   -4.5896    1.7225 H   0  0  0  0  0  0  0  0  0  0  0  0
  -21.2572   -6.0544    0.8352 H   0  0  0  0  0  0  0  0  0  0  0  0
  -21.9028   -4.0892   -1.4632 H   0  0  0  0  0  0  0  0  0  0  0  0
  -21.3693   -6.3013    0.0000 H   0  0  0  0  0  0  0  0  0  0  0  0
  -24.1018   -7.6314   -1.3309 H   0  0  0  0  0  0  0  0  0  0  0  0
  -25.7327   -8.2049    3.4813 H   0  0  0  0  0  0  0  0  0  0  0  0
  -24.9391   -9.6736    2.9400 H   0  0  0  0  0  0  0  0  0  0  0  0
  -26.2511   -9.2517    2.1317 H   0  0  0  0  0  0  0  0  0  0  0  0
  -23.0101   -9.1542    2.8213 H   0  0  0  0  0  0  0  0  0  0  0  0
  -21.4334   -7.6170    1.5287 H   0  0  0  0  0  0  0  0  0  0  0  0
  -19.7857   -6.9519    2.3114 H   0  0  0  0  0  0  0  0  0  0  0  0
  -20.8203   -8.0998    3.1694 H   0  0  0  0  0  0  0  0  0  0  0  0
  -20.8036   -6.3699    2.7088 H   0  0  0  0  0  0  0  0  0  0  0  0
  -22.6224   -8.3437    0.3689 H   0  0  0  0  0  0  0  0  0  0  0  0
  -22.6224   -8.3437    0.3689 H   0  0  0  0  0  0  0  0  0  0  0  0
  -23.6657   -6.9209    0.0000 H   0  0  0  0  0  0  0  0  0  0  0  0
  -12.2750   -9.0087   -1.0067 H   0  0  0  0  0  0  0  0  0  0  0  0
  -11.6318  -10.7296   -0.5152 H   0  0  0  0  0  0  0  0  0  0  0  0
  -11.3243   -9.9002    1.1117 H   0  0  0  0  0  0  0  0  0  0  0  0
  -10.6998  -10.5965    0.0000 H   0  0  0  0  0  0  0  0  0  0  0  0
  -13.3760   -9.8433    1.0786 H   0  0  0  0  0  0  0  0  0  0  0  0
  -13.5476  -10.3197   -0.7213 H   0  0  0  0  0  0  0  0  0  0  0  0
  -14.2896  -10.0278    0.0000 H   0  0  0  0  0  0  0  0  0  0  0  0
   -9.5554   -6.4640   -1.5299 H   0  0  0  0  0  0  0  0  0  0  0  0
   -8.7966   -4.8246   -1.0125 H   0  0  0  0  0  0  0  0  0  0  0  0
   -9.1542   -4.7024    0.8633 H   0  0  0  0  0  0  0  0  0  0  0  0
   -8.3383   -4.3640    0.0000 H   0  0  0  0  0  0  0  0  0  0  0  0
  -10.8911   -5.2522   -0.7491 H   0  0  0  0  0  0  0  0  0  0  0  0
  -10.8986   -5.7703    1.0742 H   0  0  0  0  0  0  0  0  0  0  0  0
  -11.7314   -5.6666    0.0000 H   0  0  0  0  0  0  0  0  0  0  0  0
   -0.1589   -7.0194    1.1395 H   0  0  0  0  0  0  0  0  0  0  0  0
    0.4881   -9.2520    0.8069 H   0  0  0  0  0  0  0  0  0  0  0  0
    0.7058   -8.7256   -1.0977 H   0  0  0  0  0  0  0  0  0  0  0  0
    1.2345   -9.3420    0.0000 H   0  0  0  0  0  0  0  0  0  0  0  0
   -1.2172   -8.6526    1.2543 H   0  0  0  0  0  0  0  0  0  0  0  0
   -1.1689   -9.2866   -0.6702 H   0  0  0  0  0  0  0  0  0  0  0  0
   -2.3552   -8.7735    0.0000 H   0  0  0  0  0  0  0  0  0  0  0  0
  1  2  1  0  0  0  0
  1142  1  0  0  0  0
  1143  1  0  0  0  0
  1144  1  0  0  0  0
  2  3  2  0  0  0  0
  2145  1  0  0  0  0
  3  4  1  0  0  0  0
  3 15  1  0  0  0  0
  4  5  1  0  0  0  0
  4146  1  0  0  0  0
  5  6  2  0  0  0  0
  5  7  1  0  0  0  0
  7  8  1  0  0  0  0
  7147  1  0  0  0  0
  7148  1  0  0  0  0
  8  9  1  0  0  0  0
  8 10  1  0  0  0  0
  8149  1  6  0  0  0
  9150  1  0  0  0  0
 10 11  1  0  0  0  0
 10151  1  0  0  0  0
 10152  1  0  0  0  0
 11 12  1  0  0  0  0
 11153  1  0  0  0  0
 11154  1  0  0  0  0
 12 13  1  0  0  0  0
 12155  1  0  0  0  0
 12156  1  0  0  0  0
 13 14  1  0  0  0  0
 13157  1  0  0  0  0
 13158  1  0  0  0  0
 14159  1  0  0  0  0
 14160  1  0  0  0  0
 14161  1  0  0  0  0
 15 16  2  0  0  0  0
 15 17  1  0  0  0  0
 17 18  1  0  0  0  0
 18 19  1  0  0  0  0
 18162  1  0  0  0  0
 18163  1  0  0  0  0
 19 20  1  0  0  0  0
 19164  1  0  0  0  0
 19165  1  0  0  0  0
 20 21  1  0  0  0  0
 20166  1  0  0  0  0
 20167  1  0  0  0  0
 21 22  1  0  0  0  0
 21 17  1  0  0  0  0
 21168  1  1  0  0  0
 22 23  2  0  0  0  0
 22 24  1  0  0  0  0
 24 25  1  0  0  0  0
 24169  1  0  0  0  0
 25 26  1  0  0  0  0
 25 28  1  0  0  0  0
 25170  1  6  0  0  0
 26 27  1  0  0  0  0
 27171  1  0  0  0  0
 28 29  2  0  0  0  0
 28 30  1  0  0  0  0
 30 31  1  0  0  0  0
 30172  1  0  0  0  0
 31 32  1  0  0  0  0
 31 36  1  0  0  0  0
 31173  1  1  0  0  0
 32 33  1  0  0  0  0
 32174  1  0  0  0  0
 32175  1  0  0  0  0
 33 34  1  0  0  0  0
 33 35  1  0  0  0  0
 33176  1  0  0  0  0
 34177  1  0  0  0  0
 34178  1  0  0  0  0
 34179  1  0  0  0  0
 35180  1  0  0  0  0
 35181  1  0  0  0  0
 35182  1  0  0  0  0
 36 37  2  0  0  0  0
 36 38  1  0  0  0  0
 38183  1  0  0  0  0
 39 38  1  0  0  0  0
 39 40  1  0  0  0  0
 39139  1  0  0  0  0
 39184  1  6  0  0  0
 40 41  2  0  0  0  0
 40 42  1  0  0  0  0
 42 43  1  0  0  0  0
 42185  1  0  0  0  0
 43 44  1  0  0  0  0
 43 46  1  0  0  0  0
 43186  1  1  0  0  0
 44 45  1  0  0  0  0
 44187  1  0  0  0  0
 44188  1  0  0  0  0
 45189  1  0  0  0  0
 46 47  2  0  0  0  0
 46 48  1  0  0  0  0
 48 49  1  0  0  0  0
 48190  1  0  0  0  0
 49 50  1  0  0  0  0
 49 54  1  0  0  0  0
 49191  1  1  0  0  0
 50 51  1  0  0  0  0
 50192  1  0  0  0  0
 50193  1  0  0  0  0
 51 52  1  0  0  0  0
 51 53  1  0  0  0  0
 51194  1  0  0  0  0
 52195  1  0  0  0  0
 52196  1  0  0  0  0
 52197  1  0  0  0  0
 53198  1  0  0  0  0
 53199  1  0  0  0  0
 53200  1  0  0  0  0
 54 55  2  0  0  0  0
 54 56  1  0  0  0  0
 56201  1  0  0  0  0
 57 56  1  0  0  0  0
 57 58  1  0  0  0  0
 57136  1  0  0  0  0
 57202  1  6  0  0  0
 58 59  2  0  0  0  0
 58 60  1  0  0  0  0
 60203  1  0  0  0  0
 61 60  1  0  0  0  0
 61 62  1  0  0  0  0
 61133  1  0  0  0  0
 61204  1  1  0  0  0
 62 63  2  0  0  0  0
 62 64  1  0  0  0  0
 64 65  1  0  0  0  0
 64205  1  0  0  0  0
 65 66  1  0  0  0  0
 65 71  1  0  0  0  0
 65206  1  1  0  0  0
 66 67  1  0  0  0  0
 66207  1  0  0  0  0
 66208  1  0  0  0  0
 67 68  1  0  0  0  0
 68 69  1  0  0  0  0
 68 70  2  0  0  0  0
 69209  1  0  0  0  0
 69210  1  0  0  0  0
 71 72  2  0  0  0  0
 71 73  1  0  0  0  0
 73 74  1  0  0  0  0
 73211  1  0  0  0  0
 74 75  1  0  0  0  0
 74 79  1  0  0  0  0
 74212  1  6  0  0  0
 75 76  1  0  0  0  0
 75213  1  0  0  0  0
 75214  1  0  0  0  0
 76 77  1  0  0  0  0
 76 78  1  0  0  0  0
 76215  1  0  0  0  0
 77216  1  0  0  0  0
 77217  1  0  0  0  0
 77218  1  0  0  0  0
 78219  1  0  0  0  0
 78220  1  0  0  0  0
 78221  1  0  0  0  0
 79 80  2  0  0  0  0
 79 81  1  0  0  0  0
 81222  1  0  0  0  0
 82 81  1  0  0  0  0
 82 83  1  0  0  0  0
 82130  1  0  0  0  0
 82223  1  6  0  0  0
 83 84  2  0  0  0  0
 83 85  1  0  0  0  0
 85 86  1  0  0  0  0
 85224  1  0  0  0  0
 86 87  2  0  0  0  0
 86 89  1  0  0  0  0
 87 88  1  0  0  0  0
 87225  1  0  0  0  0
 88226  1  0  0  0  0
 88227  1  0  0  0  0
 88228  1  0  0  0  0
 89 90  2  0  0  0  0
 89 91  1  0  0  0  0
 91229  1  0  0  0  0
 92 91  1  0  0  0  0
 92 93  1  0  0  0  0
 92127  1  0  0  0  0
 92230  1  6  0  0  0
 93 94  2  0  0  0  0
 93 95  1  0  0  0  0
 95231  1  0  0  0  0
 96 95  1  0  0  0  0
 96 97  1  0  0  0  0
 96123  1  0  0  0  0
 96232  1  1  0  0  0
 97 98  2  0  0  0  0
 97 99  1  0  0  0  0
 99100  1  0  0  0  0
 99233  1  0  0  0  0
100101  1  0  0  0  0
100104  1  0  0  0  0
100234  1  1  0  0  0
101102  1  0  0  0  0
101235  1  0  0  0  0
101236  1  0  0  0  0
102103  1  0  0  0  0
102237  1  0  0  0  0
102238  1  0  0  0  0
103239  1  0  0  0  0
104105  2  0  0  0  0
104106  1  0  0  0  0
106107  1  0  0  0  0
106240  1  0  0  0  0
107108  1  0  0  0  0
107111  1  0  0  0  0
107241  1  1  0  0  0
108109  1  0  0  0  0
108242  1  0  0  0  0
108243  1  0  0  0  0
109110  1  0  0  0  0
110244  1  0  0  0  0
110245  1  0  0  0  0
111112  2  0  0  0  0
111113  1  0  0  0  0
113114  1  0  0  0  0
113246  1  0  0  0  0
114115  1  0  0  0  0
114120  1  0  0  0  0
114247  1  6  0  0  0
115116  1  0  0  0  0
115248  1  0  0  0  0
115249  1  0  0  0  0
116117  1  0  0  0  0
116250  1  0  0  0  0
116251  1  0  0  0  0
117118  1  0  0  0  0
117252  1  0  0  0  0
117253  1  0  0  0  0
118119  1  0  0  0  0
118254  1  0  0  0  0
118255  1  0  0  0  0
119256  1  0  0  0  0
119257  1  0  0  0  0
120121  2  0  0  0  0
120122  1  0  0  0  0
122258  1  0  0  0  0
123124  1  0  0  0  0
123125  1  0  0  0  0
123259  1  1  0  0  0
124260  1  0  0  0  0
124261  1  0  0  0  0
124262  1  0  0  0  0
125126  1  0  0  0  0
125263  1  0  0  0  0
125264  1  0  0  0  0
126265  1  0  0  0  0
126266  1  0  0  0  0
126267  1  0  0  0  0
127128  1  0  0  0  0
127129  1  0  0  0  0
127268  1  1  0  0  0
128269  1  0  0  0  0
128270  1  0  0  0  0
128271  1  0  0  0  0
129272  1  0  0  0  0
130131  1  0  0  0  0
130132  1  0  0  0  0
130273  1  0  0  0  0
131274  1  0  0  0  0
131275  1  0  0  0  0
131276  1  0  0  0  0
132277  1  0  0  0  0
132278  1  0  0  0  0
132279  1  0  0  0  0
133134  1  0  0  0  0
133135  1  0  0  0  0
133280  1  0  0  0  0
134281  1  0  0  0  0
134282  1  0  0  0  0
134283  1  0  0  0  0
135284  1  0  0  0  0
135285  1  0  0  0  0
135286  1  0  0  0  0
136137  1  0  0  0  0
136138  1  0  0  0  0
136287  1  0  0  0  0
137288  1  0  0  0  0
137289  1  0  0  0  0
137290  1  0  0  0  0
138291  1  0  0  0  0
138292  1  0  0  0  0
138293  1  0  0  0  0
139140  1  0  0  0  0
139141  1  0  0  0  0
139294  1  0  0  0  0
140295  1  0  0  0  0
140296  1  0  0  0  0
140297  1  0  0  0  0
141298  1  0  0  0  0
141299  1  0  0  0  0
141300  1  0  0  0  0
M  END
>  <IDENTIFIER>
CNP0352313.1

>  <Energy>
2.03924e+36

$$$$
