
 OpenBabel09072518003D

 58 61  0  0  0  0  0  0  0  0999 V2000
    0.7135    4.5874    0.8789 C   0  0  0  0  0  0  0  0  0  0  0  0
   -0.1593    3.4313    1.2464 C   0  0  0  0  0  0  0  0  0  0  0  0
   -1.0164    3.5679    2.1088 O   0  0  0  0  0  0  0  0  0  0  0  0
    0.0039    2.2450    0.6068 O   0  0  0  0  0  0  0  0  0  0  0  0
   -0.7821    1.1354    0.8472 C   0  0  0  0  0  0  0  0  0  0  0  0
   -0.3863   -0.0615   -0.0767 C   0  0  2  0  0  0  0  0  0  0  0  0
   -0.6820    0.3752   -1.5805 C   0  0  0  0  0  0  0  0  0  0  0  0
   -2.0990    0.0195   -2.0808 C   0  0  2  0  0  0  0  0  0  0  0  0
   -3.0730    0.5639   -1.2613 O   0  0  0  0  0  0  0  0  0  0  0  0
   -4.0637    1.4093   -1.6418 C   0  0  0  0  0  0  0  0  0  0  0  0
   -5.0788    1.8404   -0.6330 C   0  0  0  0  0  0  0  0  0  0  0  0
   -4.1452    1.8160   -2.7919 O   0  0  0  0  0  0  0  0  0  0  0  0
   -2.1649   -1.4952   -2.0387 C   0  0  0  0  0  0  0  0  0  0  0  0
   -2.5244   -2.2986   -3.2575 C   0  0  0  0  0  0  0  0  0  0  0  0
   -1.7810   -2.1152   -0.9092 C   0  0  0  0  0  0  0  0  0  0  0  0
   -1.3707   -1.2757    0.2836 C   0  0  1  0  0  0  0  0  0  0  0  0
   -0.9078   -2.1114    1.3211 O   0  0  0  0  0  0  0  0  0  0  0  0
    0.4507   -2.5296    1.1799 C   0  0  2  0  0  0  0  0  0  0  0  0
    1.2383   -1.7976    2.2605 C   0  0  2  0  0  0  0  0  0  0  0  0
    0.5537   -1.6519    3.4802 O   0  0  0  0  0  0  0  0  0  0  0  0
    1.7032   -0.4624    1.6105 C   0  0  1  0  0  0  0  0  0  0  0  0
    3.0947   -0.5277    1.5977 O   0  0  0  0  0  0  0  0  0  0  0  0
    3.9704    0.3556    2.1364 C   0  0  0  0  0  0  0  0  0  0  0  0
    5.4367    0.0968    1.9859 C   0  0  0  0  0  0  0  0  0  0  0  0
    3.5862    1.3535    2.7283 O   0  0  0  0  0  0  0  0  0  0  0  0
    1.1701   -0.4781    0.1167 C   0  0  2  0  0  0  0  0  0  0  0  0
    2.1468    0.3481   -0.7854 C   0  0  0  0  0  0  0  0  0  0  0  0
    1.1589   -1.9821   -0.0760 C   0  0  2  0  0  0  0  0  0  0  0  0
    1.3512   -2.7274   -1.3297 C   0  0  0  0  0  0  0  0  0  0  0  0
    2.3903   -2.5786   -0.3598 O   0  0  0  0  0  0  0  0  0  0  0  0
    0.4514    5.4842    1.4808 H   0  0  0  0  0  0  0  0  0  0  0  0
    0.5763    4.8254   -0.1965 H   0  0  0  0  0  0  0  0  0  0  0  0
    1.7752    4.3249    1.0647 H   0  0  0  0  0  0  0  0  0  0  0  0
   -1.8427    1.4149    0.6756 H   0  0  0  0  0  0  0  0  0  0  0  0
   -0.7149    0.8497    1.9160 H   0  0  0  0  0  0  0  0  0  0  0  0
   -0.0442   -0.2106   -2.2740 H   0  0  0  0  0  0  0  0  0  0  0  0
   -0.4304    1.4442   -1.7499 H   0  0  0  0  0  0  0  0  0  0  0  0
   -2.2206    0.3685   -3.1300 H   0  0  0  0  0  0  0  0  0  0  0  0
   -4.8615    1.3749    0.3520 H   0  0  0  0  0  0  0  0  0  0  0  0
   -6.0901    1.5237   -0.9631 H   0  0  0  0  0  0  0  0  0  0  0  0
   -5.0553    2.9444   -0.5228 H   0  0  0  0  0  0  0  0  0  0  0  0
   -2.7724   -1.6394   -4.1155 H   0  0  0  0  0  0  0  0  0  0  0  0
   -3.4038   -2.9393   -3.0395 H   0  0  0  0  0  0  0  0  0  0  0  0
   -1.6656   -2.9411   -3.5472 H   0  0  0  0  0  0  0  0  0  0  0  0
   -1.7354   -3.2001   -0.8609 H   0  0  0  0  0  0  0  0  0  0  0  0
   -2.3371   -0.8416    0.6178 H   0  0  0  0  0  0  0  0  0  0  0  0
    0.4939   -3.6341    1.2913 H   0  0  0  0  0  0  0  0  0  0  0  0
    2.1425   -2.4208    2.4563 H   0  0  0  0  0  0  0  0  0  0  0  0
   -0.1204   -0.9321    3.3676 H   0  0  0  0  0  0  0  0  0  0  0  0
    1.3946    0.4455    2.1634 H   0  0  0  0  0  0  0  0  0  0  0  0
    5.6018   -0.8469    1.4232 H   0  0  0  0  0  0  0  0  0  0  0  0
    5.9090    0.0030    2.9864 H   0  0  0  0  0  0  0  0  0  0  0  0
    5.9107    0.9307    1.4287 H   0  0  0  0  0  0  0  0  0  0  0  0
    3.1938   -0.0046   -0.6917 H   0  0  0  0  0  0  0  0  0  0  0  0
    2.1216    1.4199   -0.5028 H   0  0  0  0  0  0  0  0  0  0  0  0
    1.9439    0.2675   -1.8664 H   0  0  0  0  0  0  0  0  0  0  0  0
    1.6604   -2.1761   -2.2404 H   0  0  0  0  0  0  0  0  0  0  0  0
    1.0610   -3.7981   -1.3515 H   0  0  0  0  0  0  0  0  0  0  0  0
  1  2  1  0  0  0  0
  1 31  1  0  0  0  0
  1 32  1  0  0  0  0
  1 33  1  0  0  0  0
  2  3  2  0  0  0  0
  2  4  1  0  0  0  0
  4  5  1  0  0  0  0
  5 34  1  0  0  0  0
  5 35  1  0  0  0  0
  6  5  1  1  0  0  0
  6  7  1  0  0  0  0
  7  8  1  0  0  0  0
  7 36  1  0  0  0  0
  7 37  1  0  0  0  0
  8  9  1  0  0  0  0
  8 13  1  0  0  0  0
  8 38  1  6  0  0  0
  9 10  1  0  0  0  0
 10 11  1  0  0  0  0
 10 12  2  0  0  0  0
 11 39  1  0  0  0  0
 11 40  1  0  0  0  0
 11 41  1  0  0  0  0
 13 14  1  0  0  0  0
 13 15  2  0  0  0  0
 14 42  1  0  0  0  0
 14 43  1  0  0  0  0
 14 44  1  0  0  0  0
 15 16  1  0  0  0  0
 15 45  1  0  0  0  0
 16 17  1  0  0  0  0
 16  6  1  0  0  0  0
 16 46  1  1  0  0  0
 18 17  1  0  0  0  0
 18 19  1  0  0  0  0
 18 47  1  1  0  0  0
 19 20  1  0  0  0  0
 19 21  1  0  0  0  0
 19 48  1  1  0  0  0
 20 49  1  0  0  0  0
 21 22  1  0  0  0  0
 21 26  1  0  0  0  0
 21 50  1  1  0  0  0
 22 23  1  0  0  0  0
 23 24  1  0  0  0  0
 23 25  2  0  0  0  0
 24 51  1  0  0  0  0
 24 52  1  0  0  0  0
 24 53  1  0  0  0  0
 26 27  1  6  0  0  0
 26 28  1  0  0  0  0
 26  6  1  0  0  0  0
 27 54  1  0  0  0  0
 27 55  1  0  0  0  0
 27 56  1  0  0  0  0
 28 29  1  0  0  0  0
 28 18  1  0  0  0  0
 28 30  1  1  0  0  0
 29 30  1  0  0  0  0
 29 57  1  0  0  0  0
 29 58  1  0  0  0  0
M  END
>  <IDENTIFIER>
CNP0384823.1

>  <Energy>
2236.84

$$$$
