
 OpenBabel09102506023D

 63 67  0  0  0  0  0  0  0  0999 V2000
    9.8410   -1.3500   -1.7321 C   0  0  0  0  0  0  0  0  0  0  0  0
    9.0637   -1.7708   -0.5171 C   0  0  0  0  0  0  0  0  0  0  0  0
    9.5801   -2.5639    0.2570 O   0  0  0  0  0  0  0  0  0  0  0  0
    7.7027   -1.2339   -0.2277 C   0  0  0  0  0  0  0  0  0  0  0  0
    7.0389   -0.3840   -1.1330 C   0  0  0  0  0  0  0  0  0  0  0  0
    5.7612    0.1094   -0.8456 C   0  0  0  0  0  0  0  0  0  0  0  0
    5.1253   -0.2181    0.3680 C   0  0  0  0  0  0  0  0  0  0  0  0
    3.8401    0.2925    0.7331 N   0  0  0  0  0  0  0  0  0  0  0  0
    2.8398    0.6429   -0.1302 C   0  0  0  0  0  0  0  0  0  0  0  0
    2.9546    0.4555   -1.3334 O   0  0  0  0  0  0  0  0  0  0  0  0
    1.6871    1.1692    0.3674 N   0  0  0  0  0  0  0  0  0  0  0  0
    0.5123    1.4198   -0.4544 C   0  0  0  0  0  0  0  0  0  0  0  0
   -0.5463    2.2173    0.3328 C   0  0  1  0  0  0  0  0  0  0  0  0
   -1.9017    2.4024   -0.4286 C   0  0  0  0  0  0  0  0  0  0  0  0
   -3.0335    2.5451    0.6398 C   0  0  2  0  0  0  0  0  0  0  0  0
   -2.5006    3.5463    1.7084 C   0  0  0  0  0  0  0  0  0  0  0  0
   -1.3591    2.8270    2.5063 C   0  0  0  0  0  0  0  0  0  0  0  0
   -0.8068    1.6936    1.7059 N   0  0  1  0  0  0  0  0  0  0  0  0
   -1.8193    0.5972    1.6539 C   0  0  0  0  0  0  0  0  0  0  0  0
   -3.2365    1.1932    1.3960 C   0  0  2  0  0  0  0  0  0  0  0  0
   -4.2375    0.1958    0.8419 C   0  0  0  0  0  0  0  0  0  0  0  0
   -4.0945   -0.4748   -0.3845 C   0  0  0  0  0  0  0  0  0  0  0  0
   -5.0960   -1.3824   -0.7779 C   0  0  0  0  0  0  0  0  0  0  0  0
   -5.0355   -2.1341   -2.0451 C   0  0  0  0  0  0  0  0  0  0  0  0
   -4.0473   -2.0839   -3.0118 C   0  0  0  0  0  0  0  0  0  0  0  0
   -4.4428   -2.9608   -3.9973 C   0  0  0  0  0  0  0  0  0  0  0  0
   -5.6441   -3.4940   -3.5790 C   0  0  0  0  0  0  0  0  0  0  0  0
   -5.9699   -2.9830   -2.4148 O   0  0  0  0  0  0  0  0  0  0  0  0
   -6.1668   -1.5885    0.0329 N   0  0  0  0  0  0  0  0  0  0  0  0
   -6.2930   -0.9403    1.2165 C   0  0  0  0  0  0  0  0  0  0  0  0
   -7.4728   -1.1854    2.0945 C   0  0  0  0  0  0  0  0  0  0  0  0
   -5.3359   -0.0614    1.6046 N   0  0  0  0  0  0  0  0  0  0  0  0
    5.7974   -1.0498    1.2760 C   0  0  0  0  0  0  0  0  0  0  0  0
    7.0598   -1.5652    0.9774 C   0  0  0  0  0  0  0  0  0  0  0  0
   10.8291   -1.8577   -1.7599 H   0  0  0  0  0  0  0  0  0  0  0  0
   10.0124   -0.2533   -1.6984 H   0  0  0  0  0  0  0  0  0  0  0  0
    9.2837   -1.6122   -2.6547 H   0  0  0  0  0  0  0  0  0  0  0  0
    7.5016   -0.0935   -2.0666 H   0  0  0  0  0  0  0  0  0  0  0  0
    5.3015    0.7731   -1.5630 H   0  0  0  0  0  0  0  0  0  0  0  0
    3.6322    0.3420    1.7427 H   0  0  0  0  0  0  0  0  0  0  0  0
    1.6459    1.3770    1.3769 H   0  0  0  0  0  0  0  0  0  0  0  0
    0.1087    0.4426   -0.7950 H   0  0  0  0  0  0  0  0  0  0  0  0
    0.7874    2.0189   -1.3510 H   0  0  0  0  0  0  0  0  0  0  0  0
   -0.0822    3.2261    0.4593 H   0  0  0  0  0  0  0  0  0  0  0  0
   -2.1351    1.5360   -1.0713 H   0  0  0  0  0  0  0  0  0  0  0  0
   -1.8197    3.2879   -1.0958 H   0  0  0  0  0  0  0  0  0  0  0  0
   -3.9819    2.9148    0.1939 H   0  0  0  0  0  0  0  0  0  0  0  0
   -3.2809    3.8881    2.4214 H   0  0  0  0  0  0  0  0  0  0  0  0
   -2.1224    4.4453    1.1721 H   0  0  0  0  0  0  0  0  0  0  0  0
   -1.7688    2.4110    3.4553 H   0  0  0  0  0  0  0  0  0  0  0  0
   -0.5757    3.5565    2.8053 H   0  0  0  0  0  0  0  0  0  0  0  0
   -1.8214   -0.0067    2.5866 H   0  0  0  0  0  0  0  0  0  0  0  0
   -1.5371   -0.0977    0.8331 H   0  0  0  0  0  0  0  0  0  0  0  0
   -3.6726    1.4849    2.3807 H   0  0  0  0  0  0  0  0  0  0  0  0
   -3.2344   -0.3120   -1.0101 H   0  0  0  0  0  0  0  0  0  0  0  0
   -3.1459   -1.4868   -3.0106 H   0  0  0  0  0  0  0  0  0  0  0  0
   -3.9183   -3.1869   -4.9159 H   0  0  0  0  0  0  0  0  0  0  0  0
   -6.2382   -4.2219   -4.1159 H   0  0  0  0  0  0  0  0  0  0  0  0
   -8.1571   -1.9285    1.6341 H   0  0  0  0  0  0  0  0  0  0  0  0
   -8.0246   -0.2351    2.2510 H   0  0  0  0  0  0  0  0  0  0  0  0
   -7.1298   -1.5732    3.0773 H   0  0  0  0  0  0  0  0  0  0  0  0
    5.3311   -1.3152    2.2168 H   0  0  0  0  0  0  0  0  0  0  0  0
    7.5374   -2.2157    1.6995 H   0  0  0  0  0  0  0  0  0  0  0  0
  1  2  1  0  0  0  0
  1 35  1  0  0  0  0
  1 36  1  0  0  0  0
  1 37  1  0  0  0  0
  2  3  2  0  0  0  0
  2  4  1  0  0  0  0
  4  5  2  0  0  0  0
  5  6  1  0  0  0  0
  5 38  1  0  0  0  0
  6  7  2  0  0  0  0
  6 39  1  0  0  0  0
  7  8  1  0  0  0  0
  7 33  1  0  0  0  0
  8  9  1  0  0  0  0
  8 40  1  0  0  0  0
  9 10  2  0  0  0  0
  9 11  1  0  0  0  0
 11 12  1  0  0  0  0
 11 41  1  0  0  0  0
 12 42  1  0  0  0  0
 12 43  1  0  0  0  0
 13 12  1  0  0  0  0
 13 14  1  0  0  0  0
 13 44  1  1  0  0  0
 14 45  1  0  0  0  0
 14 46  1  0  0  0  0
 15 14  1  0  0  0  0
 15 16  1  0  0  0  0
 15 47  1  6  0  0  0
 16 17  1  0  0  0  0
 16 48  1  0  0  0  0
 16 49  1  0  0  0  0
 17 50  1  0  0  0  0
 17 51  1  0  0  0  0
 18 17  1  1  0  0  0
 18 19  1  0  0  0  0
 18 13  1  0  0  0  0
 19 20  1  0  0  0  0
 19 52  1  0  0  0  0
 19 53  1  0  0  0  0
 20 21  1  0  0  0  0
 20 15  1  0  0  0  0
 20 54  1  1  0  0  0
 21 22  2  0  0  0  0
 22 23  1  0  0  0  0
 22 55  1  0  0  0  0
 23 24  1  0  0  0  0
 23 29  2  0  0  0  0
 24 25  2  0  0  0  0
 25 26  1  0  0  0  0
 25 56  1  0  0  0  0
 26 27  2  0  0  0  0
 26 57  1  0  0  0  0
 27 28  1  0  0  0  0
 27 58  1  0  0  0  0
 28 24  1  0  0  0  0
 29 30  1  0  0  0  0
 30 31  1  0  0  0  0
 30 32  2  0  0  0  0
 31 59  1  0  0  0  0
 31 60  1  0  0  0  0
 31 61  1  0  0  0  0
 32 21  1  0  0  0  0
 33 34  2  0  0  0  0
 33 62  1  0  0  0  0
 34  4  1  0  0  0  0
 34 63  1  0  0  0  0
M  END
>  <IDENTIFIER>
CNP0148926.1

>  <Energy>
751.968

$$$$
