
 OpenBabel09122507233D

 75 77  0  0  0  0  0  0  0  0999 V2000
   -8.0748   -0.8840   -0.1088 C   0  0  0  0  0  0  0  0  0  0  0  0
   -7.7343    0.1281    1.0079 C   0  0  0  0  0  0  0  0  0  0  0  0
   -7.9051    1.5818    0.5323 C   0  0  0  0  0  0  0  0  0  0  0  0
   -6.3651   -0.1057    1.7405 C   0  0  1  0  0  0  0  0  0  0  0  0
   -6.3546   -1.4867    2.4189 C   0  0  0  0  0  0  0  0  0  0  0  0
   -5.0480    0.0460    0.9743 C   0  0  0  0  0  0  0  0  0  0  0  0
   -4.8949    0.3056   -0.3389 C   0  0  0  0  0  0  0  0  0  0  0  0
   -3.5808    0.4127   -1.1133 C   0  0  2  0  0  0  0  0  0  0  0  0
   -3.6941   -0.6104   -2.2637 C   0  0  0  0  0  0  0  0  0  0  0  0
   -2.2629    0.2898   -0.2623 C   0  0  1  0  0  0  0  0  0  0  0  0
   -1.8903   -1.1089    0.3044 C   0  0  0  0  0  0  0  0  0  0  0  0
   -0.3667   -1.0650    0.5717 C   0  0  0  0  0  0  0  0  0  0  0  0
    0.0372    0.3912    0.3133 C   0  0  1  0  0  0  0  0  0  0  0  0
    1.4950    0.7297   -0.0369 C   0  0  0  0  0  0  0  0  0  0  0  0
    2.4952   -0.1770    0.1693 C   0  0  0  0  0  0  0  0  0  0  0  0
    3.9559   -0.0449   -0.0913 C   0  0  0  0  0  0  0  0  0  0  0  0
    4.4201    0.9191   -0.6750 O   0  0  0  0  0  0  0  0  0  0  0  0
    4.7793   -1.0368    0.3559 O   0  0  0  0  0  0  0  0  0  0  0  0
    6.1686   -1.1179    0.2565 C   0  0  2  0  0  0  0  0  0  0  0  0
    6.5829   -2.4289    0.9524 C   0  0  0  0  0  0  0  0  0  0  0  0
    6.8514    0.1017    0.9533 C   0  0  0  0  0  0  0  0  0  0  0  0
    8.3799    0.1334    0.7256 C   0  0  0  0  0  0  0  0  0  0  0  0
    8.6993    0.1352   -0.7890 C   0  0  1  0  0  0  0  0  0  0  0  0
   10.0849    0.2075   -1.0086 O   0  0  0  0  0  0  0  0  0  0  0  0
    8.1001   -1.1022   -1.4848 C   0  0  0  0  0  0  0  0  0  0  0  0
    6.6231   -1.1456   -1.1957 C   0  0  0  0  0  0  0  0  0  0  0  0
    5.8193   -1.1387   -2.1165 O   0  0  0  0  0  0  0  0  0  0  0  0
    1.6284    2.1127   -0.6244 C   0  0  0  0  0  0  0  0  0  0  0  0
    2.6296    2.5124   -1.1912 O   0  0  0  0  0  0  0  0  0  0  0  0
    0.4390    3.0292   -0.4934 C   0  0  0  0  0  0  0  0  0  0  0  0
   -0.8753    2.3869   -1.0046 C   0  0  0  0  0  0  0  0  0  0  0  0
   -0.9125    0.8259   -0.8346 C   0  0  2  0  0  0  0  0  0  0  0  0
   -0.4893    0.1782   -2.1913 C   0  0  0  0  0  0  0  0  0  0  0  0
   -9.0921   -0.6737   -0.5025 H   0  0  0  0  0  0  0  0  0  0  0  0
   -8.0929   -1.9182    0.2888 H   0  0  0  0  0  0  0  0  0  0  0  0
   -7.3824   -0.8636   -0.9659 H   0  0  0  0  0  0  0  0  0  0  0  0
   -8.5248   -0.0115    1.7802 H   0  0  0  0  0  0  0  0  0  0  0  0
   -7.1914    1.8765   -0.2561 H   0  0  0  0  0  0  0  0  0  0  0  0
   -7.7757    2.2753    1.3904 H   0  0  0  0  0  0  0  0  0  0  0  0
   -8.9312    1.7292    0.1321 H   0  0  0  0  0  0  0  0  0  0  0  0
   -6.3298    0.6468    2.5595 H   0  0  0  0  0  0  0  0  0  0  0  0
   -6.3305   -2.3028    1.6667 H   0  0  0  0  0  0  0  0  0  0  0  0
   -7.2511   -1.6132    3.0630 H   0  0  0  0  0  0  0  0  0  0  0  0
   -5.4572   -1.5940    3.0653 H   0  0  0  0  0  0  0  0  0  0  0  0
   -4.1723   -0.0844    1.5894 H   0  0  0  0  0  0  0  0  0  0  0  0
   -5.7610    0.4530   -0.9542 H   0  0  0  0  0  0  0  0  0  0  0  0
   -3.5780    1.4352   -1.5476 H   0  0  0  0  0  0  0  0  0  0  0  0
   -3.7813   -1.6432   -1.8680 H   0  0  0  0  0  0  0  0  0  0  0  0
   -2.8638   -0.5840   -2.9782 H   0  0  0  0  0  0  0  0  0  0  0  0
   -4.6092   -0.4045   -2.8609 H   0  0  0  0  0  0  0  0  0  0  0  0
   -2.4229    0.9487    0.6232 H   0  0  0  0  0  0  0  0  0  0  0  0
   -2.0605   -1.9182   -0.4351 H   0  0  0  0  0  0  0  0  0  0  0  0
   -2.4677   -1.3575    1.2153 H   0  0  0  0  0  0  0  0  0  0  0  0
    0.1149   -1.6957   -0.2074 H   0  0  0  0  0  0  0  0  0  0  0  0
   -0.0539   -1.4676    1.5584 H   0  0  0  0  0  0  0  0  0  0  0  0
   -0.2427    0.9764    1.2209 H   0  0  0  0  0  0  0  0  0  0  0  0
    2.2307   -1.1261    0.6212 H   0  0  0  0  0  0  0  0  0  0  0  0
    6.2618   -2.4116    2.0162 H   0  0  0  0  0  0  0  0  0  0  0  0
    7.6750   -2.6080    0.9309 H   0  0  0  0  0  0  0  0  0  0  0  0
    6.0898   -3.2933    0.4568 H   0  0  0  0  0  0  0  0  0  0  0  0
    6.6236    0.1048    2.0413 H   0  0  0  0  0  0  0  0  0  0  0  0
    6.4622    1.0507    0.5345 H   0  0  0  0  0  0  0  0  0  0  0  0
    8.8630   -0.7376    1.2141 H   0  0  0  0  0  0  0  0  0  0  0  0
    8.7973    1.0512    1.1929 H   0  0  0  0  0  0  0  0  0  0  0  0
    8.2389    1.0436   -1.2384 H   0  0  0  0  0  0  0  0  0  0  0  0
   10.4958   -0.5983   -0.5988 H   0  0  0  0  0  0  0  0  0  0  0  0
    8.5804   -2.0231   -1.0938 H   0  0  0  0  0  0  0  0  0  0  0  0
    8.2868   -1.0568   -2.5800 H   0  0  0  0  0  0  0  0  0  0  0  0
    0.5954    4.0335   -0.9431 H   0  0  0  0  0  0  0  0  0  0  0  0
    0.3323    3.1795    0.6019 H   0  0  0  0  0  0  0  0  0  0  0  0
   -1.0652    2.6508   -2.0667 H   0  0  0  0  0  0  0  0  0  0  0  0
   -1.6857    2.8850   -0.4278 H   0  0  0  0  0  0  0  0  0  0  0  0
   -1.1174    0.5638   -3.0165 H   0  0  0  0  0  0  0  0  0  0  0  0
   -0.5530   -0.9273   -2.1845 H   0  0  0  0  0  0  0  0  0  0  0  0
    0.5453    0.4583   -2.4734 H   0  0  0  0  0  0  0  0  0  0  0  0
  1  2  1  0  0  0  0
  1 34  1  0  0  0  0
  1 35  1  0  0  0  0
  1 36  1  0  0  0  0
  2  3  1  0  0  0  0
  2  4  1  0  0  0  0
  2 37  1  0  0  0  0
  3 38  1  0  0  0  0
  3 39  1  0  0  0  0
  3 40  1  0  0  0  0
  4  5  1  0  0  0  0
  4  6  1  0  0  0  0
  4 41  1  1  0  0  0
  5 42  1  0  0  0  0
  5 43  1  0  0  0  0
  5 44  1  0  0  0  0
  6  7  2  0  0  0  0
  6 45  1  0  0  0  0
  7  8  1  0  0  0  0
  7 46  1  0  0  0  0
  8  9  1  0  0  0  0
  8 10  1  0  0  0  0
  8 47  1  6  0  0  0
  9 48  1  0  0  0  0
  9 49  1  0  0  0  0
  9 50  1  0  0  0  0
 10 11  1  0  0  0  0
 10 51  1  1  0  0  0
 11 12  1  0  0  0  0
 11 52  1  0  0  0  0
 11 53  1  0  0  0  0
 12 54  1  0  0  0  0
 12 55  1  0  0  0  0
 13 12  1  0  0  0  0
 13 14  1  0  0  0  0
 13 56  1  1  0  0  0
 14 15  2  0  0  0  0
 14 28  1  0  0  0  0
 15 16  1  0  0  0  0
 15 57  1  0  0  0  0
 16 17  2  0  0  0  0
 16 18  1  0  0  0  0
 19 18  1  1  0  0  0
 19 20  1  0  0  0  0
 19 21  1  0  0  0  0
 20 58  1  0  0  0  0
 20 59  1  0  0  0  0
 20 60  1  0  0  0  0
 21 22  1  0  0  0  0
 21 61  1  0  0  0  0
 21 62  1  0  0  0  0
 22 23  1  0  0  0  0
 22 63  1  0  0  0  0
 22 64  1  0  0  0  0
 23 24  1  0  0  0  0
 23 25  1  0  0  0  0
 23 65  1  6  0  0  0
 24 66  1  0  0  0  0
 25 26  1  0  0  0  0
 25 67  1  0  0  0  0
 25 68  1  0  0  0  0
 26 27  2  0  0  0  0
 26 19  1  0  0  0  0
 28 29  2  0  0  0  0
 28 30  1  0  0  0  0
 30 31  1  0  0  0  0
 30 69  1  0  0  0  0
 30 70  1  0  0  0  0
 31 32  1  0  0  0  0
 31 71  1  0  0  0  0
 31 72  1  0  0  0  0
 32 33  1  6  0  0  0
 32 10  1  0  0  0  0
 32 13  1  0  0  0  0
 33 73  1  0  0  0  0
 33 74  1  0  0  0  0
 33 75  1  0  0  0  0
M  END
>  <IDENTIFIER>
CNP0272183.1

>  <Energy>
757.062

$$$$
