
 OpenBabel09092516353D

 48 50  0  0  0  0  0  0  0  0999 V2000
    2.3787    1.4262   -1.5447 C   0  0  0  0  0  0  0  0  0  0  0  0
    2.2142    0.3248   -0.4573 C   0  0  2  0  0  0  0  0  0  0  0  0
    3.2882    0.6443    0.6457 C   0  0  0  0  0  0  0  0  0  0  0  0
    3.2956   -0.2837    1.8441 C   0  0  0  0  0  0  0  0  0  0  0  0
    3.0347    0.1663    2.9485 O   0  0  0  0  0  0  0  0  0  0  0  0
    3.6118   -1.5917    1.7329 O   0  0  0  0  0  0  0  0  0  0  0  0
    2.5319   -1.0264   -1.1003 C   0  0  0  0  0  0  0  0  0  0  0  0
    3.6316   -1.1846   -1.6122 O   0  0  0  0  0  0  0  0  0  0  0  0
    1.5395   -2.1601   -1.2411 C   0  0  0  0  0  0  0  0  0  0  0  0
    0.1779   -1.9475   -0.5539 C   0  0  0  0  0  0  0  0  0  0  0  0
   -0.3612   -0.4768   -0.6417 C   0  0  2  0  0  0  0  0  0  0  0  0
   -0.4991   -0.1101   -2.1466 C   0  0  0  0  0  0  0  0  0  0  0  0
    0.7595    0.3240    0.1660 C   0  0  2  0  0  0  0  0  0  0  0  0
    0.2533    1.6923    0.6091 C   0  0  0  0  0  0  0  0  0  0  0  0
   -0.8497    1.5280    1.6688 C   0  0  0  0  0  0  0  0  0  0  0  0
   -1.7547    0.2665    1.4910 C   0  0  1  0  0  0  0  0  0  0  0  0
   -3.1619    0.7214    1.7376 C   0  0  0  0  0  0  0  0  0  0  0  0
   -3.6345    0.9165    2.8462 O   0  0  0  0  0  0  0  0  0  0  0  0
   -3.8903    0.9960    0.4602 C   0  0  0  0  0  0  0  0  0  0  0  0
   -2.7764    0.7906   -0.5842 C   0  0  0  0  0  0  0  0  0  0  0  0
   -1.8321   -0.2842    0.0386 C   0  0  1  0  0  0  0  0  0  0  0  0
   -2.6210   -1.6412    0.0040 C   0  0  0  0  0  0  0  0  0  0  0  0
    3.4115    1.4179   -1.9555 H   0  0  0  0  0  0  0  0  0  0  0  0
    2.2113    2.4372   -1.1179 H   0  0  0  0  0  0  0  0  0  0  0  0
    1.6989    1.3229   -2.4029 H   0  0  0  0  0  0  0  0  0  0  0  0
    3.1257    1.6767    1.0203 H   0  0  0  0  0  0  0  0  0  0  0  0
    4.3079    0.6351    0.2022 H   0  0  0  0  0  0  0  0  0  0  0  0
    3.8875   -1.9934    0.8999 H   0  0  0  0  0  0  0  0  0  0  0  0
    1.9732   -3.1117   -0.8647 H   0  0  0  0  0  0  0  0  0  0  0  0
    1.3774   -2.2909   -2.3325 H   0  0  0  0  0  0  0  0  0  0  0  0
    0.2839   -2.2221    0.5197 H   0  0  0  0  0  0  0  0  0  0  0  0
   -0.5073   -2.6938   -1.0073 H   0  0  0  0  0  0  0  0  0  0  0  0
    0.4076   -0.3144   -2.7389 H   0  0  0  0  0  0  0  0  0  0  0  0
   -0.7472    0.9613   -2.2843 H   0  0  0  0  0  0  0  0  0  0  0  0
   -1.2986   -0.7233   -2.6140 H   0  0  0  0  0  0  0  0  0  0  0  0
    0.8798   -0.2250    1.1255 H   0  0  0  0  0  0  0  0  0  0  0  0
   -0.1106    2.2224   -0.2939 H   0  0  0  0  0  0  0  0  0  0  0  0
    1.0291    2.3381    1.0657 H   0  0  0  0  0  0  0  0  0  0  0  0
   -1.4120    2.4898    1.6598 H   0  0  0  0  0  0  0  0  0  0  0  0
   -0.4044    1.4384    2.6843 H   0  0  0  0  0  0  0  0  0  0  0  0
   -1.3995   -0.5694    2.1342 H   0  0  0  0  0  0  0  0  0  0  0  0
   -4.3008    2.0259    0.3883 H   0  0  0  0  0  0  0  0  0  0  0  0
   -4.7236    0.2703    0.3642 H   0  0  0  0  0  0  0  0  0  0  0  0
   -2.2299    1.7523   -0.6532 H   0  0  0  0  0  0  0  0  0  0  0  0
   -3.1710    0.5694   -1.5988 H   0  0  0  0  0  0  0  0  0  0  0  0
   -3.6259   -1.5996    0.4630 H   0  0  0  0  0  0  0  0  0  0  0  0
   -2.0973   -2.4269    0.5847 H   0  0  0  0  0  0  0  0  0  0  0  0
   -2.7564   -1.9819   -1.0445 H   0  0  0  0  0  0  0  0  0  0  0  0
  1 23  1  0  0  0  0
  1 24  1  0  0  0  0
  1 25  1  0  0  0  0
  2  1  1  6  0  0  0
  2  3  1  0  0  0  0
  2  7  1  0  0  0  0
  3  4  1  0  0  0  0
  3 26  1  0  0  0  0
  3 27  1  0  0  0  0
  4  5  2  0  0  0  0
  4  6  1  0  0  0  0
  6 28  1  0  0  0  0
  7  8  2  0  0  0  0
  7  9  1  0  0  0  0
  9 10  1  0  0  0  0
  9 29  1  0  0  0  0
  9 30  1  0  0  0  0
 10 11  1  0  0  0  0
 10 31  1  0  0  0  0
 10 32  1  0  0  0  0
 11 12  1  6  0  0  0
 11 13  1  0  0  0  0
 12 33  1  0  0  0  0
 12 34  1  0  0  0  0
 12 35  1  0  0  0  0
 13 14  1  0  0  0  0
 13  2  1  0  0  0  0
 13 36  1  1  0  0  0
 14 15  1  0  0  0  0
 14 37  1  0  0  0  0
 14 38  1  0  0  0  0
 15 39  1  0  0  0  0
 15 40  1  0  0  0  0
 16 15  1  0  0  0  0
 16 17  1  0  0  0  0
 16 41  1  1  0  0  0
 17 18  2  0  0  0  0
 17 19  1  0  0  0  0
 19 20  1  0  0  0  0
 19 42  1  0  0  0  0
 19 43  1  0  0  0  0
 20 21  1  0  0  0  0
 20 44  1  0  0  0  0
 20 45  1  0  0  0  0
 21 22  1  1  0  0  0
 21 16  1  0  0  0  0
 21 11  1  0  0  0  0
 22 46  1  0  0  0  0
 22 47  1  0  0  0  0
 22 48  1  0  0  0  0
M  END
>  <IDENTIFIER>
CNP0323942.1

>  <Energy>
643.987

$$$$
