
 OpenBabel09112508153D

 42 45  0  0  0  0  0  0  0  0999 V2000
   -5.7957   -0.9712    0.5657 C   0  0  0  0  0  0  0  0  0  0  0  0
   -4.9798    0.1574   -0.0761 C   0  0  0  0  0  0  0  0  0  0  0  0
   -5.8643    1.3934   -0.2763 C   0  0  0  0  0  0  0  0  0  0  0  0
   -4.4789   -0.3061   -1.4393 C   0  0  0  0  0  0  0  0  0  0  0  0
   -3.1753   -0.3713   -1.7339 C   0  0  0  0  0  0  0  0  0  0  0  0
   -2.1736   -0.0024   -0.7248 C   0  0  0  0  0  0  0  0  0  0  0  0
   -0.8031   -0.0817   -1.0011 C   0  0  0  0  0  0  0  0  0  0  0  0
    0.1537    0.2324   -0.0113 C   0  0  0  0  0  0  0  0  0  0  0  0
    1.6250    0.1125   -0.3095 C   0  0  0  0  0  0  0  0  0  0  0  0
    2.0952    0.3166   -1.6216 C   0  0  0  0  0  0  0  0  0  0  0  0
    3.3855    0.2278   -1.9148 O   0  0  0  0  0  0  0  0  0  0  0  0
    4.3109   -0.0774   -1.0154 C   0  0  0  0  0  0  0  0  0  0  0  0
    5.6475   -0.1602   -1.4173 C   0  0  0  0  0  0  0  0  0  0  0  0
    6.6442   -0.4986   -0.4952 C   0  0  0  0  0  0  0  0  0  0  0  0
    7.9348   -0.5815   -0.8738 O   0  0  0  0  0  0  0  0  0  0  0  0
    6.3006   -0.7578    0.8330 C   0  0  0  0  0  0  0  0  0  0  0  0
    4.9651   -0.6743    1.2576 C   0  0  0  0  0  0  0  0  0  0  0  0
    4.6629   -0.9353    2.5482 O   0  0  0  0  0  0  0  0  0  0  0  0
    3.9523   -0.3237    0.3288 C   0  0  0  0  0  0  0  0  0  0  0  0
    2.5864   -0.2167    0.6783 C   0  0  0  0  0  0  0  0  0  0  0  0
    2.2371   -0.4434    1.8241 O   0  0  0  0  0  0  0  0  0  0  0  0
   -0.3158    0.6527    1.2541 C   0  0  0  0  0  0  0  0  0  0  0  0
   -1.6896    0.7525    1.5210 C   0  0  0  0  0  0  0  0  0  0  0  0
   -2.1253    1.1680    2.7288 O   0  0  0  0  0  0  0  0  0  0  0  0
   -2.6172    0.4164    0.5321 C   0  0  0  0  0  0  0  0  0  0  0  0
   -3.9457    0.4926    0.7965 O   0  0  0  0  0  0  0  0  0  0  0  0
   -6.6541   -1.2583   -0.0792 H   0  0  0  0  0  0  0  0  0  0  0  0
   -6.1882   -0.6491    1.5548 H   0  0  0  0  0  0  0  0  0  0  0  0
   -5.1536   -1.8650    0.7221 H   0  0  0  0  0  0  0  0  0  0  0  0
   -6.7247    1.1594   -0.9406 H   0  0  0  0  0  0  0  0  0  0  0  0
   -5.2743    2.2150   -0.7372 H   0  0  0  0  0  0  0  0  0  0  0  0
   -6.2582    1.7507    0.6995 H   0  0  0  0  0  0  0  0  0  0  0  0
   -5.2021   -0.5917   -2.1986 H   0  0  0  0  0  0  0  0  0  0  0  0
   -2.8634   -0.7079   -2.7185 H   0  0  0  0  0  0  0  0  0  0  0  0
   -0.4961   -0.4235   -1.9803 H   0  0  0  0  0  0  0  0  0  0  0  0
    1.4193    0.5841   -2.4209 H   0  0  0  0  0  0  0  0  0  0  0  0
    5.9098    0.0355   -2.4501 H   0  0  0  0  0  0  0  0  0  0  0  0
    8.2174   -0.4063   -1.7833 H   0  0  0  0  0  0  0  0  0  0  0  0
    7.0765   -1.0256    1.5399 H   0  0  0  0  0  0  0  0  0  0  0  0
    5.3338   -1.1917    3.1969 H   0  0  0  0  0  0  0  0  0  0  0  0
    0.3688    0.9327    2.0404 H   0  0  0  0  0  0  0  0  0  0  0  0
   -1.5169    1.4172    3.4391 H   0  0  0  0  0  0  0  0  0  0  0  0
  1  2  1  0  0  0  0
  1 27  1  0  0  0  0
  1 28  1  0  0  0  0
  1 29  1  0  0  0  0
  2  3  1  0  0  0  0
  2  4  1  0  0  0  0
  3 30  1  0  0  0  0
  3 31  1  0  0  0  0
  3 32  1  0  0  0  0
  4  5  2  0  0  0  0
  4 33  1  0  0  0  0
  5  6  1  0  0  0  0
  5 34  1  0  0  0  0
  6  7  2  0  0  0  0
  7  8  1  0  0  0  0
  7 35  1  0  0  0  0
  8  9  1  0  0  0  0
  8 22  2  0  0  0  0
  9 10  2  0  0  0  0
 10 11  1  0  0  0  0
 10 36  1  0  0  0  0
 11 12  1  0  0  0  0
 12 13  2  0  0  0  0
 13 14  1  0  0  0  0
 13 37  1  0  0  0  0
 14 15  1  0  0  0  0
 14 16  2  0  0  0  0
 15 38  1  0  0  0  0
 16 17  1  0  0  0  0
 16 39  1  0  0  0  0
 17 18  1  0  0  0  0
 17 19  2  0  0  0  0
 18 40  1  0  0  0  0
 19 20  1  0  0  0  0
 19 12  1  0  0  0  0
 20 21  2  0  0  0  0
 20  9  1  0  0  0  0
 22 23  1  0  0  0  0
 22 41  1  0  0  0  0
 23 24  1  0  0  0  0
 23 25  2  0  0  0  0
 24 42  1  0  0  0  0
 25 26  1  0  0  0  0
 25  6  1  0  0  0  0
 26  2  1  0  0  0  0
M  END
>  <IDENTIFIER>
CNP0250916.0

>  <Energy>
286.163

$$$$
