
 OpenBabel09092522503D

 39 39  0  0  0  0  0  0  0  0999 V2000
    6.0927   -1.1845   -0.1719 C   0  0  0  0  0  0  0  0  0  0  0  0
    5.1909   -1.1416    1.0267 C   0  0  0  0  0  0  0  0  0  0  0  0
    4.2049   -0.2425    1.1970 C   0  0  0  0  0  0  0  0  0  0  0  0
    3.8601    0.8572    0.2123 C   0  0  0  0  0  0  0  0  0  0  0  0
    2.4282    0.7105   -0.3338 C   0  0  0  0  0  0  0  0  0  0  0  0
    1.3255    0.8901    0.6960 C   0  0  0  0  0  0  0  0  0  0  0  0
    1.6398    1.1615    1.8467 O   0  0  0  0  0  0  0  0  0  0  0  0
   -0.1388    0.7697    0.3608 C   0  0  0  0  0  0  0  0  0  0  0  0
   -1.0691    0.9543    1.4008 C   0  0  0  0  0  0  0  0  0  0  0  0
   -2.4460    0.8601    1.1796 C   0  0  0  0  0  0  0  0  0  0  0  0
   -3.4040    1.0642    2.3222 C   0  0  0  0  0  0  0  0  0  0  0  0
   -2.9270    0.5752   -0.1062 C   0  0  0  0  0  0  0  0  0  0  0  0
   -4.2616    0.4919   -0.3050 O   0  0  0  0  0  0  0  0  0  0  0  0
   -5.0880   -0.9928   -0.2401 S   0  0  0  0  0  0  0  0  0  0  0  0
   -4.1089   -2.1314    0.0881 O   0  0  0  0  0  0  0  0  0  0  0  0
   -6.0413   -0.9645    0.9634 O   0  0  0  0  0  0  0  0  0  0  0  0
   -5.9934   -1.3906   -1.6445 O   0  0  0  0  0  0  0  0  0  0  0  0
   -2.0250    0.3886   -1.1759 C   0  0  0  0  0  0  0  0  0  0  0  0
   -2.5437    0.0975   -2.5651 C   0  0  0  0  0  0  0  0  0  0  0  0
   -0.6267    0.4828   -0.9425 C   0  0  0  0  0  0  0  0  0  0  0  0
    0.2465    0.3051   -1.9593 O   0  0  0  0  0  0  0  0  0  0  0  0
    6.8143   -2.0213   -0.0654 H   0  0  0  0  0  0  0  0  0  0  0  0
    6.6623   -0.2352   -0.2555 H   0  0  0  0  0  0  0  0  0  0  0  0
    5.4947   -1.3477   -1.0932 H   0  0  0  0  0  0  0  0  0  0  0  0
    5.3461   -1.8863    1.8021 H   0  0  0  0  0  0  0  0  0  0  0  0
    3.6213   -0.3170    2.1083 H   0  0  0  0  0  0  0  0  0  0  0  0
    4.5483    0.8393   -0.6571 H   0  0  0  0  0  0  0  0  0  0  0  0
    3.9786    1.8463    0.7042 H   0  0  0  0  0  0  0  0  0  0  0  0
    2.3457   -0.2959   -0.7985 H   0  0  0  0  0  0  0  0  0  0  0  0
    2.2878    1.4875   -1.1156 H   0  0  0  0  0  0  0  0  0  0  0  0
   -0.7228    1.1746    2.4033 H   0  0  0  0  0  0  0  0  0  0  0  0
   -2.8733    1.2876    3.2720 H   0  0  0  0  0  0  0  0  0  0  0  0
   -4.0066    0.1450    2.4748 H   0  0  0  0  0  0  0  0  0  0  0  0
   -4.0825    1.9133    2.0949 H   0  0  0  0  0  0  0  0  0  0  0  0
   -5.3233   -1.7166   -2.2963 H   0  0  0  0  0  0  0  0  0  0  0  0
   -3.6494    0.0715   -2.6175 H   0  0  0  0  0  0  0  0  0  0  0  0
   -2.1653   -0.8883   -2.9083 H   0  0  0  0  0  0  0  0  0  0  0  0
   -2.2031    0.8895   -3.2646 H   0  0  0  0  0  0  0  0  0  0  0  0
   -0.0011    0.1070   -2.8717 H   0  0  0  0  0  0  0  0  0  0  0  0
  1  2  1  0  0  0  0
  1 22  1  0  0  0  0
  1 23  1  0  0  0  0
  1 24  1  0  0  0  0
  2  3  2  3  0  0  0
  2 25  1  0  0  0  0
  3  4  1  0  0  0  0
  3 26  1  0  0  0  0
  4  5  1  0  0  0  0
  4 27  1  0  0  0  0
  4 28  1  0  0  0  0
  5  6  1  0  0  0  0
  5 29  1  0  0  0  0
  5 30  1  0  0  0  0
  6  7  2  0  0  0  0
  6  8  1  0  0  0  0
  8  9  2  0  0  0  0
  9 10  1  0  0  0  0
  9 31  1  0  0  0  0
 10 11  1  0  0  0  0
 10 12  2  0  0  0  0
 11 32  1  0  0  0  0
 11 33  1  0  0  0  0
 11 34  1  0  0  0  0
 12 13  1  0  0  0  0
 12 18  1  0  0  0  0
 13 14  1  0  0  0  0
 14 15  2  0  0  0  0
 14 16  2  0  0  0  0
 14 17  1  0  0  0  0
 17 35  1  0  0  0  0
 18 19  1  0  0  0  0
 18 20  2  0  0  0  0
 19 36  1  0  0  0  0
 19 37  1  0  0  0  0
 19 38  1  0  0  0  0
 20 21  1  0  0  0  0
 20  8  1  0  0  0  0
 21 39  1  0  0  0  0
M  END
>  <IDENTIFIER>
CNP0449029.0

>  <Energy>
698.269

$$$$
