
 OpenBabel09122516403D

 90 92  0  0  0  0  0  0  0  0999 V2000
   -5.9839    0.0530   -3.2927 C   0  0  0  0  0  0  0  0  0  0  0  0
   -6.6858    0.3630   -2.1096 O   0  0  0  0  0  0  0  0  0  0  0  0
   -5.9297   -0.0047   -0.9671 C   0  0  2  0  0  0  0  0  0  0  0  0
   -6.8625   -0.6278    0.0861 C   0  0  1  0  0  0  0  0  0  0  0  0
   -7.3826   -1.8504   -0.4160 O   0  0  0  0  0  0  0  0  0  0  0  0
   -8.7520   -1.7261   -0.7285 C   0  0  0  0  0  0  0  0  0  0  0  0
   -6.0527   -0.9050    1.3776 C   0  0  2  0  0  0  0  0  0  0  0  0
   -6.9624   -1.4686    2.4709 C   0  0  0  0  0  0  0  0  0  0  0  0
   -5.4467    0.2878    1.8688 O   0  0  0  0  0  0  0  0  0  0  0  0
   -4.5214    0.8271    0.9322 C   0  0  1  0  0  0  0  0  0  0  0  0
   -3.5037   -0.1251    0.6461 O   0  0  0  0  0  0  0  0  0  0  0  0
   -2.2040    0.2764    1.0423 C   0  0  2  0  0  0  0  0  0  0  0  0
   -1.4289    0.7929   -0.1787 C   0  0  0  0  0  0  0  0  0  0  0  0
    0.0178    1.0704    0.2570 C   0  0  2  0  0  0  0  0  0  0  0  0
    0.8710    1.6271   -0.8905 C   0  0  0  0  0  0  0  0  0  0  0  0
    2.1824    2.2832   -0.3613 C   0  0  0  0  0  0  0  0  0  0  0  0
    3.4762    1.9116   -1.1412 C   0  0  2  0  0  0  0  0  0  0  0  0
    3.2888    2.1678   -2.6499 C   0  0  0  0  0  0  0  0  0  0  0  0
    3.9089    0.4453   -0.8039 C   0  0  1  0  0  0  0  0  0  0  0  0
    4.8121   -0.0507   -1.7577 O   0  0  0  0  0  0  0  0  0  0  0  0
    4.5444    0.3270    0.6265 C   0  0  0  0  0  0  0  0  0  0  0  0
    4.3077   -1.0332    1.3477 C   0  0  2  0  0  0  0  0  0  0  0  0
    4.9964   -0.9746    2.7326 C   0  0  0  0  0  0  0  0  0  0  0  0
    4.8147   -2.2664    0.5121 C   0  0  0  0  0  0  0  0  0  0  0  0
    6.3349   -2.5383    0.4670 C   0  0  0  0  0  0  0  0  0  0  0  0
    7.1551   -1.4691   -0.1953 C   0  0  0  0  0  0  0  0  0  0  0  0
    8.1404   -0.8390    0.4604 C   0  0  0  0  0  0  0  0  0  0  0  0
    8.9607    0.1935   -0.2013 C   0  0  0  0  0  0  0  0  0  0  0  0
    9.9522    0.8033    0.4547 C   0  0  0  0  0  0  0  0  0  0  0  0
   11.0135    2.1351   -0.4129 Br  0  0  0  0  0  0  0  0  0  0  0  0
    2.9266   -1.1113    1.5447 O   0  0  0  0  0  0  0  0  0  0  0  0
    2.2050   -2.0773    2.1832 C   0  0  0  0  0  0  0  0  0  0  0  0
    2.7530   -3.0671    2.6441 O   0  0  0  0  0  0  0  0  0  0  0  0
    0.6976   -2.0247    2.2204 C   0  0  0  0  0  0  0  0  0  0  0  0
    0.0310   -0.6662    1.8574 C   0  0  2  0  0  0  0  0  0  0  0  0
    0.2285    0.2479    2.9140 O   0  0  0  0  0  0  0  0  0  0  0  0
   -1.4797   -0.9495    1.5973 C   0  0  0  0  0  0  0  0  0  0  0  0
    0.6280   -0.1464    0.6816 O   0  0  0  0  0  0  0  0  0  0  0  0
   -5.2456    1.2362   -0.3670 C   0  0  2  0  0  0  0  0  0  0  0  0
   -6.2363    2.2108   -0.0697 O   0  0  0  0  0  0  0  0  0  0  0  0
   -5.7850    3.5045   -0.4022 C   0  0  0  0  0  0  0  0  0  0  0  0
   -6.5574    0.4502   -4.1548 H   0  0  0  0  0  0  0  0  0  0  0  0
   -5.9033   -1.0485   -3.4249 H   0  0  0  0  0  0  0  0  0  0  0  0
   -4.9837    0.5401   -3.3136 H   0  0  0  0  0  0  0  0  0  0  0  0
   -5.1493   -0.7742   -1.1969 H   0  0  0  0  0  0  0  0  0  0  0  0
   -7.6558    0.1168    0.3500 H   0  0  0  0  0  0  0  0  0  0  0  0
   -9.0936   -2.6770   -1.1863 H   0  0  0  0  0  0  0  0  0  0  0  0
   -8.9273   -0.9230   -1.4777 H   0  0  0  0  0  0  0  0  0  0  0  0
   -9.3540   -1.5636    0.1922 H   0  0  0  0  0  0  0  0  0  0  0  0
   -5.2764   -1.6805    1.1832 H   0  0  0  0  0  0  0  0  0  0  0  0
   -7.7644   -0.7418    2.7214 H   0  0  0  0  0  0  0  0  0  0  0  0
   -6.3674   -1.6723    3.3863 H   0  0  0  0  0  0  0  0  0  0  0  0
   -7.4285   -2.4213    2.1402 H   0  0  0  0  0  0  0  0  0  0  0  0
   -4.1207    1.7712    1.3651 H   0  0  0  0  0  0  0  0  0  0  0  0
   -2.1980    1.0435    1.8525 H   0  0  0  0  0  0  0  0  0  0  0  0
   -1.9094    1.7219   -0.5550 H   0  0  0  0  0  0  0  0  0  0  0  0
   -1.4363    0.0325   -0.9916 H   0  0  0  0  0  0  0  0  0  0  0  0
   -0.0086    1.8438    1.0598 H   0  0  0  0  0  0  0  0  0  0  0  0
    0.3244    2.4036   -1.4701 H   0  0  0  0  0  0  0  0  0  0  0  0
    1.0530    0.7785   -1.5826 H   0  0  0  0  0  0  0  0  0  0  0  0
    2.3231    2.0475    0.7100 H   0  0  0  0  0  0  0  0  0  0  0  0
    2.0302    3.3848   -0.3793 H   0  0  0  0  0  0  0  0  0  0  0  0
    4.3017    2.5825   -0.8123 H   0  0  0  0  0  0  0  0  0  0  0  0
    2.5245    1.5015   -3.0962 H   0  0  0  0  0  0  0  0  0  0  0  0
    4.2415    2.0032   -3.1943 H   0  0  0  0  0  0  0  0  0  0  0  0
    2.9877    3.2241   -2.8186 H   0  0  0  0  0  0  0  0  0  0  0  0
    2.9925   -0.1755   -0.8709 H   0  0  0  0  0  0  0  0  0  0  0  0
    5.5778    0.5827   -1.7975 H   0  0  0  0  0  0  0  0  0  0  0  0
    4.0936    1.0780    1.3037 H   0  0  0  0  0  0  0  0  0  0  0  0
    5.6162    0.6121    0.5768 H   0  0  0  0  0  0  0  0  0  0  0  0
    6.0857   -0.7930    2.6297 H   0  0  0  0  0  0  0  0  0  0  0  0
    4.8578   -1.9182    3.2972 H   0  0  0  0  0  0  0  0  0  0  0  0
    4.5759   -0.1432    3.3382 H   0  0  0  0  0  0  0  0  0  0  0  0
    4.3984   -2.2306   -0.5154 H   0  0  0  0  0  0  0  0  0  0  0  0
    4.4075   -3.1904    0.9635 H   0  0  0  0  0  0  0  0  0  0  0  0
    6.4972   -3.4759   -0.1071 H   0  0  0  0  0  0  0  0  0  0  0  0
    6.6969   -2.7324    1.4995 H   0  0  0  0  0  0  0  0  0  0  0  0
    6.9564   -1.2305   -1.2331 H   0  0  0  0  0  0  0  0  0  0  0  0
    8.3489   -1.0929    1.4969 H   0  0  0  0  0  0  0  0  0  0  0  0
    8.7614    0.4606   -1.2354 H   0  0  0  0  0  0  0  0  0  0  0  0
   10.1746    0.5530    1.4882 H   0  0  0  0  0  0  0  0  0  0  0  0
    0.3445   -2.3157    3.2346 H   0  0  0  0  0  0  0  0  0  0  0  0
    0.3671   -2.8206    1.5182 H   0  0  0  0  0  0  0  0  0  0  0  0
   -0.2884   -0.0738    3.6977 H   0  0  0  0  0  0  0  0  0  0  0  0
   -1.9862   -1.3156    2.5175 H   0  0  0  0  0  0  0  0  0  0  0  0
   -1.5567   -1.7489    0.8257 H   0  0  0  0  0  0  0  0  0  0  0  0
   -4.4951    1.5998   -1.1110 H   0  0  0  0  0  0  0  0  0  0  0  0
   -6.5480    4.2369   -0.0671 H   0  0  0  0  0  0  0  0  0  0  0  0
   -5.6796    3.6141   -1.5037 H   0  0  0  0  0  0  0  0  0  0  0  0
   -4.8387    3.7549    0.1260 H   0  0  0  0  0  0  0  0  0  0  0  0
  1  2  1  0  0  0  0
  1 42  1  0  0  0  0
  1 43  1  0  0  0  0
  1 44  1  0  0  0  0
  3  2  1  0  0  0  0
  3  4  1  0  0  0  0
  3 45  1  6  0  0  0
  4  5  1  0  0  0  0
  4  7  1  0  0  0  0
  4 46  1  1  0  0  0
  5  6  1  0  0  0  0
  6 47  1  0  0  0  0
  6 48  1  0  0  0  0
  6 49  1  0  0  0  0
  7  8  1  0  0  0  0
  7  9  1  0  0  0  0
  7 50  1  6  0  0  0
  8 51  1  0  0  0  0
  8 52  1  0  0  0  0
  8 53  1  0  0  0  0
  9 10  1  0  0  0  0
 10 11  1  0  0  0  0
 10 39  1  0  0  0  0
 10 54  1  1  0  0  0
 12 11  1  0  0  0  0
 12 13  1  0  0  0  0
 12 55  1  1  0  0  0
 13 56  1  0  0  0  0
 13 57  1  0  0  0  0
 14 13  1  0  0  0  0
 14 15  1  0  0  0  0
 14 58  1  1  0  0  0
 15 16  1  0  0  0  0
 15 59  1  0  0  0  0
 15 60  1  0  0  0  0
 16 17  1  0  0  0  0
 16 61  1  0  0  0  0
 16 62  1  0  0  0  0
 17 18  1  0  0  0  0
 17 19  1  0  0  0  0
 17 63  1  1  0  0  0
 18 64  1  0  0  0  0
 18 65  1  0  0  0  0
 18 66  1  0  0  0  0
 19 20  1  0  0  0  0
 19 21  1  0  0  0  0
 19 67  1  6  0  0  0
 20 68  1  0  0  0  0
 21 22  1  0  0  0  0
 21 69  1  0  0  0  0
 21 70  1  0  0  0  0
 22 23  1  1  0  0  0
 22 24  1  0  0  0  0
 22 31  1  0  0  0  0
 23 71  1  0  0  0  0
 23 72  1  0  0  0  0
 23 73  1  0  0  0  0
 24 25  1  0  0  0  0
 24 74  1  0  0  0  0
 24 75  1  0  0  0  0
 25 26  1  0  0  0  0
 25 76  1  0  0  0  0
 25 77  1  0  0  0  0
 26 27  2  0  0  0  0
 26 78  1  0  0  0  0
 27 28  1  0  0  0  0
 27 79  1  0  0  0  0
 28 29  2  0  0  0  0
 28 80  1  0  0  0  0
 29 30  1  0  0  0  0
 29 81  1  0  0  0  0
 31 32  1  0  0  0  0
 32 33  2  0  0  0  0
 32 34  1  0  0  0  0
 34 35  1  0  0  0  0
 34 82  1  0  0  0  0
 34 83  1  0  0  0  0
 35 36  1  1  0  0  0
 35 37  1  0  0  0  0
 35 38  1  0  0  0  0
 36 84  1  0  0  0  0
 37 12  1  0  0  0  0
 37 85  1  0  0  0  0
 37 86  1  0  0  0  0
 38 14  1  0  0  0  0
 39 40  1  0  0  0  0
 39  3  1  0  0  0  0
 39 87  1  6  0  0  0
 40 41  1  0  0  0  0
 41 88  1  0  0  0  0
 41 89  1  0  0  0  0
 41 90  1  0  0  0  0
M  END
>  <IDENTIFIER>
CNP0351911.3

>  <Energy>
790.134

$$$$
