
 OpenBabel09082504173D

 84 87  0  0  0  0  0  0  0  0999 V2000
   10.1881    1.3917    0.4617 C   0  0  0  0  0  0  0  0  0  0  0  0
    9.4831    0.5997   -0.4215 O   0  0  0  0  0  0  0  0  0  0  0  0
    8.2551    0.8838   -0.9272 C   0  0  0  0  0  0  0  0  0  0  0  0
    7.5211    2.0222   -0.5388 C   0  0  0  0  0  0  0  0  0  0  0  0
    6.2664    2.2748   -1.0951 C   0  0  0  0  0  0  0  0  0  0  0  0
    5.7267    1.4055   -2.0535 C   0  0  0  0  0  0  0  0  0  0  0  0
    4.3907    1.7212   -2.6642 C   0  0  0  0  0  0  0  0  0  0  0  0
    3.3350    1.6795   -1.6682 N   0  0  0  0  0  0  0  0  0  0  0  0
    2.8836    0.5078   -1.1373 C   0  0  0  0  0  0  0  0  0  0  0  0
    3.3833   -0.5545   -1.4838 O   0  0  0  0  0  0  0  0  0  0  0  0
    1.6901    0.5219   -0.2022 C   0  0  0  0  0  0  0  0  0  0  0  0
    1.0651   -0.8890   -0.0528 C   0  0  0  0  0  0  0  0  0  0  0  0
   -0.2747   -1.0641    0.7740 C   0  0  2  0  0  0  0  0  0  0  0  0
   -0.0456   -0.4820    2.2094 C   0  0  0  0  0  0  0  0  0  0  0  0
   -1.1120   -0.9643    3.2073 C   0  0  0  0  0  0  0  0  0  0  0  0
   -1.0340   -2.5005    3.4627 C   0  0  2  0  0  0  0  0  0  0  0  0
   -2.4005   -3.0177    3.9693 C   0  0  0  0  0  0  0  0  0  0  0  0
   -0.0887   -2.7557    4.4825 O   0  0  0  0  0  0  0  0  0  0  0  0
   -0.5093   -3.2731    2.1998 C   0  0  0  0  0  0  0  0  0  0  0  0
   -0.6279   -2.6048    0.7999 C   0  0  1  0  0  0  0  0  0  0  0  0
   -1.8828   -2.8358   -0.1196 C   0  0  0  0  0  0  0  0  0  0  0  0
   -1.7184   -4.0796   -1.0250 C   0  0  0  0  0  0  0  0  0  0  0  0
   -3.2129   -3.0088    0.6446 C   0  0  0  0  0  0  0  0  0  0  0  0
   -1.9230   -1.5461   -0.9634 C   0  0  0  0  0  0  0  0  0  0  0  0
   -1.5503   -0.4719    0.0652 C   0  0  2  0  0  0  0  0  0  0  0  0
   -1.3694    0.8801   -0.4904 N   0  0  0  0  0  0  0  0  0  0  0  0
   -2.5200    1.8140   -0.5612 C   0  0  0  0  0  0  0  0  0  0  0  0
   -3.3930    1.8759    0.7174 C   0  0  0  0  0  0  0  0  0  0  0  0
   -4.4643    2.9636    0.5633 C   0  0  0  0  0  0  0  0  0  0  0  0
   -5.2513    2.7127   -0.6479 N   0  0  0  0  0  0  0  0  0  0  0  0
   -6.6220    2.5382   -0.5774 C   0  0  0  0  0  0  0  0  0  0  0  0
   -7.5297    2.2929   -1.7632 C   0  0  0  0  0  0  0  0  0  0  0  0
   -7.1775    2.5857    0.5113 O   0  0  0  0  0  0  0  0  0  0  0  0
   -4.4768    2.6633   -1.8898 C   0  0  0  0  0  0  0  0  0  0  0  0
   -3.4140    1.5600   -1.7887 C   0  0  0  0  0  0  0  0  0  0  0  0
    6.4537    0.2705   -2.4423 C   0  0  0  0  0  0  0  0  0  0  0  0
    7.7061    0.0108   -1.8765 C   0  0  0  0  0  0  0  0  0  0  0  0
   11.1560    0.9034    0.6949 H   0  0  0  0  0  0  0  0  0  0  0  0
    9.6183    1.5197    1.4065 H   0  0  0  0  0  0  0  0  0  0  0  0
   10.3932    2.3833    0.0036 H   0  0  0  0  0  0  0  0  0  0  0  0
    7.9113    2.7208    0.1886 H   0  0  0  0  0  0  0  0  0  0  0  0
    5.7190    3.1587   -0.7914 H   0  0  0  0  0  0  0  0  0  0  0  0
    4.1356    1.0247   -3.4943 H   0  0  0  0  0  0  0  0  0  0  0  0
    4.4534    2.7420   -3.1018 H   0  0  0  0  0  0  0  0  0  0  0  0
    2.8603    2.5599   -1.4221 H   0  0  0  0  0  0  0  0  0  0  0  0
    0.9792    1.2146   -0.6621 H   0  0  0  0  0  0  0  0  0  0  0  0
    1.9808    0.9565    0.7766 H   0  0  0  0  0  0  0  0  0  0  0  0
    1.8466   -1.5167    0.4331 H   0  0  0  0  0  0  0  0  0  0  0  0
    0.9126   -1.2983   -1.0722 H   0  0  0  0  0  0  0  0  0  0  0  0
   -0.0412    0.6279    2.1541 H   0  0  0  0  0  0  0  0  0  0  0  0
    0.9406   -0.8052    2.6109 H   0  0  0  0  0  0  0  0  0  0  0  0
   -2.1088   -0.6902    2.8242 H   0  0  0  0  0  0  0  0  0  0  0  0
   -1.0255   -0.4211    4.1734 H   0  0  0  0  0  0  0  0  0  0  0  0
   -2.6777   -2.5031    4.9146 H   0  0  0  0  0  0  0  0  0  0  0  0
   -2.3507   -4.1084    4.1705 H   0  0  0  0  0  0  0  0  0  0  0  0
   -3.2265   -2.8289    3.2730 H   0  0  0  0  0  0  0  0  0  0  0  0
   -0.3822   -2.2991    5.3149 H   0  0  0  0  0  0  0  0  0  0  0  0
   -0.7596   -4.3557    2.2074 H   0  0  0  0  0  0  0  0  0  0  0  0
    0.5980   -3.2561    2.3375 H   0  0  0  0  0  0  0  0  0  0  0  0
    0.1792   -3.1170    0.2259 H   0  0  0  0  0  0  0  0  0  0  0  0
   -1.6409   -5.0017   -0.4100 H   0  0  0  0  0  0  0  0  0  0  0  0
   -0.7990   -4.0001   -1.6457 H   0  0  0  0  0  0  0  0  0  0  0  0
   -2.5805   -4.1805   -1.7188 H   0  0  0  0  0  0  0  0  0  0  0  0
   -3.1767   -3.9272    1.2677 H   0  0  0  0  0  0  0  0  0  0  0  0
   -4.0496   -3.1333   -0.0769 H   0  0  0  0  0  0  0  0  0  0  0  0
   -3.4794   -2.1457    1.2735 H   0  0  0  0  0  0  0  0  0  0  0  0
   -2.8931   -1.3992   -1.4785 H   0  0  0  0  0  0  0  0  0  0  0  0
   -1.1371   -1.5733   -1.7470 H   0  0  0  0  0  0  0  0  0  0  0  0
   -2.3548   -0.4477    0.7911 H   0  0  0  0  0  0  0  0  0  0  0  0
   -0.9253    0.8211   -1.4361 H   0  0  0  0  0  0  0  0  0  0  0  0
   -2.0686    2.8237   -0.6938 H   0  0  0  0  0  0  0  0  0  0  0  0
   -2.7623    2.0943    1.6067 H   0  0  0  0  0  0  0  0  0  0  0  0
   -3.9364    0.9212    0.8810 H   0  0  0  0  0  0  0  0  0  0  0  0
   -3.9706    3.9558    0.4765 H   0  0  0  0  0  0  0  0  0  0  0  0
   -5.0824    2.9862    1.4865 H   0  0  0  0  0  0  0  0  0  0  0  0
   -7.0655    2.2555   -2.7583 H   0  0  0  0  0  0  0  0  0  0  0  0
   -8.2901    3.1014   -1.8020 H   0  0  0  0  0  0  0  0  0  0  0  0
   -8.0556    1.3258   -1.6197 H   0  0  0  0  0  0  0  0  0  0  0  0
   -3.9743    3.6446   -2.0379 H   0  0  0  0  0  0  0  0  0  0  0  0
   -5.0638    2.4760   -2.7966 H   0  0  0  0  0  0  0  0  0  0  0  0
   -2.7988    1.5666   -2.7147 H   0  0  0  0  0  0  0  0  0  0  0  0
   -3.9210    0.5780   -1.7003 H   0  0  0  0  0  0  0  0  0  0  0  0
    6.0531   -0.4131   -3.1807 H   0  0  0  0  0  0  0  0  0  0  0  0
    8.2576   -0.8689   -2.1839 H   0  0  0  0  0  0  0  0  0  0  0  0
  1  2  1  0  0  0  0
  1 38  1  0  0  0  0
  1 39  1  0  0  0  0
  1 40  1  0  0  0  0
  2  3  1  0  0  0  0
  3  4  2  0  0  0  0
  4  5  1  0  0  0  0
  4 41  1  0  0  0  0
  5  6  2  0  0  0  0
  5 42  1  0  0  0  0
  6  7  1  0  0  0  0
  6 36  1  0  0  0  0
  7  8  1  0  0  0  0
  7 43  1  0  0  0  0
  7 44  1  0  0  0  0
  8  9  1  0  0  0  0
  8 45  1  0  0  0  0
  9 10  2  0  0  0  0
  9 11  1  0  0  0  0
 11 12  1  0  0  0  0
 11 46  1  0  0  0  0
 11 47  1  0  0  0  0
 12 48  1  0  0  0  0
 12 49  1  0  0  0  0
 13 12  1  6  0  0  0
 13 14  1  0  0  0  0
 14 15  1  0  0  0  0
 14 50  1  0  0  0  0
 14 51  1  0  0  0  0
 15 16  1  0  0  0  0
 15 52  1  0  0  0  0
 15 53  1  0  0  0  0
 16 17  1  0  0  0  0
 16 18  1  1  0  0  0
 16 19  1  0  0  0  0
 17 54  1  0  0  0  0
 17 55  1  0  0  0  0
 17 56  1  0  0  0  0
 18 57  1  0  0  0  0
 19 58  1  0  0  0  0
 19 59  1  0  0  0  0
 20 19  1  0  0  0  0
 20 21  1  0  0  0  0
 20 13  1  0  0  0  0
 20 60  1  6  0  0  0
 21 22  1  0  0  0  0
 21 23  1  0  0  0  0
 21 24  1  0  0  0  0
 22 61  1  0  0  0  0
 22 62  1  0  0  0  0
 22 63  1  0  0  0  0
 23 64  1  0  0  0  0
 23 65  1  0  0  0  0
 23 66  1  0  0  0  0
 24 25  1  0  0  0  0
 24 67  1  0  0  0  0
 24 68  1  0  0  0  0
 25 26  1  0  0  0  0
 25 13  1  0  0  0  0
 25 69  1  1  0  0  0
 26 27  1  0  0  0  0
 26 70  1  0  0  0  0
 27 28  1  0  0  0  0
 27 71  1  0  0  0  0
 28 29  1  0  0  0  0
 28 72  1  0  0  0  0
 28 73  1  0  0  0  0
 29 30  1  0  0  0  0
 29 74  1  0  0  0  0
 29 75  1  0  0  0  0
 30 31  1  0  0  0  0
 30 34  1  0  0  0  0
 31 32  1  0  0  0  0
 31 33  2  0  0  0  0
 32 76  1  0  0  0  0
 32 77  1  0  0  0  0
 32 78  1  0  0  0  0
 34 35  1  0  0  0  0
 34 79  1  0  0  0  0
 34 80  1  0  0  0  0
 35 27  1  0  0  0  0
 35 81  1  0  0  0  0
 35 82  1  0  0  0  0
 36 37  2  0  0  0  0
 36 83  1  0  0  0  0
 37  3  1  0  0  0  0
 37 84  1  0  0  0  0
M  END
>  <IDENTIFIER>
CNP0437717.1

>  <Energy>
858.709

$$$$
