
 OpenBabel09122506213D

164172  0  0  0  0  0  0  0  0999 V2000
    8.5385   -0.3626   -3.5414 C   0  0  0  0  0  0  0  0  0  0  0  0
    9.0223   -1.3278   -2.4592 C   0  0  2  0  0  0  0  0  0  0  0  0
    8.5912   -0.9123   -1.1594 O   0  0  0  0  0  0  0  0  0  0  0  0
    9.5742   -0.2185   -0.4114 C   0  0  1  0  0  0  0  0  0  0  0  0
    9.0160    0.0754    0.8547 O   0  0  0  0  0  0  0  0  0  0  0  0
    8.9499    1.4488    1.2028 C   0  0  1  0  0  0  0  0  0  0  0  0
    7.5353    1.6608    1.8142 C   0  0  2  0  0  0  0  0  0  0  0  0
    6.6860    2.1841    0.8028 O   0  0  0  0  0  0  0  0  0  0  0  0
    5.4182    1.5457    0.7515 C   0  0  1  0  0  0  0  0  0  0  0  0
    4.5061    2.0788    1.8671 C   0  0  0  0  0  0  0  0  0  0  0  0
    3.1623    1.3331    1.8508 C   0  0  0  0  0  0  0  0  0  0  0  0
    2.3775    1.4793    0.5055 C   0  0  2  0  0  0  0  0  0  0  0  0
    1.8700    2.9589    0.4417 C   0  0  0  0  0  0  0  0  0  0  0  0
    1.1856    0.4082    0.4896 C   0  0  1  0  0  0  0  0  0  0  0  0
    0.1933    0.5895    1.6577 C   0  0  0  0  0  0  0  0  0  0  0  0
   -0.7694   -0.5411    1.7460 C   0  0  0  0  0  0  0  0  0  0  0  0
   -1.0479   -1.3909    0.7363 C   0  0  0  0  0  0  0  0  0  0  0  0
   -2.0123   -2.5443    1.0483 C   0  0  2  0  0  0  0  0  0  0  0  0
   -1.3160   -3.8955    1.3559 C   0  0  0  0  0  0  0  0  0  0  0  0
   -2.3161   -5.0740    1.6296 C   0  0  0  0  0  0  0  0  0  0  0  0
   -2.1188   -5.6242    3.0564 C   0  0  0  0  0  0  0  0  0  0  0  0
   -1.9941   -6.2310    0.6427 C   0  0  0  0  0  0  0  0  0  0  0  0
   -3.8064   -4.6216    1.4775 C   0  0  0  0  0  0  0  0  0  0  0  0
   -4.0229   -3.8957    0.1446 C   0  0  0  0  0  0  0  0  0  0  0  0
   -3.2152   -2.5531    0.0393 C   0  0  1  0  0  0  0  0  0  0  0  0
   -4.1563   -1.3956    0.4248 C   0  0  0  0  0  0  0  0  0  0  0  0
   -3.8517   -0.6063    1.3119 O   0  0  0  0  0  0  0  0  0  0  0  0
   -5.3874   -1.3098   -0.1414 O   0  0  0  0  0  0  0  0  0  0  0  0
   -6.4891   -0.7921    0.5236 C   0  0  1  0  0  0  0  0  0  0  0  0
   -6.9720    0.3681   -0.1297 O   0  0  0  0  0  0  0  0  0  0  0  0
   -7.8606    1.0711    0.7486 C   0  0  1  0  0  0  0  0  0  0  0  0
   -8.3959    2.3458    0.0539 C   0  0  0  0  0  0  0  0  0  0  0  0
   -8.8566    2.1380   -1.2700 O   0  0  0  0  0  0  0  0  0  0  0  0
  -10.2509    1.9202   -1.3467 C   0  0  1  0  0  0  0  0  0  0  0  0
  -10.9742    3.0305   -0.7968 O   0  0  0  0  0  0  0  0  0  0  0  0
  -12.3595    3.1155   -1.1699 C   0  0  1  0  0  0  0  0  0  0  0  0
  -12.5882    4.3479   -2.0594 C   0  0  0  0  0  0  0  0  0  0  0  0
  -12.1899    5.5111   -1.3855 O   0  0  0  0  0  0  0  0  0  0  0  0
  -12.9392    1.8021   -1.7750 C   0  0  2  0  0  0  0  0  0  0  0  0
  -12.9057    0.8190   -0.7659 O   0  0  0  0  0  0  0  0  0  0  0  0
  -12.0886    1.2934   -2.9705 C   0  0  1  0  0  0  0  0  0  0  0  0
  -12.5953    1.6645   -4.2285 O   0  0  0  0  0  0  0  0  0  0  0  0
  -10.6126    1.7263   -2.8326 C   0  0  2  0  0  0  0  0  0  0  0  0
   -9.7550    0.8360   -3.5018 O   0  0  0  0  0  0  0  0  0  0  0  0
   -8.9711    0.1413    1.3871 C   0  0  2  0  0  0  0  0  0  0  0  0
   -8.7900    0.0004    2.7787 O   0  0  0  0  0  0  0  0  0  0  0  0
   -9.0053   -1.2515    0.7082 C   0  0  1  0  0  0  0  0  0  0  0  0
   -9.5687   -1.1398   -0.5750 O   0  0  0  0  0  0  0  0  0  0  0  0
   -7.5864   -1.8818    0.6005 C   0  0  2  0  0  0  0  0  0  0  0  0
   -7.3061   -2.7908    1.6369 O   0  0  0  0  0  0  0  0  0  0  0  0
   -2.7272   -2.3917   -1.4335 C   0  0  0  0  0  0  0  0  0  0  0  0
   -1.7826   -1.1788   -1.6284 C   0  0  0  0  0  0  0  0  0  0  0  0
   -0.5021   -1.1946   -0.7087 C   0  0  2  0  0  0  0  0  0  0  0  0
    0.3477   -2.4388   -1.1111 C   0  0  0  0  0  0  0  0  0  0  0  0
    0.3988    0.1779   -0.8607 C   0  0  1  0  0  0  0  0  0  0  0  0
   -0.5284    1.3863   -1.2023 C   0  0  0  0  0  0  0  0  0  0  0  0
    1.4591    0.0613   -2.0197 C   0  0  0  0  0  0  0  0  0  0  0  0
    2.5748    1.1232   -2.0245 C   0  0  0  0  0  0  0  0  0  0  0  0
    3.3473    1.0715   -0.6708 C   0  0  1  0  0  0  0  0  0  0  0  0
    4.7902    1.7294   -0.6735 C   0  0  0  0  0  0  0  0  0  0  0  0
    5.7102    0.9584   -1.6615 C   0  0  0  0  0  0  0  0  0  0  0  0
    4.8075    3.2087   -1.1335 C   0  0  0  0  0  0  0  0  0  0  0  0
    7.5687    2.5556    2.9095 O   0  0  0  0  0  0  0  0  0  0  0  0
    8.2656    1.9926    4.0313 C   0  0  2  0  0  0  0  0  0  0  0  0
    8.5530    3.1370    5.0174 C   0  0  0  0  0  0  0  0  0  0  0  0
    7.3535    3.7053    5.4729 O   0  0  0  0  0  0  0  0  0  0  0  0
    9.6110    1.2664    3.6261 C   0  0  1  0  0  0  0  0  0  0  0  0
    9.4971   -0.1412    3.5765 O   0  0  0  0  0  0  0  0  0  0  0  0
   10.0563    1.7798    2.2504 C   0  0  2  0  0  0  0  0  0  0  0  0
   10.3338    3.1631    2.3287 O   0  0  0  0  0  0  0  0  0  0  0  0
   10.8361   -1.0961   -0.1585 C   0  0  2  0  0  0  0  0  0  0  0  0
   11.9615   -0.2632   -0.0056 O   0  0  0  0  0  0  0  0  0  0  0  0
   11.0384   -2.1614   -1.2611 C   0  0  2  0  0  0  0  0  0  0  0  0
   12.3619   -2.6362   -1.2940 O   0  0  0  0  0  0  0  0  0  0  0  0
   10.5530   -1.5936   -2.5954 C   0  0  1  0  0  0  0  0  0  0  0  0
   10.8149   -2.4634   -3.6706 O   0  0  0  0  0  0  0  0  0  0  0  0
    7.4371   -0.2550   -3.4923 H   0  0  0  0  0  0  0  0  0  0  0  0
    8.8042   -0.7490   -4.5482 H   0  0  0  0  0  0  0  0  0  0  0  0
    9.0064    0.6357   -3.4045 H   0  0  0  0  0  0  0  0  0  0  0  0
    8.5160   -2.3052   -2.6162 H   0  0  0  0  0  0  0  0  0  0  0  0
    9.8510    0.6812   -1.0104 H   0  0  0  0  0  0  0  0  0  0  0  0
    9.1064    2.1356    0.3387 H   0  0  0  0  0  0  0  0  0  0  0  0
    7.1683    0.6832    2.2118 H   0  0  0  0  0  0  0  0  0  0  0  0
    5.5185    0.4428    0.9013 H   0  0  0  0  0  0  0  0  0  0  0  0
    4.3873    3.1750    1.7815 H   0  0  0  0  0  0  0  0  0  0  0  0
    4.9791    1.8914    2.8545 H   0  0  0  0  0  0  0  0  0  0  0  0
    2.5623    1.7066    2.7069 H   0  0  0  0  0  0  0  0  0  0  0  0
    3.3858    0.2588    2.0354 H   0  0  0  0  0  0  0  0  0  0  0  0
    1.0733    3.1422    1.1864 H   0  0  0  0  0  0  0  0  0  0  0  0
    1.5312    3.2972   -0.5406 H   0  0  0  0  0  0  0  0  0  0  0  0
    2.6268    3.7001    0.7113 H   0  0  0  0  0  0  0  0  0  0  0  0
    1.6954   -0.5640    0.6780 H   0  0  0  0  0  0  0  0  0  0  0  0
   -0.3727    1.5418    1.6401 H   0  0  0  0  0  0  0  0  0  0  0  0
    0.7561    0.5562    2.6078 H   0  0  0  0  0  0  0  0  0  0  0  0
   -1.2398   -0.6767    2.7164 H   0  0  0  0  0  0  0  0  0  0  0  0
   -2.4631   -2.3778    2.0547 H   0  0  0  0  0  0  0  0  0  0  0  0
   -0.6641   -3.7249    2.2438 H   0  0  0  0  0  0  0  0  0  0  0  0
   -0.5864   -4.2237    0.6165 H   0  0  0  0  0  0  0  0  0  0  0  0
   -1.0725   -5.9735    3.1994 H   0  0  0  0  0  0  0  0  0  0  0  0
   -2.7994   -6.4832    3.2428 H   0  0  0  0  0  0  0  0  0  0  0  0
   -2.3291   -4.8371    3.8112 H   0  0  0  0  0  0  0  0  0  0  0  0
   -0.9582   -6.6010    0.8056 H   0  0  0  0  0  0  0  0  0  0  0  0
   -2.0418   -5.9070   -0.4167 H   0  0  0  0  0  0  0  0  0  0  0  0
   -2.6921   -7.0827    0.7835 H   0  0  0  0  0  0  0  0  0  0  0  0
   -4.1085   -3.9362    2.2996 H   0  0  0  0  0  0  0  0  0  0  0  0
   -4.4688   -5.5129    1.5363 H   0  0  0  0  0  0  0  0  0  0  0  0
   -5.1034   -3.7373   -0.0561 H   0  0  0  0  0  0  0  0  0  0  0  0
   -3.7173   -4.6008   -0.6500 H   0  0  0  0  0  0  0  0  0  0  0  0
   -6.1990   -0.5144    1.5635 H   0  0  0  0  0  0  0  0  0  0  0  0
   -7.2765    1.5022    1.5959 H   0  0  0  0  0  0  0  0  0  0  0  0
   -7.5328    3.0393   -0.0505 H   0  0  0  0  0  0  0  0  0  0  0  0
   -9.1090    2.8929    0.7108 H   0  0  0  0  0  0  0  0  0  0  0  0
  -10.4960    1.0020   -0.7995 H   0  0  0  0  0  0  0  0  0  0  0  0
  -12.9454    3.2998   -0.2423 H   0  0  0  0  0  0  0  0  0  0  0  0
  -13.6631    4.4234   -2.3448 H   0  0  0  0  0  0  0  0  0  0  0  0
  -12.0100    4.2922   -2.9987 H   0  0  0  0  0  0  0  0  0  0  0  0
  -12.9338    5.7545   -0.7743 H   0  0  0  0  0  0  0  0  0  0  0  0
  -14.0010    1.9040   -2.0999 H   0  0  0  0  0  0  0  0  0  0  0  0
  -13.6703    0.9932   -0.1569 H   0  0  0  0  0  0  0  0  0  0  0  0
  -12.1685    0.1838   -2.9260 H   0  0  0  0  0  0  0  0  0  0  0  0
  -12.8164    2.6277   -4.2053 H   0  0  0  0  0  0  0  0  0  0  0  0
  -10.4638    2.7238   -3.2956 H   0  0  0  0  0  0  0  0  0  0  0  0
   -9.8750   -0.0594   -3.0962 H   0  0  0  0  0  0  0  0  0  0  0  0
   -9.9673    0.6198    1.2977 H   0  0  0  0  0  0  0  0  0  0  0  0
   -7.8397   -0.1867    2.9754 H   0  0  0  0  0  0  0  0  0  0  0  0
   -9.6821   -1.9432    1.2564 H   0  0  0  0  0  0  0  0  0  0  0  0
   -8.8970   -0.7389   -1.1815 H   0  0  0  0  0  0  0  0  0  0  0  0
   -7.5961   -2.4824   -0.3368 H   0  0  0  0  0  0  0  0  0  0  0  0
   -7.4567   -2.3330    2.5013 H   0  0  0  0  0  0  0  0  0  0  0  0
   -3.6057   -2.2887   -2.1085 H   0  0  0  0  0  0  0  0  0  0  0  0
   -2.2046   -3.3099   -1.7611 H   0  0  0  0  0  0  0  0  0  0  0  0
   -2.4151   -0.2993   -1.3924 H   0  0  0  0  0  0  0  0  0  0  0  0
   -1.4839   -1.1144   -2.6976 H   0  0  0  0  0  0  0  0  0  0  0  0
    0.6584   -2.3885   -2.1733 H   0  0  0  0  0  0  0  0  0  0  0  0
   -0.2006   -3.3793   -1.1369 H   0  0  0  0  0  0  0  0  0  0  0  0
    1.2321   -2.5594   -0.4515 H   0  0  0  0  0  0  0  0  0  0  0  0
   -1.0279    1.2296   -2.1806 H   0  0  0  0  0  0  0  0  0  0  0  0
   -0.0122    2.3284   -1.3683 H   0  0  0  0  0  0  0  0  0  0  0  0
   -1.3116    1.5431   -0.4343 H   0  0  0  0  0  0  0  0  0  0  0  0
    0.9540    0.0131   -3.0091 H   0  0  0  0  0  0  0  0  0  0  0  0
    2.0551   -0.8630   -1.9062 H   0  0  0  0  0  0  0  0  0  0  0  0
    2.1899    2.1331   -2.2558 H   0  0  0  0  0  0  0  0  0  0  0  0
    3.2415    0.8438   -2.8628 H   0  0  0  0  0  0  0  0  0  0  0  0
    3.5888   -0.0025   -0.4888 H   0  0  0  0  0  0  0  0  0  0  0  0
    5.3808    1.0556   -2.7137 H   0  0  0  0  0  0  0  0  0  0  0  0
    5.7511   -0.1237   -1.4079 H   0  0  0  0  0  0  0  0  0  0  0  0
    6.7504    1.3485   -1.6186 H   0  0  0  0  0  0  0  0  0  0  0  0
    4.3707    3.3040   -2.1498 H   0  0  0  0  0  0  0  0  0  0  0  0
    5.8533    3.5811   -1.1890 H   0  0  0  0  0  0  0  0  0  0  0  0
    4.2882    3.9020   -0.4668 H   0  0  0  0  0  0  0  0  0  0  0  0
    7.6095    1.2961    4.5996 H   0  0  0  0  0  0  0  0  0  0  0  0
    9.2062    3.9166    4.5679 H   0  0  0  0  0  0  0  0  0  0  0  0
    9.0905    2.7357    5.9042 H   0  0  0  0  0  0  0  0  0  0  0  0
    7.0495    4.3363    4.7706 H   0  0  0  0  0  0  0  0  0  0  0  0
   10.3917    1.4687    4.3916 H   0  0  0  0  0  0  0  0  0  0  0  0
    8.5470   -0.4145    3.5554 H   0  0  0  0  0  0  0  0  0  0  0  0
   11.0028    1.2982    1.9277 H   0  0  0  0  0  0  0  0  0  0  0  0
    9.5485    3.6888    2.0292 H   0  0  0  0  0  0  0  0  0  0  0  0
   10.7323   -1.6791    0.7818 H   0  0  0  0  0  0  0  0  0  0  0  0
   12.1214    0.2073   -0.8668 H   0  0  0  0  0  0  0  0  0  0  0  0
   10.3769   -3.0312   -1.0404 H   0  0  0  0  0  0  0  0  0  0  0  0
   12.9214   -1.9470   -1.7368 H   0  0  0  0  0  0  0  0  0  0  0  0
   11.1057   -0.6458   -2.7775 H   0  0  0  0  0  0  0  0  0  0  0  0
   10.4331   -3.3489   -3.4450 H   0  0  0  0  0  0  0  0  0  0  0  0
  1 77  1  0  0  0  0
  1 78  1  0  0  0  0
  1 79  1  0  0  0  0
  2  1  1  0  0  0  0
  2  3  1  0  0  0  0
  2 80  1  6  0  0  0
  3  4  1  0  0  0  0
  4  5  1  0  0  0  0
  4 71  1  0  0  0  0
  4 81  1  6  0  0  0
  6  5  1  0  0  0  0
  6  7  1  0  0  0  0
  6 82  1  6  0  0  0
  7  8  1  0  0  0  0
  7 63  1  0  0  0  0
  7 83  1  1  0  0  0
  9  8  1  0  0  0  0
  9 10  1  0  0  0  0
  9 84  1  1  0  0  0
 10 11  1  0  0  0  0
 10 85  1  0  0  0  0
 10 86  1  0  0  0  0
 11 12  1  0  0  0  0
 11 87  1  0  0  0  0
 11 88  1  0  0  0  0
 12 13  1  6  0  0  0
 12 14  1  0  0  0  0
 13 89  1  0  0  0  0
 13 90  1  0  0  0  0
 13 91  1  0  0  0  0
 14 15  1  0  0  0  0
 14 92  1  1  0  0  0
 15 16  1  0  0  0  0
 15 93  1  0  0  0  0
 15 94  1  0  0  0  0
 16 17  2  0  0  0  0
 16 95  1  0  0  0  0
 17 18  1  0  0  0  0
 18 19  1  0  0  0  0
 18 96  1  1  0  0  0
 19 20  1  0  0  0  0
 19 97  1  0  0  0  0
 19 98  1  0  0  0  0
 20 21  1  0  0  0  0
 20 22  1  0  0  0  0
 20 23  1  0  0  0  0
 21 99  1  0  0  0  0
 21100  1  0  0  0  0
 21101  1  0  0  0  0
 22102  1  0  0  0  0
 22103  1  0  0  0  0
 22104  1  0  0  0  0
 23 24  1  0  0  0  0
 23105  1  0  0  0  0
 23106  1  0  0  0  0
 24 25  1  0  0  0  0
 24107  1  0  0  0  0
 24108  1  0  0  0  0
 25 26  1  1  0  0  0
 25 51  1  0  0  0  0
 25 18  1  0  0  0  0
 26 27  2  0  0  0  0
 26 28  1  0  0  0  0
 29 28  1  0  0  0  0
 29 30  1  0  0  0  0
 29109  1  1  0  0  0
 30 31  1  0  0  0  0
 31 32  1  0  0  0  0
 31 45  1  0  0  0  0
 31110  1  1  0  0  0
 32 33  1  0  0  0  0
 32111  1  0  0  0  0
 32112  1  0  0  0  0
 34 33  1  0  0  0  0
 34 35  1  0  0  0  0
 34113  1  1  0  0  0
 35 36  1  0  0  0  0
 36 37  1  0  0  0  0
 36 39  1  0  0  0  0
 36114  1  1  0  0  0
 37 38  1  0  0  0  0
 37115  1  0  0  0  0
 37116  1  0  0  0  0
 38117  1  0  0  0  0
 39 40  1  0  0  0  0
 39 41  1  0  0  0  0
 39118  1  6  0  0  0
 40119  1  0  0  0  0
 41 42  1  0  0  0  0
 41 43  1  0  0  0  0
 41120  1  1  0  0  0
 42121  1  0  0  0  0
 43 44  1  0  0  0  0
 43 34  1  0  0  0  0
 43122  1  6  0  0  0
 44123  1  0  0  0  0
 45 46  1  0  0  0  0
 45 47  1  0  0  0  0
 45124  1  6  0  0  0
 46125  1  0  0  0  0
 47 48  1  0  0  0  0
 47 49  1  0  0  0  0
 47126  1  1  0  0  0
 48127  1  0  0  0  0
 49 50  1  0  0  0  0
 49 29  1  0  0  0  0
 49128  1  6  0  0  0
 50129  1  0  0  0  0
 51 52  1  0  0  0  0
 51130  1  0  0  0  0
 51131  1  0  0  0  0
 52 53  1  0  0  0  0
 52132  1  0  0  0  0
 52133  1  0  0  0  0
 53 54  1  6  0  0  0
 53 55  1  0  0  0  0
 53 17  1  0  0  0  0
 54134  1  0  0  0  0
 54135  1  0  0  0  0
 54136  1  0  0  0  0
 55 56  1  6  0  0  0
 55 57  1  0  0  0  0
 55 14  1  0  0  0  0
 56137  1  0  0  0  0
 56138  1  0  0  0  0
 56139  1  0  0  0  0
 57 58  1  0  0  0  0
 57140  1  0  0  0  0
 57141  1  0  0  0  0
 58142  1  0  0  0  0
 58143  1  0  0  0  0
 59 58  1  0  0  0  0
 59 60  1  0  0  0  0
 59 12  1  0  0  0  0
 59144  1  1  0  0  0
 60 61  1  0  0  0  0
 60 62  1  0  0  0  0
 60  9  1  0  0  0  0
 61145  1  0  0  0  0
 61146  1  0  0  0  0
 61147  1  0  0  0  0
 62148  1  0  0  0  0
 62149  1  0  0  0  0
 62150  1  0  0  0  0
 63 64  1  0  0  0  0
 64 65  1  0  0  0  0
 64 67  1  0  0  0  0
 64151  1  1  0  0  0
 65 66  1  0  0  0  0
 65152  1  0  0  0  0
 65153  1  0  0  0  0
 66154  1  0  0  0  0
 67 68  1  0  0  0  0
 67 69  1  0  0  0  0
 67155  1  1  0  0  0
 68156  1  0  0  0  0
 69 70  1  0  0  0  0
 69  6  1  0  0  0  0
 69157  1  6  0  0  0
 70158  1  0  0  0  0
 71 72  1  0  0  0  0
 71 73  1  0  0  0  0
 71159  1  1  0  0  0
 72160  1  0  0  0  0
 73 74  1  0  0  0  0
 73 75  1  0  0  0  0
 73161  1  1  0  0  0
 74162  1  0  0  0  0
 75 76  1  0  0  0  0
 75  2  1  0  0  0  0
 75163  1  6  0  0  0
 76164  1  0  0  0  0
M  END
>  <IDENTIFIER>
CNP0170612.1

>  <Energy>
2392.8

$$$$
