
 OpenBabel09072500063D

 73 77  0  0  0  0  0  0  0  0999 V2000
   -4.2108   -4.5819    0.0064 O   0  0  0  0  0  0  0  0  0  0  0  0
   -4.2437   -3.2568    0.4604 C   0  0  0  0  0  0  0  0  0  0  0  0
   -3.3997   -2.3542   -0.4514 C   0  0  2  0  0  0  0  0  0  0  0  0
   -3.3867   -1.0486    0.1174 O   0  0  0  0  0  0  0  0  0  0  0  0
   -2.5192   -0.1899   -0.6080 C   0  0  2  0  0  0  0  0  0  0  0  0
   -2.4276    1.0271    0.0603 O   0  0  0  0  0  0  0  0  0  0  0  0
   -1.3310    1.6568    0.5739 C   0  0  0  0  0  0  0  0  0  0  0  0
   -0.0524    1.0563    0.5544 C   0  0  0  0  0  0  0  0  0  0  0  0
    1.0626    1.7141    1.0714 C   0  0  0  0  0  0  0  0  0  0  0  0
    2.3466    1.1247    1.0490 C   0  0  0  0  0  0  0  0  0  0  0  0
    2.4698   -0.1219    0.5064 O   0  0  0  0  0  0  0  0  0  0  0  0
    3.5913   -0.9063    0.3024 C   0  0  2  0  0  0  0  0  0  0  0  0
    3.6641   -1.2142   -1.0822 O   0  0  0  0  0  0  0  0  0  0  0  0
    4.8251   -1.9783   -1.3834 C   0  0  2  0  0  0  0  0  0  0  0  0
    4.8857   -2.1890   -2.9033 C   0  0  0  0  0  0  0  0  0  0  0  0
    4.9474   -0.9552   -3.5679 O   0  0  0  0  0  0  0  0  0  0  0  0
    4.7691   -3.3519   -0.6535 C   0  0  1  0  0  0  0  0  0  0  0  0
    5.8833   -4.1591   -0.9445 O   0  0  0  0  0  0  0  0  0  0  0  0
    4.6051   -3.1630    0.8703 C   0  0  1  0  0  0  0  0  0  0  0  0
    5.7879   -2.7037    1.4869 O   0  0  0  0  0  0  0  0  0  0  0  0
    3.4213   -2.2092    1.1202 C   0  0  1  0  0  0  0  0  0  0  0  0
    3.2521   -1.9552    2.4927 O   0  0  0  0  0  0  0  0  0  0  0  0
    3.4323    1.8486    1.5906 C   0  0  0  0  0  0  0  0  0  0  0  0
    3.2348    3.1272    2.1348 C   0  0  0  0  0  0  0  0  0  0  0  0
    4.2685    3.8226    2.6515 O   0  0  0  0  0  0  0  0  0  0  0  0
    1.9571    3.6915    2.1463 C   0  0  0  0  0  0  0  0  0  0  0  0
    0.8728    2.9892    1.6172 C   0  0  0  0  0  0  0  0  0  0  0  0
   -0.3337    3.5367    1.6340 O   0  3  0  0  0  0  0  0  0  0  0  0
   -1.4377    2.9586    1.1522 C   0  0  0  0  0  0  0  0  0  0  0  0
   -2.7031    3.7737    1.2744 C   0  0  0  0  0  0  0  0  0  0  0  0
   -2.6112    5.0480    1.8864 C   0  0  0  0  0  0  0  0  0  0  0  0
   -3.7315    5.8665    2.0390 C   0  0  0  0  0  0  0  0  0  0  0  0
   -4.9807    5.4390    1.5856 C   0  0  0  0  0  0  0  0  0  0  0  0
   -6.0710    6.2204    1.7266 O   0  0  0  0  0  0  0  0  0  0  0  0
   -5.1002    4.1889    0.9783 C   0  0  0  0  0  0  0  0  0  0  0  0
   -3.9806    3.3617    0.8223 C   0  0  0  0  0  0  0  0  0  0  0  0
   -3.0867    0.0483   -2.0243 C   0  0  1  0  0  0  0  0  0  0  0  0
   -2.3198    0.9755   -2.7529 O   0  0  0  0  0  0  0  0  0  0  0  0
   -3.1959   -1.2943   -2.7771 C   0  0  1  0  0  0  0  0  0  0  0  0
   -1.9249   -1.7825   -3.1523 O   0  0  0  0  0  0  0  0  0  0  0  0
   -3.9820   -2.2972   -1.8986 C   0  0  1  0  0  0  0  0  0  0  0  0
   -4.0351   -3.5617   -2.5124 O   0  0  0  0  0  0  0  0  0  0  0  0
   -4.7268   -5.1129    0.6669 H   0  0  0  0  0  0  0  0  0  0  0  0
   -3.8151   -3.2137    1.4873 H   0  0  0  0  0  0  0  0  0  0  0  0
   -5.2934   -2.8874    0.4829 H   0  0  0  0  0  0  0  0  0  0  0  0
   -2.3703   -2.7793   -0.4397 H   0  0  0  0  0  0  0  0  0  0  0  0
   -1.5358   -0.6661   -0.7062 H   0  0  0  0  0  0  0  0  0  0  0  0
    0.1128    0.0789    0.1452 H   0  0  0  0  0  0  0  0  0  0  0  0
    4.5069   -0.3718    0.6086 H   0  0  0  0  0  0  0  0  0  0  0  0
    5.7392   -1.4074   -1.1047 H   0  0  0  0  0  0  0  0  0  0  0  0
    4.0071   -2.7774   -3.2578 H   0  0  0  0  0  0  0  0  0  0  0  0
    5.7929   -2.7706   -3.1719 H   0  0  0  0  0  0  0  0  0  0  0  0
    4.0110   -0.6481   -3.6905 H   0  0  0  0  0  0  0  0  0  0  0  0
    3.8605   -3.8784   -1.0228 H   0  0  0  0  0  0  0  0  0  0  0  0
    6.6983   -3.6322   -0.7356 H   0  0  0  0  0  0  0  0  0  0  0  0
    4.3767   -4.1502    1.3280 H   0  0  0  0  0  0  0  0  0  0  0  0
    6.0888   -1.8712    1.0470 H   0  0  0  0  0  0  0  0  0  0  0  0
    2.4941   -2.7038    0.7513 H   0  0  0  0  0  0  0  0  0  0  0  0
    3.9940   -1.3642    2.7845 H   0  0  0  0  0  0  0  0  0  0  0  0
    4.4340    1.4523    1.6070 H   0  0  0  0  0  0  0  0  0  0  0  0
    5.1705    3.4720    2.6633 H   0  0  0  0  0  0  0  0  0  0  0  0
    1.8073    4.6784    2.5670 H   0  0  0  0  0  0  0  0  0  0  0  0
   -1.6666    5.4267    2.2552 H   0  0  0  0  0  0  0  0  0  0  0  0
   -3.6247    6.8354    2.5117 H   0  0  0  0  0  0  0  0  0  0  0  0
   -6.0278    7.0949    2.1408 H   0  0  0  0  0  0  0  0  0  0  0  0
   -6.0666    3.8532    0.6250 H   0  0  0  0  0  0  0  0  0  0  0  0
   -4.1615    2.4187    0.3456 H   0  0  0  0  0  0  0  0  0  0  0  0
   -4.1075    0.4737   -1.9011 H   0  0  0  0  0  0  0  0  0  0  0  0
   -1.3697    0.6918   -2.7026 H   0  0  0  0  0  0  0  0  0  0  0  0
   -3.7580   -1.1369   -3.7228 H   0  0  0  0  0  0  0  0  0  0  0  0
   -1.4493   -2.1276   -2.3570 H   0  0  0  0  0  0  0  0  0  0  0  0
   -5.0227   -1.9152   -1.8114 H   0  0  0  0  0  0  0  0  0  0  0  0
   -3.1245   -3.9538   -2.4720 H   0  0  0  0  0  0  0  0  0  0  0  0
  1  2  1  0  0  0  0
  1 43  1  0  0  0  0
  2 44  1  0  0  0  0
  2 45  1  0  0  0  0
  3  2  1  0  0  0  0
  3  4  1  0  0  0  0
  3 46  1  6  0  0  0
  4  5  1  0  0  0  0
  5  6  1  0  0  0  0
  5 37  1  0  0  0  0
  5 47  1  6  0  0  0
  6  7  1  0  0  0  0
  7  8  2  0  0  0  0
  8  9  1  0  0  0  0
  8 48  1  0  0  0  0
  9 10  2  0  0  0  0
 10 11  1  0  0  0  0
 10 23  1  0  0  0  0
 12 11  1  0  0  0  0
 12 13  1  0  0  0  0
 12 49  1  1  0  0  0
 13 14  1  0  0  0  0
 14 15  1  0  0  0  0
 14 17  1  0  0  0  0
 14 50  1  1  0  0  0
 15 16  1  0  0  0  0
 15 51  1  0  0  0  0
 15 52  1  0  0  0  0
 16 53  1  0  0  0  0
 17 18  1  0  0  0  0
 17 19  1  0  0  0  0
 17 54  1  6  0  0  0
 18 55  1  0  0  0  0
 19 20  1  0  0  0  0
 19 21  1  0  0  0  0
 19 56  1  1  0  0  0
 20 57  1  0  0  0  0
 21 22  1  0  0  0  0
 21 12  1  0  0  0  0
 21 58  1  6  0  0  0
 22 59  1  0  0  0  0
 23 24  2  0  0  0  0
 23 60  1  0  0  0  0
 24 25  1  0  0  0  0
 24 26  1  0  0  0  0
 25 61  1  0  0  0  0
 26 27  2  0  0  0  0
 26 62  1  0  0  0  0
 27 28  1  0  0  0  0
 27  9  1  0  0  0  0
 28 29  2  0  0  0  0
 29 30  1  0  0  0  0
 29  7  1  0  0  0  0
 30 31  2  0  0  0  0
 31 32  1  0  0  0  0
 31 63  1  0  0  0  0
 32 33  2  0  0  0  0
 32 64  1  0  0  0  0
 33 34  1  0  0  0  0
 33 35  1  0  0  0  0
 34 65  1  0  0  0  0
 35 36  2  0  0  0  0
 35 66  1  0  0  0  0
 36 30  1  0  0  0  0
 36 67  1  0  0  0  0
 37 38  1  0  0  0  0
 37 39  1  0  0  0  0
 37 68  1  1  0  0  0
 38 69  1  0  0  0  0
 39 40  1  0  0  0  0
 39 41  1  0  0  0  0
 39 70  1  6  0  0  0
 40 71  1  0  0  0  0
 41 42  1  0  0  0  0
 41  3  1  0  0  0  0
 41 72  1  1  0  0  0
 42 73  1  0  0  0  0
M  CHG  1  28   1
M  END
>  <IDENTIFIER>
CNP0533557.2

>  <Energy>
635.729

$$$$
