
 OpenBabel09062502242D

165164  0  0  0  0  0  0  0  0999 V2000
   -3.7500   -6.4952    0.0000 C   0  0  0  0  0  0  0  0  0  0  0  0
   -3.0000   -5.1962    0.0000 C   0  0  0  0  0  0  0  0  0  0  0  0
   -3.1875   -3.6694    0.0737 C   0  0  0  0  0  0  0  0  0  0  0  0
   -1.7376   -2.9714    0.0678 C   0  0  0  0  0  0  0  0  0  0  0  0
   -1.8536   -1.4433    0.1249 C   0  0  0  0  0  0  0  0  0  0  0  0
   -0.7513   -0.3515    0.1626 C   0  0  0  0  0  0  0  0  0  0  0  0
    0.5893    0.0334    0.1721 C   0  0  0  0  0  0  0  0  0  0  0  0
    2.1274   -0.2283    0.1500 C   0  0  0  0  0  0  0  0  0  0  0  0
    3.1420   -1.3810    0.0541 C   0  0  0  0  0  0  0  0  0  0  0  0
    4.5189   -1.1237    0.0769 C   0  0  0  0  0  0  0  0  0  0  0  0
    5.0715    0.3161    0.2277 C   0  0  0  0  0  0  0  0  0  0  0  0
    6.5079    0.9220    0.2837 C   0  0  0  0  0  0  0  0  0  0  0  0
    7.8305    0.5750    0.1872 C   0  0  0  0  0  0  0  0  0  0  0  0
    8.4559   -0.7591   -0.0626 C   0  0  0  0  0  0  0  0  0  0  0  0
   10.0004   -0.8363   -0.2190 C   0  0  0  0  0  0  0  0  0  0  0  0
   11.1034   -0.0021   -0.1319 C   0  0  0  0  0  0  0  0  0  0  0  0
   11.3274    1.4853    0.2278 C   0  0  0  0  0  0  0  0  0  0  0  0
   12.8657    1.8475    0.0736 C   0  0  0  0  0  2  0  0  0  0  0  0
   13.5932    2.9288    0.9696 C   0  0  0  0  0  0  0  0  0  0  0  0
   13.4236    4.4057    0.5860 C   0  0  0  0  0  0  0  0  0  0  0  0
   12.2729    4.8014    0.4723 O   0  0  0  0  0  0  0  0  0  0  0  0
   14.4373    5.3389    0.3875 O   0  0  0  0  0  0  0  0  0  0  0  0
   15.8256    5.3873    0.6361 C   0  0  0  0  0  0  0  0  0  0  0  0
   16.2571    6.7273    1.3743 C   0  0  2  0  0  0  0  0  0  0  0  0
   15.6842    8.0091    0.7242 C   0  0  0  0  0  0  0  0  0  0  0  0
   14.3433    8.2366    1.0392 O   0  0  0  0  0  0  0  0  0  0  0  0
   13.6910    9.3563    0.6000 C   0  0  0  0  0  0  0  0  0  0  0  0
   14.2117   10.0540   -0.2619 O   0  0  0  0  0  0  0  0  0  0  0  0
   12.3282    9.7971    1.1397 C   0  0  0  0  0  0  0  0  0  0  0  0
   11.3038    9.6962    0.0000 C   0  0  0  0  0  0  0  0  0  0  0  0
   10.0048   10.4462    0.0000 C   0  0  0  0  0  0  0  0  0  0  0  0
    8.7058   11.1962    0.0000 C   0  0  0  0  0  0  0  0  0  0  0  0
    7.4067   11.9462    0.0000 C   0  0  0  0  0  0  0  0  0  0  0  0
    6.1077   12.6962    0.0000 C   0  0  0  0  0  0  0  0  0  0  0  0
    4.8087   13.4462    0.0000 C   0  0  0  0  0  0  0  0  0  0  0  0
    3.1922   13.3801    0.3549 C   0  0  0  0  0  0  0  0  0  0  0  0
    2.3317   14.8103    0.2133 C   0  0  0  0  0  0  0  0  0  0  0  0
    0.6760   14.9988    0.0927 C   0  0  0  0  0  0  0  0  0  0  0  0
    0.0543   16.5257    0.2736 C   0  0  0  0  0  0  0  0  0  0  0  0
   -1.3553   17.3396   -0.1651 C   0  0  0  0  0  0  0  0  0  0  0  0
   -2.9281   17.1091    0.2302 C   0  0  0  0  0  0  0  0  0  0  0  0
   -4.1648   18.2263    0.0077 C   0  0  0  0  0  0  0  0  0  0  0  0
   -5.5836   17.9462    0.0000 C   0  0  0  0  0  0  0  0  0  0  0  0
   -5.5836   16.4462    0.0000 C   0  0  0  0  0  2  0  0  0  0  0  0
   -5.5836   14.9462    0.0000 C   0  0  0  0  0  2  0  0  0  0  0  0
   -5.5836   13.4462    0.0000 C   0  0  0  0  0  2  0  0  0  0  0  0
   -5.5836   11.9462    0.0000 C   0  0  0  0  0  2  0  0  0  0  0  0
   -5.5836   10.4462    0.0000 C   0  0  0  0  0  2  0  0  0  0  0  0
   -5.5836    8.9462    0.0000 C   0  0  0  0  0  2  0  0  0  0  0  0
   -5.5836    7.4462    0.0000 C   0  0  0  0  0  2  0  0  0  0  0  0
   -5.5836    5.9462    0.0000 C   0  0  0  0  0  0  0  0  0  0  0  0
   17.6465    6.9410    1.6022 O   0  0  0  0  0  0  0  0  0  0  0  0
   18.7290    7.1190    0.7540 C   0  0  0  0  0  0  0  0  0  0  0  0
   18.7517    6.5347   -0.3175 O   0  0  0  0  0  0  0  0  0  0  0  0
   19.9307    8.0672    1.1480 C   0  0  0  0  0  0  0  0  0  0  0  0
   20.2500    9.0933    0.0000 C   0  0  0  0  0  0  0  0  0  0  0  0
   21.0000   10.3923    0.0000 C   0  0  0  0  0  0  0  0  0  0  0  0
   21.7500   11.6913    0.0000 C   0  0  0  0  0  0  0  0  0  0  0  0
   22.5838   11.8381    1.2588 C   0  0  0  0  0  0  0  0  0  0  0  0
   23.9278   11.9825    1.3517 C   0  0  0  0  0  0  0  0  0  0  0  0
   24.9585   12.0260    0.2394 C   0  0  0  0  0  0  0  0  0  0  0  0
   26.0044   10.9536    0.4837 C   0  0  0  0  0  0  0  0  0  0  0  0
   27.2881   11.1801    0.8521 C   0  0  0  0  0  0  0  0  0  0  0  0
   27.8606   12.5565    1.0869 C   0  0  0  0  0  0  0  0  0  0  0  0
   29.1740   12.5350    1.8389 C   0  0  0  0  0  0  0  0  0  0  0  0
   30.3896   12.1602    1.3921 C   0  0  0  0  0  0  0  0  0  0  0  0
   30.7500   11.6913    0.0000 C   0  0  0  0  0  0  0  0  0  0  0  0
   31.5000   10.3923    0.0000 C   0  0  0  0  0  0  0  0  0  0  0  0
   32.2500    9.0933    0.0000 C   0  0  0  0  0  0  0  0  0  0  0  0
   31.4876    7.9984   -0.7666 C   0  0  0  0  0  0  0  0  0  0  0  0
   32.2110    6.6572   -0.6710 C   0  0  0  0  0  0  0  0  0  0  0  0
   -4.3067   -6.3000   -0.9431 H   0  0  0  0  0  0  0  0  0  0  0  0
   -2.8818   -7.1801   -0.1595 H   0  0  0  0  0  0  0  0  0  0  0  0
   -4.2850   -7.4218    0.0000 H   0  0  0  0  0  0  0  0  0  0  0  0
   -2.3257   -5.3640    0.8726 H   0  0  0  0  0  0  0  0  0  0  0  0
   -2.3640   -5.2798   -0.9181 H   0  0  0  0  0  0  0  0  0  0  0  0
   -3.7817   -3.3288   -0.8013 H   0  0  0  0  0  0  0  0  0  0  0  0
   -3.7324   -3.4071    1.0059 H   0  0  0  0  0  0  0  0  0  0  0  0
   -1.1508   -3.3141    0.9474 H   0  0  0  0  0  0  0  0  0  0  0  0
   -1.1853   -3.2465   -0.8567 H   0  0  0  0  0  0  0  0  0  0  0  0
   -2.4641   -1.2443    1.0334 H   0  0  0  0  0  0  0  0  0  0  0  0
   -2.4804   -1.1754   -0.7545 H   0  0  0  0  0  0  0  0  0  0  0  0
   -1.3466    0.5668    0.2065 H   0  0  0  0  0  0  0  0  0  0  0  0
    0.5621    1.1276    0.2257 H   0  0  0  0  0  0  0  0  0  0  0  0
    2.4349    0.2769    1.0899 H   0  0  0  0  0  0  0  0  0  0  0  0
    2.4304    0.4019   -0.7130 H   0  0  0  0  0  0  0  0  0  0  0  0
    2.7838   -2.4018   -0.0409 H   0  0  0  0  0  0  0  0  0  0  0  0
    5.2168   -1.9517   -0.0033 H   0  0  0  0  0  0  0  0  0  0  0  0
    4.6299    0.6681    1.1819 H   0  0  0  0  0  0  0  0  0  0  0  0
    4.6081    0.8820   -0.6059 H   0  0  0  0  0  0  0  0  0  0  0  0
    6.4097    1.9926    0.4474 H   0  0  0  0  0  0  0  0  0  0  0  0
    8.5382    1.3933    0.2873 H   0  0  0  0  0  0  0  0  0  0  0  0
    8.0234   -1.1402   -1.0127 H   0  0  0  0  0  0  0  0  0  0  0  0
    8.1533   -1.4519    0.7513 H   0  0  0  0  0  0  0  0  0  0  0  0
   10.2778   -1.8562   -0.4814 H   0  0  0  0  0  0  0  0  0  0  0  0
   12.0348   -0.5193   -0.3564 H   0  0  0  0  0  0  0  0  0  0  0  0
   11.0044    1.6372    1.2774 H   0  0  0  0  0  0  0  0  0  0  0  0
   10.7384    2.1394   -0.4463 H   0  0  0  0  0  0  0  0  0  0  0  0
   13.2334    2.7793    2.0073 H   0  0  0  0  0  0  0  0  0  0  0  0
   14.6769    2.6910    0.9588 H   0  0  0  0  0  0  0  0  0  0  0  0
   16.1597    4.4966    1.2095 H   0  0  0  0  0  0  0  0  0  0  0  0
   16.3339    5.3693   -0.3533 H   0  0  0  0  0  0  0  0  0  0  0  0
   15.8072    6.6823    2.3900 H   0  0  0  0  0  0  0  0  0  0  0  0
   15.8600    7.9905   -0.3752 H   0  0  0  0  0  0  0  0  0  0  0  0
   16.2484    8.8723    1.1429 H   0  0  0  0  0  0  0  0  0  0  0  0
   11.9947    9.1719    1.9949 H   0  0  0  0  0  0  0  0  0  0  0  0
   12.4304   10.8502    1.4793 H   0  0  0  0  0  0  0  0  0  0  0  0
   11.8108   10.1114   -0.9045 H   0  0  0  0  0  0  0  0  0  0  0  0
   11.1603    8.6012   -0.1947 H   0  0  0  0  0  0  0  0  0  0  0  0
    9.6586    9.8062    0.8538 H   0  0  0  0  0  0  0  0  0  0  0  0
    9.6895    9.9334   -0.9508 H   0  0  0  0  0  0  0  0  0  0  0  0
    8.9908   11.7239    0.9542 H   0  0  0  0  0  0  0  0  0  0  0  0
    9.1132   11.8857   -0.7950 H   0  0  0  0  0  0  0  0  0  0  0  0
    7.0057   11.1613    0.7064 H   0  0  0  0  0  0  0  0  0  0  0  0
    7.1308   11.5167   -1.0048 H   0  0  0  0  0  0  0  0  0  0  0  0
    6.6420   13.5034   -0.5761 H   0  0  0  0  0  0  0  0  0  0  0  0
    6.2203   12.9352    1.0946 H   0  0  0  0  0  0  0  0  0  0  0  0
    4.6688   13.6421   -1.0927 H   0  0  0  0  0  0  0  0  0  0  0  0
    5.0456   14.4603    0.4258 H   0  0  0  0  0  0  0  0  0  0  0  0
    3.0480   13.0132    1.3923 H   0  0  0  0  0  0  0  0  0  0  0  0
    2.7492   12.6262   -0.3306 H   0  0  0  0  0  0  0  0  0  0  0  0
    2.6624   15.4216    1.0791 H   0  0  0  0  0  0  0  0  0  0  0  0
    2.7216   15.3186   -0.6938 H   0  0  0  0  0  0  0  0  0  0  0  0
    0.4002   14.6210   -0.9143 H   0  0  0  0  0  0  0  0  0  0  0  0
    0.1704   14.3545    0.8417 H   0  0  0  0  0  0  0  0  0  0  0  0
    0.1945   16.7439    1.3536 H   0  0  0  0  0  0  0  0  0  0  0  0
    0.8153   17.1382   -0.2562 H   0  0  0  0  0  0  0  0  0  0  0  0
   -1.3448   17.4026   -1.2743 H   0  0  0  0  0  0  0  0  0  0  0  0
   -1.1590   18.3706    0.2003 H   0  0  0  0  0  0  0  0  0  0  0  0
   -3.1589   16.1862   -0.3384 H   0  0  0  0  0  0  0  0  0  0  0  0
   -2.9673   16.8402    1.3063 H   0  0  0  0  0  0  0  0  0  0  0  0
   -3.8622   19.2597   -0.1221 H   0  0  0  0  0  0  0  0  0  0  0  0
   -6.4013   18.6442   -0.1423 H   0  0  0  0  0  0  0  0  0  0  0  0
   -6.4890    5.8659    0.6361 H   0  0  0  0  0  0  0  0  0  0  0  0
   -4.6773    5.8659    0.6349 H   0  0  0  0  0  0  0  0  0  0  0  0
   -5.5836    4.8762    0.0000 H   0  0  0  0  0  0  0  0  0  0  0  0
   19.6434    8.6039    2.0765 H   0  0  0  0  0  0  0  0  0  0  0  0
   20.8499    7.4773    1.3489 H   0  0  0  0  0  0  0  0  0  0  0  0
   20.6326    8.4865   -0.8538 H   0  0  0  0  0  0  0  0  0  0  0  0
   19.1975    9.3767   -0.2867 H   0  0  0  0  0  0  0  0  0  0  0  0
   20.6038   10.6525   -1.0177 H   0  0  0  0  0  0  0  0  0  0  0  0
   20.3477   10.7519    0.8344 H   0  0  0  0  0  0  0  0  0  0  0  0
   21.0643   12.5726   -0.0691 H   0  0  0  0  0  0  0  0  0  0  0  0
   22.4129   11.7293   -0.8896 H   0  0  0  0  0  0  0  0  0  0  0  0
   22.0309   11.8461    2.1946 H   0  0  0  0  0  0  0  0  0  0  0  0
   24.3296   12.1008    2.3548 H   0  0  0  0  0  0  0  0  0  0  0  0
   25.4114   13.0369    0.2623 H   0  0  0  0  0  0  0  0  0  0  0  0
   24.5374   11.8876   -0.7733 H   0  0  0  0  0  0  0  0  0  0  0  0
   25.6801    9.9207    0.3962 H   0  0  0  0  0  0  0  0  0  0  0  0
   27.9193   10.3174    1.0474 H   0  0  0  0  0  0  0  0  0  0  0  0
   27.1523   13.0800    1.7648 H   0  0  0  0  0  0  0  0  0  0  0  0
   27.9324   13.1417    0.1447 H   0  0  0  0  0  0  0  0  0  0  0  0
   29.1346   12.9063    2.8601 H   0  0  0  0  0  0  0  0  0  0  0  0
   31.2145   12.2632    2.0927 H   0  0  0  0  0  0  0  0  0  0  0  0
   29.8372   11.6126   -0.6332 H   0  0  0  0  0  0  0  0  0  0  0  0
   31.3821   12.5075   -0.4344 H   0  0  0  0  0  0  0  0  0  0  0  0
   32.3457   10.8611    0.5634 H   0  0  0  0  0  0  0  0  0  0  0  0
   31.6561   10.4888   -1.1031 H   0  0  0  0  0  0  0  0  0  0  0  0
   32.3305    8.7435    1.0565 H   0  0  0  0  0  0  0  0  0  0  0  0
   33.2877    9.1925   -0.4098 H   0  0  0  0  0  0  0  0  0  0  0  0
   31.3850    8.2773   -1.8377 H   0  0  0  0  0  0  0  0  0  0  0  0
   30.4709    7.8838   -0.3293 H   0  0  0  0  0  0  0  0  0  0  0  0
   31.6329    5.8815   -1.2157 H   0  0  0  0  0  0  0  0  0  0  0  0
   33.2234    6.7317   -1.1212 H   0  0  0  0  0  0  0  0  0  0  0  0
   32.3068    6.3450    0.3914 H   0  0  0  0  0  0  0  0  0  0  0  0
  1  2  1  0  0  0  0
  1 72  1  0  0  0  0
  1 73  1  0  0  0  0
  1 74  1  0  0  0  0
  2  3  1  0  0  0  0
  2 75  1  0  0  0  0
  2 76  1  0  0  0  0
  3  4  1  0  0  0  0
  3 77  1  0  0  0  0
  3 78  1  0  0  0  0
  4  5  1  0  0  0  0
  4 79  1  0  0  0  0
  4 80  1  0  0  0  0
  5  6  1  0  0  0  0
  5 81  1  0  0  0  0
  5 82  1  0  0  0  0
  6  7  2  0  0  0  0
  6 83  1  0  0  0  0
  7  8  1  0  0  0  0
  7 84  1  0  0  0  0
  8  9  1  0  0  0  0
  8 85  1  0  0  0  0
  8 86  1  0  0  0  0
  9 10  2  0  0  0  0
  9 87  1  0  0  0  0
 10 11  1  0  0  0  0
 10 88  1  0  0  0  0
 11 12  1  0  0  0  0
 11 89  1  0  0  0  0
 11 90  1  0  0  0  0
 12 13  2  0  0  0  0
 12 91  1  0  0  0  0
 13 14  1  0  0  0  0
 13 92  1  0  0  0  0
 14 15  1  0  0  0  0
 14 93  1  0  0  0  0
 14 94  1  0  0  0  0
 15 16  2  0  0  0  0
 15 95  1  0  0  0  0
 16 17  1  0  0  0  0
 16 96  1  0  0  0  0
 17 18  1  0  0  0  0
 17 97  1  0  0  0  0
 17 98  1  0  0  0  0
 18 19  1  0  0  0  0
 19 20  1  0  0  0  0
 19 99  1  0  0  0  0
 19100  1  0  0  0  0
 20 21  2  0  0  0  0
 20 22  1  0  0  0  0
 22 23  1  0  0  0  0
 23101  1  0  0  0  0
 23102  1  0  0  0  0
 24 23  1  0  0  0  0
 24 25  1  0  0  0  0
 24 52  1  0  0  0  0
 24103  1  1  0  0  0
 25 26  1  0  0  0  0
 25104  1  0  0  0  0
 25105  1  0  0  0  0
 26 27  1  0  0  0  0
 27 28  2  0  0  0  0
 27 29  1  0  0  0  0
 29 30  1  0  0  0  0
 29106  1  0  0  0  0
 29107  1  0  0  0  0
 30 31  1  0  0  0  0
 30108  1  0  0  0  0
 30109  1  0  0  0  0
 31 32  1  0  0  0  0
 31110  1  0  0  0  0
 31111  1  0  0  0  0
 32 33  1  0  0  0  0
 32112  1  0  0  0  0
 32113  1  0  0  0  0
 33 34  1  0  0  0  0
 33114  1  0  0  0  0
 33115  1  0  0  0  0
 34 35  1  0  0  0  0
 34116  1  0  0  0  0
 34117  1  0  0  0  0
 35 36  1  0  0  0  0
 35118  1  0  0  0  0
 35119  1  0  0  0  0
 36 37  1  0  0  0  0
 36120  1  0  0  0  0
 36121  1  0  0  0  0
 37 38  1  0  0  0  0
 37122  1  0  0  0  0
 37123  1  0  0  0  0
 38 39  1  0  0  0  0
 38124  1  0  0  0  0
 38125  1  0  0  0  0
 39 40  1  0  0  0  0
 39126  1  0  0  0  0
 39127  1  0  0  0  0
 40 41  1  0  0  0  0
 40128  1  0  0  0  0
 40129  1  0  0  0  0
 41 42  1  0  0  0  0
 41130  1  0  0  0  0
 41131  1  0  0  0  0
 42 43  2  0  0  0  0
 42132  1  0  0  0  0
 43 44  1  0  0  0  0
 43133  1  0  0  0  0
 44 45  1  0  0  0  0
 45 46  1  0  0  0  0
 46 47  1  0  0  0  0
 47 48  1  0  0  0  0
 48 49  1  0  0  0  0
 49 50  1  0  0  0  0
 50 51  1  0  0  0  0
 51134  1  0  0  0  0
 51135  1  0  0  0  0
 51136  1  0  0  0  0
 52 53  1  0  0  0  0
 53 54  2  0  0  0  0
 53 55  1  0  0  0  0
 55 56  1  0  0  0  0
 55137  1  0  0  0  0
 55138  1  0  0  0  0
 56 57  1  0  0  0  0
 56139  1  0  0  0  0
 56140  1  0  0  0  0
 57 58  1  0  0  0  0
 57141  1  0  0  0  0
 57142  1  0  0  0  0
 58 59  1  0  0  0  0
 58143  1  0  0  0  0
 58144  1  0  0  0  0
 59 60  2  0  0  0  0
 59145  1  0  0  0  0
 60 61  1  0  0  0  0
 60146  1  0  0  0  0
 61 62  1  0  0  0  0
 61147  1  0  0  0  0
 61148  1  0  0  0  0
 62 63  2  0  0  0  0
 62149  1  0  0  0  0
 63 64  1  0  0  0  0
 63150  1  0  0  0  0
 64 65  1  0  0  0  0
 64151  1  0  0  0  0
 64152  1  0  0  0  0
 65 66  2  0  0  0  0
 65153  1  0  0  0  0
 66 67  1  0  0  0  0
 66154  1  0  0  0  0
 67 68  1  0  0  0  0
 67155  1  0  0  0  0
 67156  1  0  0  0  0
 68 69  1  0  0  0  0
 68157  1  0  0  0  0
 68158  1  0  0  0  0
 69 70  1  0  0  0  0
 69159  1  0  0  0  0
 69160  1  0  0  0  0
 70 71  1  0  0  0  0
 70161  1  0  0  0  0
 70162  1  0  0  0  0
 71163  1  0  0  0  0
 71164  1  0  0  0  0
 71165  1  0  0  0  0
M  END
>  <IDENTIFIER>
CNP0597900.1

>  <Energy>
7097.96

$$$$
