
 OpenBabel09092523363D

165168  0  0  0  0  0  0  0  0999 V2000
   13.6560   -3.5638    0.8051 C   0  0  0  0  0  0  0  0  0  0  0  0
   14.9210   -2.7603    1.1244 C   0  0  0  0  0  0  0  0  0  0  0  0
   15.2888   -1.6193    0.1309 C   0  0  2  0  0  0  0  0  0  0  0  0
   16.7628   -1.2421    0.3718 C   0  0  0  0  0  0  0  0  0  0  0  0
   14.4527   -0.3060    0.2477 C   0  0  0  0  0  0  0  0  0  0  0  0
   12.9441   -0.3524   -0.0907 C   0  0  2  0  0  0  0  0  0  0  0  0
   12.7089   -0.8901   -1.5153 C   0  0  0  0  0  0  0  0  0  0  0  0
   12.3397    1.0669    0.0893 C   0  0  0  0  0  0  0  0  0  0  0  0
   10.8224    1.1713   -0.1624 C   0  0  0  0  0  0  0  0  0  0  0  0
    9.9914    0.2822    0.7839 C   0  0  0  0  0  0  0  0  0  0  0  0
    8.4775    0.4362    0.5745 C   0  0  0  0  0  0  0  0  0  0  0  0
    8.0157   -0.0860   -0.7989 C   0  0  0  0  0  0  0  0  0  0  0  0
    6.4942   -0.0186   -0.9892 C   0  0  0  0  0  0  0  0  0  0  0  0
    5.9643    1.4282   -1.0105 C   0  0  0  0  0  0  0  0  0  0  0  0
    4.4714    1.5005   -1.3627 C   0  0  0  0  0  0  0  0  0  0  0  0
    3.5361    0.9168   -0.3277 C   0  0  0  0  0  0  0  0  0  0  0  0
    3.9672    0.4696    0.7258 O   0  0  0  0  0  0  0  0  0  0  0  0
    2.2020    0.8965   -0.5946 N   0  0  0  0  0  0  0  0  0  0  0  0
    1.2029    0.3386    0.3169 C   0  0  1  0  0  0  0  0  0  0  0  0
    1.0313    1.2194    1.5881 C   0  0  0  0  0  0  0  0  0  0  0  0
    0.9908    2.7837    1.5194 C   0  0  1  0  0  0  0  0  0  0  0  0
    2.1143    3.3278    0.8707 O   0  0  0  0  0  0  0  0  0  0  0  0
   -0.3328    3.4710    1.1125 C   0  0  1  0  0  0  0  0  0  0  0  0
   -0.2734    4.8957    1.5011 N   0  0  0  0  0  0  0  0  0  0  0  0
   -1.5632    5.6001    1.4156 C   0  0  0  0  0  0  0  0  0  0  0  0
   -2.5139    5.2249    2.5585 C   0  0  0  0  0  0  0  0  0  0  0  0
   -1.9143    5.5353    3.8531 N   0  0  0  0  0  0  0  0  0  0  0  0
   -0.6385    3.3637   -0.3133 N   0  0  0  0  0  0  0  0  0  0  0  0
   -1.6547    2.5840   -0.7643 C   0  0  0  0  0  0  0  0  0  0  0  0
   -2.2122    1.8351    0.0268 O   0  0  0  0  0  0  0  0  0  0  0  0
   -2.1536    2.5848   -2.2187 C   0  0  2  0  0  0  0  0  0  0  0  0
   -1.7381    3.7574   -3.1395 C   0  0  1  0  0  0  0  0  0  0  0  0
   -1.9257    3.4359   -4.5036 O   0  0  0  0  0  0  0  0  0  0  0  0
   -2.7425    4.8279   -2.7400 C   0  0  0  0  0  0  0  0  0  0  0  0
   -4.0463    4.0387   -2.5862 C   0  0  0  0  0  0  0  0  0  0  0  0
   -3.5992    2.7266   -2.1521 N   0  0  0  0  0  0  0  0  0  0  0  0
   -4.3785    1.6782   -1.7393 C   0  0  0  0  0  0  0  0  0  0  0  0
   -3.8361    0.5849   -1.6052 O   0  0  0  0  0  0  0  0  0  0  0  0
   -5.8645    1.7682   -1.3880 C   0  0  2  0  0  0  0  0  0  0  0  0
   -6.0725    2.6411   -0.1011 C   0  0  2  0  0  0  0  0  0  0  0  0
   -5.2695    2.2083    0.9725 O   0  0  0  0  0  0  0  0  0  0  0  0
   -7.5394    2.8785    0.3491 C   0  0  0  0  0  0  0  0  0  0  0  0
   -8.2859    1.6624    0.9200 C   0  0  0  0  0  0  0  0  0  0  0  0
   -9.6270    2.0485    1.3468 N   0  0  0  0  0  0  0  0  0  0  0  0
   -6.3019    0.4007   -1.1462 N   0  0  0  0  0  0  0  0  0  0  0  0
   -7.2607   -0.2487   -1.8584 C   0  0  0  0  0  0  0  0  0  0  0  0
   -7.9173    0.3625   -2.6912 O   0  0  0  0  0  0  0  0  0  0  0  0
   -7.5209   -1.7446   -1.6924 C   0  0  2  0  0  0  0  0  0  0  0  0
   -8.9744   -2.0196   -1.2034 C   0  0  2  0  0  0  0  0  0  0  0  0
   -9.1718   -1.5311    0.1025 O   0  0  0  0  0  0  0  0  0  0  0  0
   -9.4179   -3.5039   -1.3960 C   0  0  1  0  0  0  0  0  0  0  0  0
   -8.5664   -4.3795   -0.6947 O   0  0  0  0  0  0  0  0  0  0  0  0
  -10.8872   -3.7996   -1.0756 C   0  0  0  0  0  0  0  0  0  0  0  0
  -11.7882   -2.8322   -0.5730 C   0  0  0  0  0  0  0  0  0  0  0  0
  -13.1128   -3.1714   -0.2872 C   0  0  0  0  0  0  0  0  0  0  0  0
  -13.5697   -4.4771   -0.5026 C   0  0  0  0  0  0  0  0  0  0  0  0
  -14.8451   -4.8147   -0.2254 O   0  0  0  0  0  0  0  0  0  0  0  0
  -12.6937   -5.4387   -1.0110 C   0  0  0  0  0  0  0  0  0  0  0  0
  -11.3653   -5.1048   -1.2946 C   0  0  0  0  0  0  0  0  0  0  0  0
   -6.4622   -2.4541   -0.9480 N   0  0  0  0  0  0  0  0  0  0  0  0
   -6.1472   -2.3404    0.3824 C   0  0  0  0  0  0  0  0  0  0  0  0
   -6.8193   -1.6336    1.1175 O   0  0  0  0  0  0  0  0  0  0  0  0
   -4.9605   -3.1139    0.9719 C   0  0  2  0  0  0  0  0  0  0  0  0
   -4.9965   -3.2129    2.5030 C   0  0  0  0  0  0  0  0  0  0  0  0
   -4.2940   -1.9331    2.9189 C   0  0  1  0  0  0  0  0  0  0  0  0
   -3.9040   -1.9012    4.2679 O   0  0  0  0  0  0  0  0  0  0  0  0
   -3.1250   -1.8695    1.9365 C   0  0  0  0  0  0  0  0  0  0  0  0
   -3.6639   -2.4549    0.7266 N   0  0  0  0  0  0  0  0  0  0  0  0
   -2.9839   -2.5740   -0.4602 C   0  0  0  0  0  0  0  0  0  0  0  0
   -3.5318   -3.1834   -1.3659 O   0  0  0  0  0  0  0  0  0  0  0  0
   -1.5455   -2.1003   -0.7820 C   0  0  2  0  0  0  0  0  0  0  0  0
   -0.6098   -3.3394   -0.9585 C   0  0  1  0  0  0  0  0  0  0  0  0
   -0.3909   -4.1295    0.3529 C   0  0  0  0  0  0  0  0  0  0  0  0
   -1.0662   -4.1825   -1.9906 O   0  0  0  0  0  0  0  0  0  0  0  0
   -0.8374   -1.1505    0.1042 N   0  0  0  0  0  0  0  0  0  0  0  0
   -0.0239   -0.1791   -0.4448 C   0  0  0  0  0  0  0  0  0  0  0  0
   -0.1276    0.0942   -1.6320 O   0  0  0  0  0  0  0  0  0  0  0  0
   13.5865   -4.4157    1.5144 H   0  0  0  0  0  0  0  0  0  0  0  0
   13.7116   -3.9744   -0.2249 H   0  0  0  0  0  0  0  0  0  0  0  0
   12.7215   -3.0018    0.9226 H   0  0  0  0  0  0  0  0  0  0  0  0
   15.7348   -3.5177    1.0751 H   0  0  0  0  0  0  0  0  0  0  0  0
   14.8867   -2.3729    2.1657 H   0  0  0  0  0  0  0  0  0  0  0  0
   15.2434   -2.0149   -0.9058 H   0  0  0  0  0  0  0  0  0  0  0  0
   16.9056   -0.8440    1.3997 H   0  0  0  0  0  0  0  0  0  0  0  0
   17.0934   -0.4729   -0.3589 H   0  0  0  0  0  0  0  0  0  0  0  0
   17.4202   -2.1281    0.2389 H   0  0  0  0  0  0  0  0  0  0  0  0
   14.9074    0.4367   -0.4466 H   0  0  0  0  0  0  0  0  0  0  0  0
   14.5698    0.0885    1.2818 H   0  0  0  0  0  0  0  0  0  0  0  0
   12.4473   -0.9977    0.6413 H   0  0  0  0  0  0  0  0  0  0  0  0
   13.1900   -0.2278   -2.2666 H   0  0  0  0  0  0  0  0  0  0  0  0
   11.6270   -0.9679   -1.7410 H   0  0  0  0  0  0  0  0  0  0  0  0
   13.1148   -1.9141   -1.6265 H   0  0  0  0  0  0  0  0  0  0  0  0
   12.8497    1.7724   -0.6034 H   0  0  0  0  0  0  0  0  0  0  0  0
   12.5377    1.4119    1.1284 H   0  0  0  0  0  0  0  0  0  0  0  0
   10.6147    0.9287   -1.2211 H   0  0  0  0  0  0  0  0  0  0  0  0
   10.5232    2.2306   -0.0044 H   0  0  0  0  0  0  0  0  0  0  0  0
   10.2269    0.5741    1.8305 H   0  0  0  0  0  0  0  0  0  0  0  0
   10.2494   -0.7892    0.6534 H   0  0  0  0  0  0  0  0  0  0  0  0
    8.2066    1.5034    0.7102 H   0  0  0  0  0  0  0  0  0  0  0  0
    7.9623   -0.1585    1.3605 H   0  0  0  0  0  0  0  0  0  0  0  0
    8.3233   -1.1512   -0.8900 H   0  0  0  0  0  0  0  0  0  0  0  0
    8.4935    0.4835   -1.6219 H   0  0  0  0  0  0  0  0  0  0  0  0
    5.9980   -0.6184   -0.1985 H   0  0  0  0  0  0  0  0  0  0  0  0
    6.2632   -0.4891   -1.9704 H   0  0  0  0  0  0  0  0  0  0  0  0
    6.5176    1.9825   -1.8002 H   0  0  0  0  0  0  0  0  0  0  0  0
    6.1351    1.9396   -0.0406 H   0  0  0  0  0  0  0  0  0  0  0  0
    4.3121    0.9799   -2.3322 H   0  0  0  0  0  0  0  0  0  0  0  0
    4.1937    2.5681   -1.4968 H   0  0  0  0  0  0  0  0  0  0  0  0
    1.8991    1.2627   -1.5098 H   0  0  0  0  0  0  0  0  0  0  0  0
    1.6154   -0.6331    0.6752 H   0  0  0  0  0  0  0  0  0  0  0  0
    1.9540    1.0282    2.1791 H   0  0  0  0  0  0  0  0  0  0  0  0
    0.1971    0.8284    2.2094 H   0  0  0  0  0  0  0  0  0  0  0  0
    1.0924    3.0754    2.5902 H   0  0  0  0  0  0  0  0  0  0  0  0
    1.9309    3.3510   -0.1013 H   0  0  0  0  0  0  0  0  0  0  0  0
   -1.0991    2.9663    1.7361 H   0  0  0  0  0  0  0  0  0  0  0  0
    0.4136    5.3866    0.8805 H   0  0  0  0  0  0  0  0  0  0  0  0
   -2.0545    5.4119    0.4426 H   0  0  0  0  0  0  0  0  0  0  0  0
   -1.3735    6.6945    1.4845 H   0  0  0  0  0  0  0  0  0  0  0  0
   -2.7969    4.1523    2.5154 H   0  0  0  0  0  0  0  0  0  0  0  0
   -3.4461    5.8195    2.4419 H   0  0  0  0  0  0  0  0  0  0  0  0
   -1.0858    4.9160    4.0074 H   0  0  0  0  0  0  0  0  0  0  0  0
   -2.6126    5.3204    4.6006 H   0  0  0  0  0  0  0  0  0  0  0  0
   -0.0971    3.9401   -0.9699 H   0  0  0  0  0  0  0  0  0  0  0  0
   -1.8556    1.6318   -2.7070 H   0  0  0  0  0  0  0  0  0  0  0  0
   -0.6767    4.0580   -3.0433 H   0  0  0  0  0  0  0  0  0  0  0  0
   -2.7123    2.8401   -4.6111 H   0  0  0  0  0  0  0  0  0  0  0  0
   -2.8065    5.7142   -3.4062 H   0  0  0  0  0  0  0  0  0  0  0  0
   -2.4416    5.1799   -1.7337 H   0  0  0  0  0  0  0  0  0  0  0  0
   -4.5758    3.9186   -3.5557 H   0  0  0  0  0  0  0  0  0  0  0  0
   -4.6946    4.5810   -1.8800 H   0  0  0  0  0  0  0  0  0  0  0  0
   -6.4190    2.2165   -2.2405 H   0  0  0  0  0  0  0  0  0  0  0  0
   -5.7202    3.6538   -0.3402 H   0  0  0  0  0  0  0  0  0  0  0  0
   -5.5693    1.3076    1.2500 H   0  0  0  0  0  0  0  0  0  0  0  0
   -8.1164    3.2928   -0.5062 H   0  0  0  0  0  0  0  0  0  0  0  0
   -7.5153    3.6516    1.1491 H   0  0  0  0  0  0  0  0  0  0  0  0
   -7.7407    1.2351    1.7888 H   0  0  0  0  0  0  0  0  0  0  0  0
   -8.3894    0.8889    0.1466 H   0  0  0  0  0  0  0  0  0  0  0  0
   -9.5528    2.7186    2.1465 H   0  0  0  0  0  0  0  0  0  0  0  0
  -10.1212    1.1946    1.6950 H   0  0  0  0  0  0  0  0  0  0  0  0
   -5.7782   -0.1051   -0.4312 H   0  0  0  0  0  0  0  0  0  0  0  0
   -7.4662   -2.1320   -2.7357 H   0  0  0  0  0  0  0  0  0  0  0  0
   -9.6509   -1.4375   -1.8685 H   0  0  0  0  0  0  0  0  0  0  0  0
   -9.1832   -2.2860    0.7425 H   0  0  0  0  0  0  0  0  0  0  0  0
   -9.2961   -3.7330   -2.4780 H   0  0  0  0  0  0  0  0  0  0  0  0
   -8.8606   -4.4147    0.2516 H   0  0  0  0  0  0  0  0  0  0  0  0
  -11.4945   -1.8111   -0.3921 H   0  0  0  0  0  0  0  0  0  0  0  0
  -13.7834   -2.4160    0.1031 H   0  0  0  0  0  0  0  0  0  0  0  0
  -15.4784   -4.1775    0.1352 H   0  0  0  0  0  0  0  0  0  0  0  0
  -13.0411   -6.4494   -1.1838 H   0  0  0  0  0  0  0  0  0  0  0  0
  -10.7044   -5.8683   -1.6855 H   0  0  0  0  0  0  0  0  0  0  0  0
   -5.9027   -3.1098   -1.5092 H   0  0  0  0  0  0  0  0  0  0  0  0
   -4.9997   -4.1628    0.6008 H   0  0  0  0  0  0  0  0  0  0  0  0
   -4.3355   -4.0626    2.7948 H   0  0  0  0  0  0  0  0  0  0  0  0
   -6.0001   -3.3953    2.9442 H   0  0  0  0  0  0  0  0  0  0  0  0
   -4.9801   -1.0835    2.7145 H   0  0  0  0  0  0  0  0  0  0  0  0
   -3.3635   -2.7158    4.4432 H   0  0  0  0  0  0  0  0  0  0  0  0
   -2.2819   -2.5093    2.2784 H   0  0  0  0  0  0  0  0  0  0  0  0
   -2.8065   -0.8130    1.8113 H   0  0  0  0  0  0  0  0  0  0  0  0
   -1.6447   -1.6296   -1.7832 H   0  0  0  0  0  0  0  0  0  0  0  0
    0.3913   -2.9718   -1.2728 H   0  0  0  0  0  0  0  0  0  0  0  0
   -1.3496   -4.5283    0.7433 H   0  0  0  0  0  0  0  0  0  0  0  0
    0.0751   -3.4984    1.1368 H   0  0  0  0  0  0  0  0  0  0  0  0
    0.2975   -4.9817    0.1666 H   0  0  0  0  0  0  0  0  0  0  0  0
   -1.6847   -4.8564   -1.6041 H   0  0  0  0  0  0  0  0  0  0  0  0
   -0.6623   -1.4116    1.0831 H   0  0  0  0  0  0  0  0  0  0  0  0
  1  2  1  0  0  0  0
  1 78  1  0  0  0  0
  1 79  1  0  0  0  0
  1 80  1  0  0  0  0
  2  3  1  0  0  0  0
  2 81  1  0  0  0  0
  2 82  1  0  0  0  0
  3  4  1  0  0  0  0
  3  5  1  0  0  0  0
  3 83  1  6  0  0  0
  4 84  1  0  0  0  0
  4 85  1  0  0  0  0
  4 86  1  0  0  0  0
  5  6  1  0  0  0  0
  5 87  1  0  0  0  0
  5 88  1  0  0  0  0
  6  7  1  0  0  0  0
  6  8  1  0  0  0  0
  6 89  1  1  0  0  0
  7 90  1  0  0  0  0
  7 91  1  0  0  0  0
  7 92  1  0  0  0  0
  8  9  1  0  0  0  0
  8 93  1  0  0  0  0
  8 94  1  0  0  0  0
  9 10  1  0  0  0  0
  9 95  1  0  0  0  0
  9 96  1  0  0  0  0
 10 11  1  0  0  0  0
 10 97  1  0  0  0  0
 10 98  1  0  0  0  0
 11 12  1  0  0  0  0
 11 99  1  0  0  0  0
 11100  1  0  0  0  0
 12 13  1  0  0  0  0
 12101  1  0  0  0  0
 12102  1  0  0  0  0
 13 14  1  0  0  0  0
 13103  1  0  0  0  0
 13104  1  0  0  0  0
 14 15  1  0  0  0  0
 14105  1  0  0  0  0
 14106  1  0  0  0  0
 15 16  1  0  0  0  0
 15107  1  0  0  0  0
 15108  1  0  0  0  0
 16 17  2  0  0  0  0
 16 18  1  0  0  0  0
 18109  1  0  0  0  0
 19 18  1  0  0  0  0
 19 20  1  0  0  0  0
 19110  1  1  0  0  0
 20 21  1  0  0  0  0
 20111  1  0  0  0  0
 20112  1  0  0  0  0
 21 22  1  0  0  0  0
 21 23  1  0  0  0  0
 21113  1  1  0  0  0
 22114  1  0  0  0  0
 23 24  1  0  0  0  0
 23 28  1  0  0  0  0
 23115  1  1  0  0  0
 24 25  1  0  0  0  0
 24116  1  0  0  0  0
 25 26  1  0  0  0  0
 25117  1  0  0  0  0
 25118  1  0  0  0  0
 26 27  1  0  0  0  0
 26119  1  0  0  0  0
 26120  1  0  0  0  0
 27121  1  0  0  0  0
 27122  1  0  0  0  0
 28 29  1  0  0  0  0
 28123  1  0  0  0  0
 29 30  2  0  0  0  0
 31 29  1  0  0  0  0
 31 32  1  0  0  0  0
 31124  1  6  0  0  0
 32 33  1  0  0  0  0
 32 34  1  0  0  0  0
 32125  1  1  0  0  0
 33126  1  0  0  0  0
 34 35  1  0  0  0  0
 34127  1  0  0  0  0
 34128  1  0  0  0  0
 35 36  1  0  0  0  0
 35129  1  0  0  0  0
 35130  1  0  0  0  0
 36 37  1  0  0  0  0
 36 31  1  0  0  0  0
 37 38  2  0  0  0  0
 37 39  1  0  0  0  0
 39 40  1  0  0  0  0
 39 45  1  0  0  0  0
 39131  1  6  0  0  0
 40 41  1  0  0  0  0
 40 42  1  0  0  0  0
 40132  1  6  0  0  0
 41133  1  0  0  0  0
 42 43  1  0  0  0  0
 42134  1  0  0  0  0
 42135  1  0  0  0  0
 43 44  1  0  0  0  0
 43136  1  0  0  0  0
 43137  1  0  0  0  0
 44138  1  0  0  0  0
 44139  1  0  0  0  0
 45 46  1  0  0  0  0
 45140  1  0  0  0  0
 46 47  2  0  0  0  0
 46 48  1  0  0  0  0
 48 49  1  0  0  0  0
 48 60  1  0  0  0  0
 48141  1  6  0  0  0
 49 50  1  0  0  0  0
 49 51  1  0  0  0  0
 49142  1  6  0  0  0
 50143  1  0  0  0  0
 51 52  1  0  0  0  0
 51 53  1  0  0  0  0
 51144  1  6  0  0  0
 52145  1  0  0  0  0
 53 54  2  0  0  0  0
 54 55  1  0  0  0  0
 54146  1  0  0  0  0
 55 56  2  0  0  0  0
 55147  1  0  0  0  0
 56 57  1  0  0  0  0
 56 58  1  0  0  0  0
 57148  1  0  0  0  0
 58 59  2  0  0  0  0
 58149  1  0  0  0  0
 59 53  1  0  0  0  0
 59150  1  0  0  0  0
 60 61  1  0  0  0  0
 60151  1  0  0  0  0
 61 62  2  0  0  0  0
 61 63  1  0  0  0  0
 63 64  1  0  0  0  0
 63152  1  6  0  0  0
 64 65  1  0  0  0  0
 64153  1  0  0  0  0
 64154  1  0  0  0  0
 65 66  1  0  0  0  0
 65 67  1  0  0  0  0
 65155  1  6  0  0  0
 66156  1  0  0  0  0
 67 68  1  0  0  0  0
 67157  1  0  0  0  0
 67158  1  0  0  0  0
 68 69  1  0  0  0  0
 68 63  1  0  0  0  0
 69 70  2  0  0  0  0
 69 71  1  0  0  0  0
 71 72  1  0  0  0  0
 71 75  1  0  0  0  0
 71159  1  6  0  0  0
 72 73  1  0  0  0  0
 72 74  1  0  0  0  0
 72160  1  6  0  0  0
 73161  1  0  0  0  0
 73162  1  0  0  0  0
 73163  1  0  0  0  0
 74164  1  0  0  0  0
 75 76  1  0  0  0  0
 75165  1  0  0  0  0
 76 77  2  0  0  0  0
 76 19  1  0  0  0  0
M  END
>  <IDENTIFIER>
CNP0416522.2

>  <Energy>
1439.04

$$$$
