
 OpenBabel09122514013D

 68 73  0  0  0  0  0  0  0  0999 V2000
    3.2238   -4.4934    4.5360 C   0  0  0  0  0  0  0  0  0  0  0  0
    3.3625   -3.7256    3.2574 C   0  0  0  0  0  0  0  0  0  0  0  0
    3.1822   -4.2949    2.1901 O   0  0  0  0  0  0  0  0  0  0  0  0
    3.7048   -2.2563    3.3126 C   0  0  0  0  0  0  0  0  0  0  0  0
    3.7898   -1.6117    1.9562 C   0  0  0  0  0  0  0  0  0  0  0  0
    4.7606   -1.9919    1.0312 C   0  0  0  0  0  0  0  0  0  0  0  0
    4.8067   -1.3610   -0.2137 C   0  0  0  0  0  0  0  0  0  0  0  0
    5.6686   -1.7203   -0.9917 O   0  0  0  0  0  0  0  0  0  0  0  0
    3.8652   -0.3369   -0.5321 C   0  0  0  0  0  0  0  0  0  0  0  0
    3.8061    0.3868   -1.7725 C   0  0  0  0  0  0  0  0  0  0  0  0
    4.6793    0.1419   -2.7723 O   0  0  0  0  0  0  0  0  0  0  0  0
    2.8051    1.3972   -1.9749 C   0  0  0  0  0  0  0  0  0  0  0  0
    2.6755    2.1722   -3.1830 C   0  0  0  0  0  0  0  0  0  0  0  0
    3.4650    2.0625   -4.2785 O   0  0  0  0  0  0  0  0  0  0  0  0
    1.6698    3.1351   -3.2904 C   0  0  0  0  0  0  0  0  0  0  0  0
    0.7725    3.3756   -2.2572 C   0  0  0  0  0  0  0  0  0  0  0  0
   -0.1881    4.3154   -2.3990 O   0  0  0  0  0  0  0  0  0  0  0  0
    0.8648    2.6437   -1.0715 C   0  0  0  0  0  0  0  0  0  0  0  0
   -0.1184    2.9322    0.0113 C   0  0  0  0  0  0  0  0  0  0  0  0
    0.1762    3.9436    0.9415 C   0  0  0  0  0  0  0  0  0  0  0  0
    1.3242    4.6570    0.8892 O   0  0  0  0  0  0  0  0  0  0  0  0
   -0.7246    4.2307    1.9541 C   0  0  0  0  0  0  0  0  0  0  0  0
   -1.9364    3.5428    2.0765 C   0  0  0  0  0  0  0  0  0  0  0  0
   -2.7471    3.8966    3.0921 O   0  0  0  0  0  0  0  0  0  0  0  0
   -2.2807    2.5110    1.1496 C   0  0  0  0  0  0  0  0  0  0  0  0
   -3.5155    1.7697    1.1972 C   0  0  0  0  0  0  0  0  0  0  0  0
   -4.4772    1.9775    2.1299 O   0  0  0  0  0  0  0  0  0  0  0  0
   -3.7762    0.7629    0.2281 C   0  0  0  0  0  0  0  0  0  0  0  0
   -2.8187    0.4798   -0.7645 C   0  0  0  0  0  0  0  0  0  0  0  0
   -1.6305    1.1919   -0.8161 C   0  0  0  0  0  0  0  0  0  0  0  0
   -1.3406    2.2097    0.1120 C   0  0  0  0  0  0  0  0  0  0  0  0
   -3.0394   -0.4665   -1.6750 O   0  0  0  0  0  0  0  0  0  0  0  0
   -4.1589   -1.1812   -1.7265 C   0  0  0  0  0  0  0  0  0  0  0  0
   -4.3331   -2.2185   -2.8054 C   0  0  0  0  0  0  0  0  0  0  0  0
   -3.4095   -3.4397   -2.6295 C   0  0  2  0  0  0  0  0  0  0  0  0
   -3.7557   -4.2449   -1.3644 C   0  0  0  0  0  0  0  0  0  0  0  0
   -2.0522   -3.0680   -2.6537 O   0  0  0  0  0  0  0  0  0  0  0  0
   -5.1703   -0.9522   -0.7916 C   0  0  0  0  0  0  0  0  0  0  0  0
   -4.9800    0.0122    0.1963 C   0  0  0  0  0  0  0  0  0  0  0  0
   -5.8689    0.1921    1.0112 O   0  0  0  0  0  0  0  0  0  0  0  0
    1.8750    1.6590   -0.9210 C   0  0  0  0  0  0  0  0  0  0  0  0
    1.9594    0.9407    0.2771 C   0  0  0  0  0  0  0  0  0  0  0  0
    2.9224   -0.0287    0.4757 C   0  0  0  0  0  0  0  0  0  0  0  0
    2.9270   -0.6583    1.6456 O   0  0  0  0  0  0  0  0  0  0  0  0
    2.9600   -5.5529    4.3318 H   0  0  0  0  0  0  0  0  0  0  0  0
    2.4228   -4.0395    5.1567 H   0  0  0  0  0  0  0  0  0  0  0  0
    4.1814   -4.4624    5.0960 H   0  0  0  0  0  0  0  0  0  0  0  0
    4.6732   -2.1175    3.8391 H   0  0  0  0  0  0  0  0  0  0  0  0
    2.9121   -1.7470    3.9021 H   0  0  0  0  0  0  0  0  0  0  0  0
    5.4746   -2.7696    1.2786 H   0  0  0  0  0  0  0  0  0  0  0  0
    5.4020   -0.4894   -2.8010 H   0  0  0  0  0  0  0  0  0  0  0  0
    4.2124    1.4819   -4.4343 H   0  0  0  0  0  0  0  0  0  0  0  0
    1.5861    3.7105   -4.2052 H   0  0  0  0  0  0  0  0  0  0  0  0
   -0.2828    4.8423   -3.2053 H   0  0  0  0  0  0  0  0  0  0  0  0
    2.0111    4.5244    0.2220 H   0  0  0  0  0  0  0  0  0  0  0  0
   -0.4778    5.0118    2.6640 H   0  0  0  0  0  0  0  0  0  0  0  0
   -2.5247    4.5910    3.7292 H   0  0  0  0  0  0  0  0  0  0  0  0
   -4.4926    2.5994    2.8590 H   0  0  0  0  0  0  0  0  0  0  0  0
   -0.9348    0.9394   -1.6064 H   0  0  0  0  0  0  0  0  0  0  0  0
   -4.1467   -1.7347   -3.7884 H   0  0  0  0  0  0  0  0  0  0  0  0
   -5.3805   -2.5922   -2.8164 H   0  0  0  0  0  0  0  0  0  0  0  0
   -3.5850   -4.1185   -3.4920 H   0  0  0  0  0  0  0  0  0  0  0  0
   -3.6090   -3.6343   -0.4484 H   0  0  0  0  0  0  0  0  0  0  0  0
   -3.1105   -5.1462   -1.3007 H   0  0  0  0  0  0  0  0  0  0  0  0
   -4.8162   -4.5759   -1.4030 H   0  0  0  0  0  0  0  0  0  0  0  0
   -1.8072   -2.7287   -1.7536 H   0  0  0  0  0  0  0  0  0  0  0  0
   -6.0905   -1.5246   -0.8234 H   0  0  0  0  0  0  0  0  0  0  0  0
    1.2686    1.1237    1.0907 H   0  0  0  0  0  0  0  0  0  0  0  0
  1  2  1  0  0  0  0
  1 45  1  0  0  0  0
  1 46  1  0  0  0  0
  1 47  1  0  0  0  0
  2  3  2  0  0  0  0
  2  4  1  0  0  0  0
  4  5  1  0  0  0  0
  4 48  1  0  0  0  0
  4 49  1  0  0  0  0
  5  6  2  0  0  0  0
  6  7  1  0  0  0  0
  6 50  1  0  0  0  0
  7  8  2  0  0  0  0
  7  9  1  0  0  0  0
  9 10  2  0  0  0  0
 10 11  1  0  0  0  0
 10 12  1  0  0  0  0
 11 51  1  0  0  0  0
 12 13  2  0  0  0  0
 13 14  1  0  0  0  0
 13 15  1  0  0  0  0
 14 52  1  0  0  0  0
 15 16  2  0  0  0  0
 15 53  1  0  0  0  0
 16 17  1  0  0  0  0
 16 18  1  0  0  0  0
 17 54  1  0  0  0  0
 18 19  1  0  0  0  0
 18 41  2  0  0  0  0
 19 20  2  0  0  0  0
 20 21  1  0  0  0  0
 20 22  1  0  0  0  0
 21 55  1  0  0  0  0
 22 23  2  0  0  0  0
 22 56  1  0  0  0  0
 23 24  1  0  0  0  0
 23 25  1  0  0  0  0
 24 57  1  0  0  0  0
 25 26  2  0  0  0  0
 26 27  1  0  0  0  0
 26 28  1  0  0  0  0
 27 58  1  0  0  0  0
 28 29  2  0  0  0  0
 29 30  1  0  0  0  0
 29 32  1  0  0  0  0
 30 31  2  0  0  0  0
 30 59  1  0  0  0  0
 31 19  1  0  0  0  0
 31 25  1  0  0  0  0
 32 33  1  0  0  0  0
 33 34  1  0  0  0  0
 33 38  2  0  0  0  0
 34 35  1  0  0  0  0
 34 60  1  0  0  0  0
 34 61  1  0  0  0  0
 35 36  1  0  0  0  0
 35 37  1  0  0  0  0
 35 62  1  6  0  0  0
 36 63  1  0  0  0  0
 36 64  1  0  0  0  0
 36 65  1  0  0  0  0
 37 66  1  0  0  0  0
 38 39  1  0  0  0  0
 38 67  1  0  0  0  0
 39 40  2  0  0  0  0
 39 28  1  0  0  0  0
 41 42  1  0  0  0  0
 41 12  1  0  0  0  0
 42 43  2  0  0  0  0
 42 68  1  0  0  0  0
 43 44  1  0  0  0  0
 43  9  1  0  0  0  0
 44  5  1  0  0  0  0
M  END
>  <IDENTIFIER>
CNP0251923.1

>  <Energy>
692.031

$$$$
