
 OpenBabel09132502323D

 36 37  0  0  0  0  0  0  0  0999 V2000
    0.7440   -2.0719    0.2683 O   0  0  0  0  0  0  0  0  0  0  0  0
    1.1198   -0.9294    0.0406 C   0  0  0  0  0  0  0  0  0  0  0  0
    0.1918    0.0496   -0.1873 N   0  0  0  0  0  0  0  0  0  0  0  0
   -1.2513   -0.1795   -0.1524 C   0  0  2  0  0  0  0  0  0  0  0  0
   -1.8105    0.1861   -1.5479 C   0  0  0  0  0  0  0  0  0  0  0  0
   -3.2605    0.3841   -1.6581 N   0  0  0  0  0  0  0  0  0  0  0  0
   -4.1208   -0.4949   -0.8701 C   0  0  0  0  0  0  0  0  0  0  0  0
   -4.3933    0.1543    0.4856 C   0  0  0  0  0  0  0  0  0  0  0  0
   -3.2329    0.0685    1.4755 C   0  0  0  0  0  0  0  0  0  0  0  0
   -1.8655    0.6311    1.0224 C   0  0  1  0  0  0  0  0  0  0  0  0
   -1.0025    0.5807    2.1357 O   0  0  0  0  0  0  0  0  0  0  0  0
    2.5951   -0.6487    0.0535 C   0  0  0  0  0  0  0  0  0  0  0  0
    3.4899   -1.6894    0.3840 C   0  0  0  0  0  0  0  0  0  0  0  0
    4.8689   -1.4667    0.4262 C   0  0  0  0  0  0  0  0  0  0  0  0
    5.3873   -0.2000    0.1357 C   0  0  0  0  0  0  0  0  0  0  0  0
    6.7152    0.0307    0.1770 O   0  0  0  0  0  0  0  0  0  0  0  0
    4.5181    0.8391   -0.1995 C   0  0  0  0  0  0  0  0  0  0  0  0
    3.1371    0.6236   -0.2409 C   0  0  0  0  0  0  0  0  0  0  0  0
    0.4900    1.0172   -0.3616 H   0  0  0  0  0  0  0  0  0  0  0  0
   -1.4638   -1.2520    0.0516 H   0  0  0  0  0  0  0  0  0  0  0  0
   -1.4689   -0.5874   -2.2721 H   0  0  0  0  0  0  0  0  0  0  0  0
   -1.3579    1.1498   -1.8675 H   0  0  0  0  0  0  0  0  0  0  0  0
   -3.5161    0.3218   -2.6718 H   0  0  0  0  0  0  0  0  0  0  0  0
   -3.7346   -1.5349   -0.7989 H   0  0  0  0  0  0  0  0  0  0  0  0
   -5.1068   -0.5415   -1.3850 H   0  0  0  0  0  0  0  0  0  0  0  0
   -5.2536   -0.3662    0.9611 H   0  0  0  0  0  0  0  0  0  0  0  0
   -4.6876    1.2155    0.3275 H   0  0  0  0  0  0  0  0  0  0  0  0
   -3.0944   -0.9998    1.7558 H   0  0  0  0  0  0  0  0  0  0  0  0
   -3.5497    0.6098    2.3941 H   0  0  0  0  0  0  0  0  0  0  0  0
   -1.9490    1.7017    0.7351 H   0  0  0  0  0  0  0  0  0  0  0  0
   -0.8596   -0.3739    2.3735 H   0  0  0  0  0  0  0  0  0  0  0  0
    3.1249   -2.6813    0.6195 H   0  0  0  0  0  0  0  0  0  0  0  0
    5.5333   -2.2807    0.6883 H   0  0  0  0  0  0  0  0  0  0  0  0
    7.3503   -0.6609    0.4119 H   0  0  0  0  0  0  0  0  0  0  0  0
    4.9132    1.8215   -0.4269 H   0  0  0  0  0  0  0  0  0  0  0  0
    2.5228    1.4682   -0.5052 H   0  0  0  0  0  0  0  0  0  0  0  0
  1  2  2  0  0  0  0
  2  3  1  0  0  0  0
  2 12  1  0  0  0  0
  3 19  1  0  0  0  0
  4  3  1  0  0  0  0
  4  5  1  0  0  0  0
  4 20  1  1  0  0  0
  5  6  1  0  0  0  0
  5 21  1  0  0  0  0
  5 22  1  0  0  0  0
  6  7  1  0  0  0  0
  6 23  1  0  0  0  0
  7  8  1  0  0  0  0
  7 24  1  0  0  0  0
  7 25  1  0  0  0  0
  8  9  1  0  0  0  0
  8 26  1  0  0  0  0
  8 27  1  0  0  0  0
  9 10  1  0  0  0  0
  9 28  1  0  0  0  0
  9 29  1  0  0  0  0
 10 11  1  0  0  0  0
 10  4  1  0  0  0  0
 10 30  1  6  0  0  0
 11 31  1  0  0  0  0
 12 13  2  0  0  0  0
 13 14  1  0  0  0  0
 13 32  1  0  0  0  0
 14 15  2  0  0  0  0
 14 33  1  0  0  0  0
 15 16  1  0  0  0  0
 15 17  1  0  0  0  0
 16 34  1  0  0  0  0
 17 18  2  0  0  0  0
 17 35  1  0  0  0  0
 18 12  1  0  0  0  0
 18 36  1  0  0  0  0
M  END
>  <IDENTIFIER>
CNP0436983.1

>  <Energy>
276.725

$$$$
