
 OpenBabel09072507493D

 94 96  0  0  0  0  0  0  0  0999 V2000
   -4.5343    4.2431    0.2911 C   0  0  0  0  0  0  0  0  0  0  0  0
   -4.0963    3.0975    0.9870 O   0  0  0  0  0  0  0  0  0  0  0  0
   -4.3234    1.9237    0.2215 C   0  0  2  0  0  0  0  0  0  0  0  0
   -5.4146    1.0816    0.8929 C   0  0  0  0  0  0  0  0  0  0  0  0
   -5.7230   -0.1477    0.0319 C   0  0  2  0  0  0  0  0  0  0  0  0
   -6.7334   -0.8696    0.6477 O   0  0  0  0  0  0  0  0  0  0  0  0
   -7.9867   -1.0856    0.1780 C   0  0  0  0  0  0  0  0  0  0  0  0
   -8.8618   -1.7804    0.9391 N   0  0  0  0  0  0  0  0  0  0  0  0
   -8.3351   -0.6537   -0.9110 O   0  0  0  0  0  0  0  0  0  0  0  0
   -4.4796   -1.0556   -0.2135 C   0  0  2  0  0  0  0  0  0  0  0  0
   -4.2775   -2.1346    0.8347 C   0  0  0  0  0  0  0  0  0  0  0  0
   -3.0846   -2.4990    1.3171 C   0  0  0  0  0  0  0  0  0  0  0  0
   -1.8021   -1.7830    0.9661 C   0  0  2  0  0  0  0  0  0  0  0  0
   -1.5787   -0.8771    2.1581 C   0  0  0  0  0  0  0  0  0  0  0  0
   -0.4973   -0.3585    2.7980 C   0  0  0  0  0  0  0  0  0  0  0  0
   -0.8460    0.5473    3.9831 C   0  0  0  0  0  0  0  0  0  0  0  0
    1.0047   -0.4677    2.6238 C   0  0  0  0  0  0  0  0  0  0  0  0
    2.0322   -1.0497    1.9408 C   0  0  0  0  0  0  0  0  0  0  0  0
    2.4226   -2.0477    0.8476 C   0  0  1  0  0  0  0  0  0  0  0  0
    1.3916   -3.0031    0.2878 C   0  0  0  0  0  0  0  0  0  0  0  0
    3.3438   -1.4463   -0.2837 C   0  0  2  0  0  0  0  0  0  0  0  0
    4.3646   -0.4392    0.2792 C   0  0  0  0  0  0  0  0  0  0  0  0
    3.8905    0.9602    0.6219 C   0  0  0  0  0  0  0  0  0  0  0  0
    5.6589   -0.8058    0.4381 C   0  0  0  0  0  0  0  0  0  0  0  0
    6.7430    0.0799    1.0318 C   0  0  1  0  0  0  0  0  0  0  0  0
    8.0691   -0.6798    1.1023 C   0  0  0  0  0  0  0  0  0  0  0  0
    6.9328    1.2868    0.2402 N   0  0  0  0  0  0  0  0  0  0  0  0
    6.8100    2.5448    0.7581 C   0  0  0  0  0  0  0  0  0  0  0  0
    7.0118    3.7526   -0.1064 C   0  0  0  0  0  0  0  0  0  0  0  0
    6.5286    2.7102    1.9377 O   0  0  0  0  0  0  0  0  0  0  0  0
    2.6906   -0.8853   -1.3978 O   0  0  0  0  0  0  0  0  0  0  0  0
    3.4318   -0.5086   -2.4946 C   0  0  0  0  0  0  0  0  0  0  0  0
    4.6374   -0.7330   -2.4789 O   0  0  0  0  0  0  0  0  0  0  0  0
    2.9675    0.1496   -3.7611 C   0  0  0  0  0  0  0  0  0  0  0  0
    1.8472    0.5685   -4.4079 C   0  0  0  0  0  0  0  0  0  0  0  0
    0.3616    0.6411   -4.2574 C   0  0  0  0  0  0  0  0  0  0  0  0
   -0.5097    0.4627   -3.2384 C   0  0  0  0  0  0  0  0  0  0  0  0
   -1.9735    0.6471   -3.5899 C   0  0  0  0  0  0  0  0  0  0  0  0
   -0.0312    0.2349   -1.8510 C   0  0  0  0  0  0  0  0  0  0  0  0
   -0.5786   -0.3545   -0.7549 C   0  0  0  0  0  0  0  0  0  0  0  0
   -1.8872   -1.1282   -0.4904 C   0  0  1  0  0  0  0  0  0  0  0  0
   -1.9622   -2.3181   -1.4999 C   0  0  0  0  0  0  0  0  0  0  0  0
   -3.1894   -0.2337   -0.5824 C   0  0  2  0  0  0  0  0  0  0  0  0
   -3.0361    1.1084    0.1983 C   0  0  0  0  0  0  0  0  0  0  0  0
   -4.3546    5.1322    0.9295 H   0  0  0  0  0  0  0  0  0  0  0  0
   -5.6271    4.1940    0.0890 H   0  0  0  0  0  0  0  0  0  0  0  0
   -3.9508    4.3886   -0.6454 H   0  0  0  0  0  0  0  0  0  0  0  0
   -4.6196    2.1411   -0.8362 H   0  0  0  0  0  0  0  0  0  0  0  0
   -6.3388    1.6934    0.9811 H   0  0  0  0  0  0  0  0  0  0  0  0
   -5.0989    0.7777    1.9165 H   0  0  0  0  0  0  0  0  0  0  0  0
   -6.0521    0.2469   -0.9571 H   0  0  0  0  0  0  0  0  0  0  0  0
   -8.5732   -2.1402    1.8611 H   0  0  0  0  0  0  0  0  0  0  0  0
   -9.8236   -1.9531    0.6138 H   0  0  0  0  0  0  0  0  0  0  0  0
   -4.7581   -1.6819   -1.0899 H   0  0  0  0  0  0  0  0  0  0  0  0
   -5.1383   -2.7156    1.1528 H   0  0  0  0  0  0  0  0  0  0  0  0
   -3.0472   -3.2965    2.0549 H   0  0  0  0  0  0  0  0  0  0  0  0
   -1.0334   -2.5583    1.0052 H   0  0  0  0  0  0  0  0  0  0  0  0
   -2.5282   -0.6021    2.6196 H   0  0  0  0  0  0  0  0  0  0  0  0
   -1.9323    0.6802    4.1764 H   0  0  0  0  0  0  0  0  0  0  0  0
   -0.4314    1.5631    3.8081 H   0  0  0  0  0  0  0  0  0  0  0  0
   -0.4033    0.1306    4.9127 H   0  0  0  0  0  0  0  0  0  0  0  0
    1.4513    0.1936    3.3700 H   0  0  0  0  0  0  0  0  0  0  0  0
    2.9720   -0.7017    2.3646 H   0  0  0  0  0  0  0  0  0  0  0  0
    3.0947   -2.7255    1.4254 H   0  0  0  0  0  0  0  0  0  0  0  0
    0.7117   -2.4715   -0.3747 H   0  0  0  0  0  0  0  0  0  0  0  0
    0.8748   -3.5310    1.1149 H   0  0  0  0  0  0  0  0  0  0  0  0
    1.8939   -3.7783   -0.3302 H   0  0  0  0  0  0  0  0  0  0  0  0
    3.8825   -2.3474   -0.6630 H   0  0  0  0  0  0  0  0  0  0  0  0
    2.8010    1.0697    0.4383 H   0  0  0  0  0  0  0  0  0  0  0  0
    4.3909    1.7009   -0.0305 H   0  0  0  0  0  0  0  0  0  0  0  0
    4.0963    1.1998    1.6860 H   0  0  0  0  0  0  0  0  0  0  0  0
    5.9418   -1.8171    0.1558 H   0  0  0  0  0  0  0  0  0  0  0  0
    6.4476    0.3250    2.0759 H   0  0  0  0  0  0  0  0  0  0  0  0
    8.4077   -0.9693    0.0839 H   0  0  0  0  0  0  0  0  0  0  0  0
    7.9560   -1.5960    1.7204 H   0  0  0  0  0  0  0  0  0  0  0  0
    8.8465   -0.0367    1.5676 H   0  0  0  0  0  0  0  0  0  0  0  0
    7.1845    1.1780   -0.7545 H   0  0  0  0  0  0  0  0  0  0  0  0
    7.2577    3.4680   -1.1506 H   0  0  0  0  0  0  0  0  0  0  0  0
    7.8424    4.3666    0.3015 H   0  0  0  0  0  0  0  0  0  0  0  0
    6.0823    4.3603   -0.1138 H   0  0  0  0  0  0  0  0  0  0  0  0
    3.8422    0.3325   -4.3890 H   0  0  0  0  0  0  0  0  0  0  0  0
    2.0969    0.9633   -5.3939 H   0  0  0  0  0  0  0  0  0  0  0  0
   -0.0803    0.8918   -5.2198 H   0  0  0  0  0  0  0  0  0  0  0  0
   -2.1387    0.9363   -4.6498 H   0  0  0  0  0  0  0  0  0  0  0  0
   -2.3865    1.4806   -2.9851 H   0  0  0  0  0  0  0  0  0  0  0  0
   -2.5620   -0.2705   -3.4836 H   0  0  0  0  0  0  0  0  0  0  0  0
    0.9597    0.6368   -1.6928 H   0  0  0  0  0  0  0  0  0  0  0  0
    0.0882   -0.3134    0.0935 H   0  0  0  0  0  0  0  0  0  0  0  0
   -1.9531   -2.0026   -2.5499 H   0  0  0  0  0  0  0  0  0  0  0  0
   -2.8636   -2.9446   -1.3561 H   0  0  0  0  0  0  0  0  0  0  0  0
   -1.1020   -3.0035   -1.3931 H   0  0  0  0  0  0  0  0  0  0  0  0
   -3.3907    0.1062   -1.5976 H   0  0  0  0  0  0  0  0  0  0  0  0
   -2.2317    1.7169   -0.2696 H   0  0  0  0  0  0  0  0  0  0  0  0
   -2.7654    0.9840    1.2453 H   0  0  0  0  0  0  0  0  0  0  0  0
  1  2  1  0  0  0  0
  1 45  1  0  0  0  0
  1 46  1  0  0  0  0
  1 47  1  0  0  0  0
  3  2  1  0  0  0  0
  3  4  1  0  0  0  0
  3 48  1  6  0  0  0
  4  5  1  0  0  0  0
  4 49  1  0  0  0  0
  4 50  1  0  0  0  0
  5  6  1  0  0  0  0
  5 10  1  0  0  0  0
  5 51  1  6  0  0  0
  6  7  1  0  0  0  0
  7  8  1  0  0  0  0
  7  9  2  0  0  0  0
  8 52  1  0  0  0  0
  8 53  1  0  0  0  0
 10 11  1  0  0  0  0
 10 54  1  6  0  0  0
 11 12  2  0  0  0  0
 11 55  1  0  0  0  0
 12 56  1  0  0  0  0
 13 12  1  0  0  0  0
 13 14  1  0  0  0  0
 13 57  1  6  0  0  0
 14 15  2  3  0  0  0
 14 58  1  0  0  0  0
 15 16  1  0  0  0  0
 15 17  1  0  0  0  0
 16 59  1  0  0  0  0
 16 60  1  0  0  0  0
 16 61  1  0  0  0  0
 17 18  2  0  0  0  0
 17 62  1  0  0  0  0
 18 19  1  0  0  0  0
 18 63  1  0  0  0  0
 19 20  1  0  0  0  0
 19 21  1  0  0  0  0
 19 64  1  1  0  0  0
 20 65  1  0  0  0  0
 20 66  1  0  0  0  0
 20 67  1  0  0  0  0
 21 22  1  0  0  0  0
 21 31  1  0  0  0  0
 21 68  1  6  0  0  0
 22 23  1  0  0  0  0
 22 24  2  0  0  0  0
 23 69  1  0  0  0  0
 23 70  1  0  0  0  0
 23 71  1  0  0  0  0
 24 25  1  0  0  0  0
 24 72  1  0  0  0  0
 25 26  1  0  0  0  0
 25 27  1  0  0  0  0
 25 73  1  1  0  0  0
 26 74  1  0  0  0  0
 26 75  1  0  0  0  0
 26 76  1  0  0  0  0
 27 28  1  0  0  0  0
 27 77  1  0  0  0  0
 28 29  1  0  0  0  0
 28 30  2  0  0  0  0
 29 78  1  0  0  0  0
 29 79  1  0  0  0  0
 29 80  1  0  0  0  0
 31 32  1  0  0  0  0
 32 33  2  0  0  0  0
 32 34  1  0  0  0  0
 34 35  2  0  0  0  0
 34 81  1  0  0  0  0
 35 36  1  0  0  0  0
 35 82  1  0  0  0  0
 36 37  2  0  0  0  0
 36 83  1  0  0  0  0
 37 38  1  0  0  0  0
 37 39  1  0  0  0  0
 38 84  1  0  0  0  0
 38 85  1  0  0  0  0
 38 86  1  0  0  0  0
 39 40  2  0  0  0  0
 39 87  1  0  0  0  0
 40 41  1  0  0  0  0
 40 88  1  0  0  0  0
 41 42  1  6  0  0  0
 41 43  1  0  0  0  0
 41 13  1  0  0  0  0
 42 89  1  0  0  0  0
 42 90  1  0  0  0  0
 42 91  1  0  0  0  0
 43 44  1  0  0  0  0
 43 10  1  0  0  0  0
 43 92  1  6  0  0  0
 44  3  1  0  0  0  0
 44 93  1  0  0  0  0
 44 94  1  0  0  0  0
M  END
>  <IDENTIFIER>
CNP0480314.1

>  <Energy>
1313.06

$$$$
