
 OpenBabel09072505203D

 74 79  0  0  0  0  0  0  0  0999 V2000
   -6.9906   -0.2842   -0.9687 C   0  0  0  0  0  0  0  0  0  0  0  0
   -5.7529    0.4916   -0.5861 C   0  0  0  0  0  0  0  0  0  0  0  0
   -5.4952    0.6860    0.7328 C   0  0  0  0  0  0  0  0  0  0  0  0
   -4.2828    1.3932    1.2948 C   0  0  1  0  0  0  0  0  0  0  0  0
   -4.7159    2.6024    2.1257 C   0  0  0  0  0  0  0  0  0  0  0  0
   -3.4333    0.4191    2.1428 C   0  0  0  0  0  0  0  0  0  0  0  0
   -3.0996   -0.8606    1.3873 C   0  0  0  0  0  0  0  0  0  0  0  0
   -1.9081   -1.1840    0.8381 C   0  0  0  0  0  0  0  0  0  0  0  0
   -0.7037   -0.2766    0.8345 C   0  0  1  0  0  0  0  0  0  0  0  0
   -0.0460   -0.3037    2.2380 C   0  0  2  0  0  0  0  0  0  0  0  0
    1.1497    0.4664    2.2752 O   0  0  0  0  0  0  0  0  0  0  0  0
    1.2702   -0.9289    2.4138 C   0  0  1  0  0  0  0  0  0  0  0  0
    1.6651   -1.3545    3.8293 C   0  0  0  0  0  0  0  0  0  0  0  0
    1.8433   -1.6659    1.1967 C   0  0  1  0  0  0  0  0  0  0  0  0
    1.2172   -3.0747    1.1011 C   0  0  0  0  0  0  0  0  0  0  0  0
    1.7233   -0.7682   -0.0765 C   0  0  1  0  0  0  0  0  0  0  0  0
    2.2898   -1.5263   -1.2998 C   0  0  2  0  0  0  0  0  0  0  0  0
    3.1992   -0.6615   -2.1991 C   0  0  0  0  0  0  0  0  0  0  0  0
    4.5254   -0.4859   -1.5027 C   0  0  0  0  0  0  0  0  0  0  0  0
    5.4752   -1.4953   -1.3452 C   0  0  0  0  0  0  0  0  0  0  0  0
    6.5345   -1.0401   -0.6433 N   0  0  0  0  0  0  0  0  0  0  0  0
    6.2625    0.2403   -0.3413 C   0  0  0  0  0  0  0  0  0  0  0  0
    7.0555    1.1112    0.4069 C   0  0  0  0  0  0  0  0  0  0  0  0
    6.5678    2.4089    0.6343 C   0  0  0  0  0  0  0  0  0  0  0  0
    5.3185    2.8053    0.1082 C   0  0  0  0  0  0  0  0  0  0  0  0
    4.5446    1.9073   -0.6510 C   0  0  0  0  0  0  0  0  0  0  0  0
    5.0480    0.6207   -0.8544 C   0  0  0  0  0  0  0  0  0  0  0  0
    1.1107   -1.9747   -1.9752 N   0  0  0  0  0  0  0  0  0  0  0  0
    0.0264   -1.4467   -1.5325 C   0  0  0  0  0  0  0  0  0  0  0  0
   -1.1393   -1.7438   -2.1226 O   0  0  0  0  0  0  0  0  0  0  0  0
    0.2306   -0.3752   -0.4670 C   0  0  1  0  0  0  0  0  0  0  0  0
    0.1568    0.9954   -1.1914 C   0  0  0  0  0  0  0  0  0  0  0  0
    1.1969    1.6271   -1.2617 O   0  0  0  0  0  0  0  0  0  0  0  0
   -1.0360    1.7721   -1.7156 C   0  0  0  0  0  0  0  0  0  0  0  0
   -2.3857    1.6612   -1.8810 C   0  0  0  0  0  0  0  0  0  0  0  0
   -3.4303    0.6079   -1.6747 C   0  0  0  0  0  0  0  0  0  0  0  0
   -3.1608   -0.5622   -1.5291 O   0  0  0  0  0  0  0  0  0  0  0  0
   -4.8895    1.0147   -1.7331 C   0  0  0  0  0  0  0  0  0  0  0  0
   -7.5755   -0.6206   -0.0853 H   0  0  0  0  0  0  0  0  0  0  0  0
   -6.7039   -1.1810   -1.5558 H   0  0  0  0  0  0  0  0  0  0  0  0
   -7.6501    0.3597   -1.5887 H   0  0  0  0  0  0  0  0  0  0  0  0
   -6.1833    0.2777    1.4681 H   0  0  0  0  0  0  0  0  0  0  0  0
   -3.6411    1.7868    0.4914 H   0  0  0  0  0  0  0  0  0  0  0  0
   -5.3535    2.2874    2.9790 H   0  0  0  0  0  0  0  0  0  0  0  0
   -5.2881    3.3125    1.4905 H   0  0  0  0  0  0  0  0  0  0  0  0
   -3.8229    3.1329    2.5210 H   0  0  0  0  0  0  0  0  0  0  0  0
   -3.9692    0.1218    3.0701 H   0  0  0  0  0  0  0  0  0  0  0  0
   -2.5310    0.9713    2.4650 H   0  0  0  0  0  0  0  0  0  0  0  0
   -3.9130   -1.5677    1.2488 H   0  0  0  0  0  0  0  0  0  0  0  0
   -1.8559   -2.1266    0.3062 H   0  0  0  0  0  0  0  0  0  0  0  0
   -1.1328    0.7451    0.8012 H   0  0  0  0  0  0  0  0  0  0  0  0
   -0.6462   -0.0809    3.1447 H   0  0  0  0  0  0  0  0  0  0  0  0
    2.7701   -1.3082    3.9293 H   0  0  0  0  0  0  0  0  0  0  0  0
    1.3262   -2.3904    4.0296 H   0  0  0  0  0  0  0  0  0  0  0  0
    1.2206   -0.6822    4.5945 H   0  0  0  0  0  0  0  0  0  0  0  0
    2.9334   -1.8069    1.3756 H   0  0  0  0  0  0  0  0  0  0  0  0
    0.1260   -3.0268    0.9504 H   0  0  0  0  0  0  0  0  0  0  0  0
    1.4109   -3.6393    2.0363 H   0  0  0  0  0  0  0  0  0  0  0  0
    1.6548   -3.6729    0.2793 H   0  0  0  0  0  0  0  0  0  0  0  0
    2.3451    0.1147    0.1885 H   0  0  0  0  0  0  0  0  0  0  0  0
    2.8929   -2.4134   -1.0113 H   0  0  0  0  0  0  0  0  0  0  0  0
    2.7279    0.3050   -2.4343 H   0  0  0  0  0  0  0  0  0  0  0  0
    3.3957   -1.1667   -3.1686 H   0  0  0  0  0  0  0  0  0  0  0  0
    5.3901   -2.5060   -1.7228 H   0  0  0  0  0  0  0  0  0  0  0  0
    7.3855   -1.5843   -0.3779 H   0  0  0  0  0  0  0  0  0  0  0  0
    8.0080    0.7931    0.8101 H   0  0  0  0  0  0  0  0  0  0  0  0
    7.1522    3.1058    1.2203 H   0  0  0  0  0  0  0  0  0  0  0  0
    4.9519    3.8060    0.2951 H   0  0  0  0  0  0  0  0  0  0  0  0
    3.5895    2.2104   -1.0460 H   0  0  0  0  0  0  0  0  0  0  0  0
   -1.1991   -2.3982   -2.8333 H   0  0  0  0  0  0  0  0  0  0  0  0
   -0.7028    2.7599   -2.0366 H   0  0  0  0  0  0  0  0  0  0  0  0
   -2.8300    2.5758   -2.2650 H   0  0  0  0  0  0  0  0  0  0  0  0
   -5.3086    0.6327   -2.6908 H   0  0  0  0  0  0  0  0  0  0  0  0
   -4.9760    2.1208   -1.7619 H   0  0  0  0  0  0  0  0  0  0  0  0
  1  2  1  0  0  0  0
  1 39  1  0  0  0  0
  1 40  1  0  0  0  0
  1 41  1  0  0  0  0
  2  3  2  0  0  0  0
  3  4  1  0  0  0  0
  3 42  1  0  0  0  0
  4  5  1  0  0  0  0
  4  6  1  0  0  0  0
  4 43  1  6  0  0  0
  5 44  1  0  0  0  0
  5 45  1  0  0  0  0
  5 46  1  0  0  0  0
  6  7  1  0  0  0  0
  6 47  1  0  0  0  0
  6 48  1  0  0  0  0
  7  8  2  0  0  0  0
  7 49  1  0  0  0  0
  8 50  1  0  0  0  0
  9  8  1  0  0  0  0
  9 10  1  0  0  0  0
  9 51  1  6  0  0  0
 10 11  1  0  0  0  0
 10 52  1  1  0  0  0
 11 12  1  0  0  0  0
 12 13  1  1  0  0  0
 12 14  1  0  0  0  0
 12 10  1  0  0  0  0
 13 53  1  0  0  0  0
 13 54  1  0  0  0  0
 13 55  1  0  0  0  0
 14 15  1  0  0  0  0
 14 16  1  0  0  0  0
 14 56  1  1  0  0  0
 15 57  1  0  0  0  0
 15 58  1  0  0  0  0
 15 59  1  0  0  0  0
 16 17  1  0  0  0  0
 16 60  1  1  0  0  0
 17 18  1  0  0  0  0
 17 28  1  0  0  0  0
 17 61  1  1  0  0  0
 18 19  1  0  0  0  0
 18 62  1  0  0  0  0
 18 63  1  0  0  0  0
 19 20  2  0  0  0  0
 20 21  1  0  0  0  0
 20 64  1  0  0  0  0
 21 22  1  0  0  0  0
 21 65  1  0  0  0  0
 22 23  2  0  0  0  0
 23 24  1  0  0  0  0
 23 66  1  0  0  0  0
 24 25  2  0  0  0  0
 24 67  1  0  0  0  0
 25 26  1  0  0  0  0
 25 68  1  0  0  0  0
 26 27  2  0  0  0  0
 26 69  1  0  0  0  0
 27 19  1  0  0  0  0
 27 22  1  0  0  0  0
 28 29  2  0  0  0  0
 29 30  1  0  0  0  0
 30 70  1  0  0  0  0
 31 29  1  6  0  0  0
 31 32  1  0  0  0  0
 31  9  1  0  0  0  0
 31 16  1  0  0  0  0
 32 33  2  0  0  0  0
 32 34  1  0  0  0  0
 34 35  2  0  0  0  0
 34 71  1  0  0  0  0
 35 36  1  0  0  0  0
 35 72  1  0  0  0  0
 36 37  2  0  0  0  0
 36 38  1  0  0  0  0
 38  2  1  0  0  0  0
 38 73  1  0  0  0  0
 38 74  1  0  0  0  0
M  END
>  <IDENTIFIER>
CNP0205365.1

>  <Energy>
2528.21

$$$$
