
 OpenBabel09092501262D

120119  0  0  0  0  0  0  0  0999 V2000
    9.0933    5.2500    0.0000 C   0  0  0  0  0  0  0  0  0  0  0  0
    7.7942    4.5000    0.0000 C   0  0  0  0  0  0  0  0  0  0  0  0
    6.4952    3.7500    0.0000 C   0  0  0  0  0  0  0  0  0  0  0  0
    5.1962    3.0000    0.0000 C   0  0  0  0  0  0  0  0  0  0  0  0
    3.5361    2.9707   -0.2202 C   0  0  0  0  0  0  0  0  0  0  0  0
    2.7038    1.5121   -0.0148 C   0  0  0  0  0  0  0  0  0  0  0  0
    1.0543    1.2566   -0.2559 C   0  0  0  0  0  0  0  0  0  0  0  0
    0.3338   -0.2066    0.0021 C   0  0  0  0  0  0  0  0  0  0  0  0
    1.0778   -1.0804    0.4166 O   0  0  0  0  0  0  0  0  0  0  0  0
   -1.0538   -0.5649   -0.2154 O   0  0  0  0  0  0  0  0  0  0  0  0
   -1.6924   -1.8649    0.0961 C   0  0  0  0  0  0  0  0  0  0  0  0
   -3.2899   -2.2916   -0.2718 C   0  0  2  0  0  0  0  0  0  0  0  0
   -3.6729   -3.8890    0.1221 C   0  0  0  0  0  0  0  0  0  0  0  0
   -4.9660   -4.5720   -0.1050 O   0  0  0  0  0  0  0  0  0  0  0  0
   -5.1962   -6.0000    0.0000 C   0  0  0  0  0  0  0  0  0  0  0  0
   -4.1763   -6.6862    0.0758 O   0  0  0  0  0  0  0  0  0  0  0  0
   -6.4952   -6.7500    0.0000 C   0  0  0  0  0  0  0  0  0  0  0  0
   -7.7942   -7.5000    0.0000 C   0  0  0  0  0  0  0  0  0  0  0  0
   -9.0933   -8.2500    0.0000 C   0  0  0  0  0  0  0  0  0  0  0  0
  -10.3923   -9.0000    0.0000 C   0  0  0  0  0  0  0  0  0  0  0  0
  -11.6913   -9.7500    0.0000 C   0  0  0  0  0  0  0  0  0  0  0  0
  -13.3418  -10.0627    0.0094 C   0  0  0  0  0  0  0  0  0  0  0  0
  -13.9439  -11.6538   -0.0280 C   0  0  0  0  0  0  0  0  0  0  0  0
  -15.5885  -12.0000    0.0000 C   0  0  0  0  0  0  0  0  0  0  0  0
  -16.8875  -12.7500    0.0000 C   0  0  0  0  0  2  0  0  0  0  0  0
  -18.1865  -13.5000    0.0000 C   0  0  0  0  0  0  0  0  0  0  0  0
  -19.4856  -14.2500    0.0000 C   0  0  0  0  0  0  0  0  0  0  0  0
  -20.7846  -15.0000    0.0000 C   0  0  0  0  0  0  0  0  0  0  0  0
  -22.0836  -15.7500    0.0000 C   0  0  0  0  0  0  0  0  0  0  0  0
  -21.5346  -13.7010    0.0000 C   0  0  0  0  0  0  0  0  0  0  0  0
   -4.1859   -1.3898    0.3429 O   0  0  0  0  0  0  0  0  0  0  0  0
   -5.0975   -0.5527   -0.2868 C   0  0  0  0  0  0  0  0  0  0  0  0
   -5.3125   -0.6597   -1.4865 O   0  0  0  0  0  0  0  0  0  0  0  0
   -5.8095    0.5475    0.5190 C   0  0  0  0  0  0  0  0  0  0  0  0
   -6.7719    1.5488   -0.2407 C   0  0  0  0  0  0  0  0  0  0  0  0
   -7.1974    2.7198    0.7153 C   0  0  0  0  0  0  0  0  0  0  0  0
   -7.7660    4.0866    0.1789 C   0  0  0  0  0  0  0  0  0  0  0  0
   -9.3077    4.5083    0.0630 C   0  0  0  0  0  0  0  0  0  0  0  0
   -9.3481    6.0933    0.0000 C   0  0  0  0  0  0  0  0  0  0  0  0
  -10.0981    7.3923    0.0000 C   0  0  0  0  0  0  0  0  0  0  0  0
  -10.8481    8.6913    0.0000 C   0  0  0  0  0  0  0  0  0  0  0  0
  -11.2202   10.2487   -0.5194 C   0  0  0  0  0  0  0  0  0  0  0  0
  -11.9747   11.3951    0.5105 C   0  0  0  0  0  0  0  0  0  0  0  0
  -13.0981   12.5885    0.0000 C   0  0  0  0  0  0  0  0  0  0  0  0
  -13.8481   13.8875    0.0000 C   0  0  0  0  0  0  0  0  0  0  0  0
  -14.3971   11.8385    0.0000 C   0  0  0  0  0  0  0  0  0  0  0  0
    9.7641    4.3650    0.1334 H   0  0  0  0  0  0  0  0  0  0  0  0
    9.1199    5.4598   -1.0993 H   0  0  0  0  0  0  0  0  0  0  0  0
   10.0200    5.7850    0.0000 H   0  0  0  0  0  0  0  0  0  0  0  0
    7.3341    5.5349   -0.0882 H   0  0  0  0  0  0  0  0  0  0  0  0
    7.9575    4.2130    1.0741 H   0  0  0  0  0  0  0  0  0  0  0  0
    5.9509    4.4373    0.7208 H   0  0  0  0  0  0  0  0  0  0  0  0
    6.3157    4.0390   -1.0687 H   0  0  0  0  0  0  0  0  0  0  0  0
    5.2430    2.5005    0.9998 H   0  0  0  0  0  0  0  0  0  0  0  0
    5.4539    2.1663   -0.6975 H   0  0  0  0  0  0  0  0  0  0  0  0
    3.3382    3.3213   -1.2545 H   0  0  0  0  0  0  0  0  0  0  0  0
    3.0888    3.7102    0.4766 H   0  0  0  0  0  0  0  0  0  0  0  0
    3.2113    0.7818   -0.6792 H   0  0  0  0  0  0  0  0  0  0  0  0
    2.9098    1.1969    1.0294 H   0  0  0  0  0  0  0  0  0  0  0  0
    0.5190    1.9864    0.3870 H   0  0  0  0  0  0  0  0  0  0  0  0
    0.8502    1.5278   -1.3126 H   0  0  0  0  0  0  0  0  0  0  0  0
   -1.5793   -2.0276    1.1854 H   0  0  0  0  0  0  0  0  0  0  0  0
   -1.0681   -2.6415   -0.3992 H   0  0  0  0  0  0  0  0  0  0  0  0
   -3.3900   -2.2168   -1.3747 H   0  0  0  0  0  0  0  0  0  0  0  0
   -2.9063   -4.4826   -0.4196 H   0  0  0  0  0  0  0  0  0  0  0  0
   -3.4456   -4.0049    1.2040 H   0  0  0  0  0  0  0  0  0  0  0  0
   -6.1708   -7.2969   -0.9228 H   0  0  0  0  0  0  0  0  0  0  0  0
   -6.1373   -7.1229    1.0154 H   0  0  0  0  0  0  0  0  0  0  0  0
   -7.3136   -8.4956    0.2837 H   0  0  0  0  0  0  0  0  0  0  0  0
   -8.0944   -6.9753    0.9635 H   0  0  0  0  0  0  0  0  0  0  0  0
   -9.5659   -7.2443   -0.2750 H   0  0  0  0  0  0  0  0  0  0  0  0
   -8.8209   -8.7602   -0.9718 H   0  0  0  0  0  0  0  0  0  0  0  0
  -10.8405   -8.5126   -0.9284 H   0  0  0  0  0  0  0  0  0  0  0  0
  -10.7131   -8.4606    0.9305 H   0  0  0  0  0  0  0  0  0  0  0  0
  -11.4819  -10.4301   -0.8677 H   0  0  0  0  0  0  0  0  0  0  0  0
  -11.4716  -10.4035    0.8796 H   0  0  0  0  0  0  0  0  0  0  0  0
  -13.7544   -9.5813    0.9212 H   0  0  0  0  0  0  0  0  0  0  0  0
  -13.7761   -9.5361   -0.8659 H   0  0  0  0  0  0  0  0  0  0  0  0
  -13.4932  -12.1864    0.8355 H   0  0  0  0  0  0  0  0  0  0  0  0
  -13.5374  -12.1216   -0.9493 H   0  0  0  0  0  0  0  0  0  0  0  0
  -15.8583  -11.3384   -0.8495 H   0  0  0  0  0  0  0  0  0  0  0  0
  -15.8112  -11.4180    0.9186 H   0  0  0  0  0  0  0  0  0  0  0  0
  -17.7244  -14.0867    0.8452 H   0  0  0  0  0  0  0  0  0  0  0  0
  -17.7420  -14.0686   -0.8722 H   0  0  0  0  0  0  0  0  0  0  0  0
  -19.6253  -13.8358    1.0615 H   0  0  0  0  0  0  0  0  0  0  0  0
  -19.6102  -13.6187   -0.9702 H   0  0  0  0  0  0  0  0  0  0  0  0
  -20.4436  -15.4521   -0.9753 H   0  0  0  0  0  0  0  0  0  0  0  0
  -22.4000  -15.7406   -1.0838 H   0  0  0  0  0  0  0  0  0  0  0  0
  -21.6404  -16.7417    0.2493 H   0  0  0  0  0  0  0  0  0  0  0  0
  -23.0102  -16.2850    0.0000 H   0  0  0  0  0  0  0  0  0  0  0  0
  -22.0492  -13.6585   -1.0010 H   0  0  0  0  0  0  0  0  0  0  0  0
  -21.9860  -13.6774    1.0327 H   0  0  0  0  0  0  0  0  0  0  0  0
  -22.0696  -12.7744    0.0000 H   0  0  0  0  0  0  0  0  0  0  0  0
   -6.3698    0.0740    1.3525 H   0  0  0  0  0  0  0  0  0  0  0  0
   -4.9818    1.1446    0.9575 H   0  0  0  0  0  0  0  0  0  0  0  0
   -6.1985    1.9890   -1.0850 H   0  0  0  0  0  0  0  0  0  0  0  0
   -7.6641    1.0312   -0.6499 H   0  0  0  0  0  0  0  0  0  0  0  0
   -6.2077    3.0254    1.1285 H   0  0  0  0  0  0  0  0  0  0  0  0
   -7.7925    2.3559    1.5850 H   0  0  0  0  0  0  0  0  0  0  0  0
   -7.3830    4.7654    0.9697 H   0  0  0  0  0  0  0  0  0  0  0  0
   -7.2124    4.3786   -0.7449 H   0  0  0  0  0  0  0  0  0  0  0  0
   -9.8395    4.1880    0.9828 H   0  0  0  0  0  0  0  0  0  0  0  0
   -9.7856    4.0375   -0.8223 H   0  0  0  0  0  0  0  0  0  0  0  0
   -8.6516    6.2757   -0.8554 H   0  0  0  0  0  0  0  0  0  0  0  0
   -8.7423    6.3321    0.9078 H   0  0  0  0  0  0  0  0  0  0  0  0
  -10.7099    6.9604    0.8439 H   0  0  0  0  0  0  0  0  0  0  0  0
  -10.5628    7.1336   -0.9837 H   0  0  0  0  0  0  0  0  0  0  0  0
  -10.5151    9.0286    1.0109 H   0  0  0  0  0  0  0  0  0  0  0  0
  -11.9255    8.3802    0.0912 H   0  0  0  0  0  0  0  0  0  0  0  0
  -11.8016   10.1497   -1.4575 H   0  0  0  0  0  0  0  0  0  0  0  0
  -10.2625   10.7362   -0.8099 H   0  0  0  0  0  0  0  0  0  0  0  0
  -12.4652   10.8038    1.3148 H   0  0  0  0  0  0  0  0  0  0  0  0
  -11.1519   11.9004    1.0564 H   0  0  0  0  0  0  0  0  0  0  0  0
  -12.7314   12.6674   -1.0528 H   0  0  0  0  0  0  0  0  0  0  0  0
  -12.9562   14.5419   -0.1431 H   0  0  0  0  0  0  0  0  0  0  0  0
  -14.0647   13.9325    1.0986 H   0  0  0  0  0  0  0  0  0  0  0  0
  -14.3831   14.8141    0.0000 H   0  0  0  0  0  0  0  0  0  0  0  0
  -14.4814   11.6700    1.1008 H   0  0  0  0  0  0  0  0  0  0  0  0
  -14.0833   10.9340   -0.5697 H   0  0  0  0  0  0  0  0  0  0  0  0
  -15.3237   11.3035    0.0000 H   0  0  0  0  0  0  0  0  0  0  0  0
  1  2  1  0  0  0  0
  1 47  1  0  0  0  0
  1 48  1  0  0  0  0
  1 49  1  0  0  0  0
  2  3  1  0  0  0  0
  2 50  1  0  0  0  0
  2 51  1  0  0  0  0
  3  4  1  0  0  0  0
  3 52  1  0  0  0  0
  3 53  1  0  0  0  0
  4  5  1  0  0  0  0
  4 54  1  0  0  0  0
  4 55  1  0  0  0  0
  5  6  1  0  0  0  0
  5 56  1  0  0  0  0
  5 57  1  0  0  0  0
  6  7  1  0  0  0  0
  6 58  1  0  0  0  0
  6 59  1  0  0  0  0
  7  8  1  0  0  0  0
  7 60  1  0  0  0  0
  7 61  1  0  0  0  0
  8  9  2  0  0  0  0
  8 10  1  0  0  0  0
 10 11  1  0  0  0  0
 11 62  1  0  0  0  0
 11 63  1  0  0  0  0
 12 11  1  0  0  0  0
 12 13  1  0  0  0  0
 12 31  1  0  0  0  0
 12 64  1  1  0  0  0
 13 14  1  0  0  0  0
 13 65  1  0  0  0  0
 13 66  1  0  0  0  0
 14 15  1  0  0  0  0
 15 16  2  0  0  0  0
 15 17  1  0  0  0  0
 17 18  1  0  0  0  0
 17 67  1  0  0  0  0
 17 68  1  0  0  0  0
 18 19  1  0  0  0  0
 18 69  1  0  0  0  0
 18 70  1  0  0  0  0
 19 20  1  0  0  0  0
 19 71  1  0  0  0  0
 19 72  1  0  0  0  0
 20 21  1  0  0  0  0
 20 73  1  0  0  0  0
 20 74  1  0  0  0  0
 21 22  1  0  0  0  0
 21 75  1  0  0  0  0
 21 76  1  0  0  0  0
 22 23  1  0  0  0  0
 22 77  1  0  0  0  0
 22 78  1  0  0  0  0
 23 24  1  0  0  0  0
 23 79  1  0  0  0  0
 23 80  1  0  0  0  0
 24 25  1  0  0  0  0
 24 81  1  0  0  0  0
 24 82  1  0  0  0  0
 25 26  1  0  0  0  0
 26 27  1  0  0  0  0
 26 83  1  0  0  0  0
 26 84  1  0  0  0  0
 27 28  1  0  0  0  0
 27 85  1  0  0  0  0
 27 86  1  0  0  0  0
 28 29  1  0  0  0  0
 28 30  1  0  0  0  0
 28 87  1  0  0  0  0
 29 88  1  0  0  0  0
 29 89  1  0  0  0  0
 29 90  1  0  0  0  0
 30 91  1  0  0  0  0
 30 92  1  0  0  0  0
 30 93  1  0  0  0  0
 31 32  1  0  0  0  0
 32 33  2  0  0  0  0
 32 34  1  0  0  0  0
 34 35  1  0  0  0  0
 34 94  1  0  0  0  0
 34 95  1  0  0  0  0
 35 36  1  0  0  0  0
 35 96  1  0  0  0  0
 35 97  1  0  0  0  0
 36 37  1  0  0  0  0
 36 98  1  0  0  0  0
 36 99  1  0  0  0  0
 37 38  1  0  0  0  0
 37100  1  0  0  0  0
 37101  1  0  0  0  0
 38 39  1  0  0  0  0
 38102  1  0  0  0  0
 38103  1  0  0  0  0
 39 40  1  0  0  0  0
 39104  1  0  0  0  0
 39105  1  0  0  0  0
 40 41  1  0  0  0  0
 40106  1  0  0  0  0
 40107  1  0  0  0  0
 41 42  1  0  0  0  0
 41108  1  0  0  0  0
 41109  1  0  0  0  0
 42 43  1  0  0  0  0
 42110  1  0  0  0  0
 42111  1  0  0  0  0
 43 44  1  0  0  0  0
 43112  1  0  0  0  0
 43113  1  0  0  0  0
 44 45  1  0  0  0  0
 44 46  1  0  0  0  0
 44114  1  0  0  0  0
 45115  1  0  0  0  0
 45116  1  0  0  0  0
 45117  1  0  0  0  0
 46118  1  0  0  0  0
 46119  1  0  0  0  0
 46120  1  0  0  0  0
M  END
>  <IDENTIFIER>
CNP0560291.1

>  <Energy>
8818.29

$$$$
