
 OpenBabel09072523233D

 52 55  0  0  0  0  0  0  0  0999 V2000
   -3.2833    0.5487    1.5185 C   0  0  0  0  0  0  0  0  0  0  0  0
   -2.9138   -0.3667    0.3294 C   0  0  0  0  0  0  0  0  0  0  0  0
   -3.5641   -1.7484    0.6172 C   0  0  0  0  0  0  0  0  0  0  0  0
   -3.5304    0.1417   -1.0132 C   0  0  0  0  0  0  0  0  0  0  0  0
   -2.8316    1.3740   -1.6088 C   0  0  0  0  0  0  0  0  0  0  0  0
   -1.3187    1.1076   -1.8193 C   0  0  0  0  0  0  0  0  0  0  0  0
   -0.5926    0.7557   -0.4835 C   0  0  2  0  0  0  0  0  0  0  0  0
   -0.5543    2.0640    0.3666 C   0  0  0  0  0  0  0  0  0  0  0  0
    0.8712    0.2399   -0.7332 C   0  0  1  0  0  0  0  0  0  0  0  0
    1.7843    0.9887   -1.7450 C   0  0  0  0  0  0  0  0  0  0  0  0
    3.1438    0.3024   -1.8790 C   0  0  0  0  0  0  0  0  0  0  0  0
    3.5118   -0.6852   -1.0328 C   0  0  0  0  0  0  0  0  0  0  0  0
    4.7697   -1.3916   -0.9402 C   0  0  0  0  0  0  0  0  0  0  0  0
    5.7005   -1.2881   -1.7217 O   0  0  0  0  0  0  0  0  0  0  0  0
    4.8290   -2.1142    0.1972 O   0  0  0  0  0  0  0  0  0  0  0  0
    3.7316   -1.8577    1.0082 C   0  0  0  0  0  0  0  0  0  0  0  0
    2.6732   -1.2228    0.0745 C   0  0  1  0  0  0  0  0  0  0  0  0
    1.6687   -0.1446    0.5871 C   0  0  1  0  0  0  0  0  0  0  0  0
    2.4757    1.0434    1.2144 C   0  0  0  0  0  0  0  0  0  0  0  0
    0.7076   -0.6689    1.7007 C   0  0  0  0  0  0  0  0  0  0  0  0
   -0.5556   -1.3533    1.1853 C   0  0  0  0  0  0  0  0  0  0  0  0
   -1.3604   -0.5132    0.1196 C   0  0  1  0  0  0  0  0  0  0  0  0
   -4.3858    0.5721    1.6552 H   0  0  0  0  0  0  0  0  0  0  0  0
   -2.9840    1.5922    1.3933 H   0  0  0  0  0  0  0  0  0  0  0  0
   -2.8287    0.1683    2.4576 H   0  0  0  0  0  0  0  0  0  0  0  0
   -4.6696   -1.6515    0.6856 H   0  0  0  0  0  0  0  0  0  0  0  0
   -3.2222   -2.1879    1.5749 H   0  0  0  0  0  0  0  0  0  0  0  0
   -3.3376   -2.4737   -0.1945 H   0  0  0  0  0  0  0  0  0  0  0  0
   -4.6184    0.3391   -0.8953 H   0  0  0  0  0  0  0  0  0  0  0  0
   -3.4272   -0.6630   -1.7772 H   0  0  0  0  0  0  0  0  0  0  0  0
   -3.0208    2.2558   -0.9715 H   0  0  0  0  0  0  0  0  0  0  0  0
   -3.2935    1.6013   -2.5937 H   0  0  0  0  0  0  0  0  0  0  0  0
   -0.8499    1.9952   -2.2978 H   0  0  0  0  0  0  0  0  0  0  0  0
   -1.2223    0.2592   -2.5333 H   0  0  0  0  0  0  0  0  0  0  0  0
    0.1463    2.7891   -0.0977 H   0  0  0  0  0  0  0  0  0  0  0  0
   -0.2728    1.9228    1.4136 H   0  0  0  0  0  0  0  0  0  0  0  0
   -1.4965    2.6183    0.4161 H   0  0  0  0  0  0  0  0  0  0  0  0
    0.6833   -0.7114   -1.2857 H   0  0  0  0  0  0  0  0  0  0  0  0
    1.9537    2.0403   -1.4356 H   0  0  0  0  0  0  0  0  0  0  0  0
    1.2922    0.9943   -2.7401 H   0  0  0  0  0  0  0  0  0  0  0  0
    3.8464    0.6625   -2.6233 H   0  0  0  0  0  0  0  0  0  0  0  0
    4.0823   -1.1562    1.7898 H   0  0  0  0  0  0  0  0  0  0  0  0
    3.3360   -2.7722    1.4997 H   0  0  0  0  0  0  0  0  0  0  0  0
    2.1238   -2.0840   -0.3724 H   0  0  0  0  0  0  0  0  0  0  0  0
    3.0042    0.7197    2.1328 H   0  0  0  0  0  0  0  0  0  0  0  0
    1.8435    1.8902    1.5214 H   0  0  0  0  0  0  0  0  0  0  0  0
    3.2374    1.4598    0.5271 H   0  0  0  0  0  0  0  0  0  0  0  0
    0.3285    0.1685    2.3103 H   0  0  0  0  0  0  0  0  0  0  0  0
    1.2579   -1.3058    2.4263 H   0  0  0  0  0  0  0  0  0  0  0  0
   -1.1798   -1.6129    2.0624 H   0  0  0  0  0  0  0  0  0  0  0  0
   -0.2363   -2.3167    0.7259 H   0  0  0  0  0  0  0  0  0  0  0  0
   -1.3471   -1.2363   -0.7323 H   0  0  0  0  0  0  0  0  0  0  0  0
  1  2  1  0  0  0  0
  1 23  1  0  0  0  0
  1 24  1  0  0  0  0
  1 25  1  0  0  0  0
  2  3  1  0  0  0  0
  2  4  1  0  0  0  0
  3 26  1  0  0  0  0
  3 27  1  0  0  0  0
  3 28  1  0  0  0  0
  4  5  1  0  0  0  0
  4 29  1  0  0  0  0
  4 30  1  0  0  0  0
  5  6  1  0  0  0  0
  5 31  1  0  0  0  0
  5 32  1  0  0  0  0
  6  7  1  0  0  0  0
  6 33  1  0  0  0  0
  6 34  1  0  0  0  0
  7  8  1  1  0  0  0
  7  9  1  0  0  0  0
  8 35  1  0  0  0  0
  8 36  1  0  0  0  0
  8 37  1  0  0  0  0
  9 10  1  0  0  0  0
  9 38  1  6  0  0  0
 10 11  1  0  0  0  0
 10 39  1  0  0  0  0
 10 40  1  0  0  0  0
 11 12  2  0  0  0  0
 11 41  1  0  0  0  0
 12 13  1  0  0  0  0
 13 14  2  0  0  0  0
 13 15  1  0  0  0  0
 15 16  1  0  0  0  0
 16 42  1  0  0  0  0
 16 43  1  0  0  0  0
 17 16  1  0  0  0  0
 17 18  1  0  0  0  0
 17 12  1  0  0  0  0
 17 44  1  6  0  0  0
 18 19  1  1  0  0  0
 18 20  1  0  0  0  0
 18  9  1  0  0  0  0
 19 45  1  0  0  0  0
 19 46  1  0  0  0  0
 19 47  1  0  0  0  0
 20 21  1  0  0  0  0
 20 48  1  0  0  0  0
 20 49  1  0  0  0  0
 21 50  1  0  0  0  0
 21 51  1  0  0  0  0
 22 21  1  0  0  0  0
 22  2  1  0  0  0  0
 22  7  1  0  0  0  0
 22 52  1  6  0  0  0
M  END
>  <IDENTIFIER>
CNP0220918.2

>  <Energy>
726.836

$$$$
