
 OpenBabel09062504423D

 67 69  0  0  0  0  0  0  0  0999 V2000
   -1.6052   -4.8269    0.5979 C   0  0  0  0  0  0  0  0  0  0  0  0
   -1.1569   -3.4362    0.1655 C   0  0  0  0  0  0  0  0  0  0  0  0
   -2.0168   -2.4512   -0.2548 C   0  0  0  0  0  0  0  0  0  0  0  0
   -3.4874   -2.7504   -0.5487 C   0  0  0  0  0  0  0  0  0  0  0  0
   -1.5512   -0.9822   -0.4927 C   0  0  1  0  0  0  0  0  0  0  0  0
   -2.3612   -0.0393    0.4424 C   0  0  2  0  0  0  0  0  0  0  0  0
   -2.4716    1.4190   -0.0761 C   0  0  0  0  0  0  0  0  0  0  0  0
   -3.4601    2.3134    0.7120 C   0  0  0  0  0  0  0  0  0  0  0  0
   -3.3468    3.7605    0.2109 C   0  0  0  0  0  0  0  0  0  0  0  0
   -4.9203    1.8474    0.5470 C   0  0  0  0  0  0  0  0  0  0  0  0
   -1.6133   -0.1063    1.6734 N   0  0  0  0  0  0  0  0  0  0  0  0
   -0.3547   -0.5442    1.4493 C   0  0  0  0  0  0  0  0  0  0  0  0
    0.4764   -0.6157    2.3420 O   0  0  0  0  0  0  0  0  0  0  0  0
   -0.0740   -0.7373   -0.0283 C   0  0  2  0  0  0  0  0  0  0  0  0
    0.3991    0.4803   -0.5015 O   0  0  0  0  0  0  0  0  0  0  0  0
    0.5153    0.9513   -1.7651 C   0  0  0  0  0  0  0  0  0  0  0  0
    0.1596    0.2719   -2.7155 O   0  0  0  0  0  0  0  0  0  0  0  0
    1.0500    2.3158   -2.0268 C   0  0  0  0  0  0  0  0  0  0  0  0
    1.6000    3.1883   -1.1462 C   0  0  0  0  0  0  0  0  0  0  0  0
    1.8195    3.0163    0.3506 C   0  0  2  0  0  0  0  0  0  0  0  0
    1.3763    4.1612    1.0356 O   0  0  0  0  0  0  0  0  0  0  0  0
    3.3207    2.7160    0.6642 C   0  0  2  0  0  0  0  0  0  0  0  0
    4.1399    3.7681    0.2092 O   0  0  0  0  0  0  0  0  0  0  0  0
    3.7808    1.3671    0.0558 C   0  0  0  0  0  0  0  0  0  0  0  0
    3.1708    0.1520    0.7841 C   0  0  0  0  0  0  0  0  0  0  0  0
    3.3609   -1.1196    0.0015 C   0  0  0  0  0  0  0  0  0  0  0  0
    4.7803   -1.5633   -0.2869 C   0  0  0  0  0  0  0  0  0  0  0  0
    2.3677   -1.9249   -0.4678 C   0  0  0  0  0  0  0  0  0  0  0  0
    0.8192   -1.9350   -0.4674 C   0  0  1  0  0  0  0  0  0  0  0  0
    0.3424   -3.2147    0.2637 C   0  0  2  0  0  0  0  0  0  0  0  0
    0.9842   -4.3385   -0.3163 O   0  0  0  0  0  0  0  0  0  0  0  0
    1.9171   -4.7438    0.5305 O   0  0  0  0  0  0  0  0  0  0  0  0
   -2.6901   -4.9982    0.6649 H   0  0  0  0  0  0  0  0  0  0  0  0
   -1.2288   -5.0081    1.6276 H   0  0  0  0  0  0  0  0  0  0  0  0
   -1.1761   -5.5983   -0.0734 H   0  0  0  0  0  0  0  0  0  0  0  0
   -3.7541   -3.8164   -0.6002 H   0  0  0  0  0  0  0  0  0  0  0  0
   -3.7253   -2.3660   -1.5625 H   0  0  0  0  0  0  0  0  0  0  0  0
   -4.1785   -2.2935    0.1828 H   0  0  0  0  0  0  0  0  0  0  0  0
   -1.7393   -0.7956   -1.5703 H   0  0  0  0  0  0  0  0  0  0  0  0
   -3.3789   -0.4196    0.5619 H   0  0  0  0  0  0  0  0  0  0  0  0
   -2.8097    1.3998   -1.1364 H   0  0  0  0  0  0  0  0  0  0  0  0
   -1.4708    1.8923   -0.0484 H   0  0  0  0  0  0  0  0  0  0  0  0
   -3.1909    2.3050    1.7904 H   0  0  0  0  0  0  0  0  0  0  0  0
   -3.6010    3.8256   -0.8697 H   0  0  0  0  0  0  0  0  0  0  0  0
   -2.3128    4.1391    0.3574 H   0  0  0  0  0  0  0  0  0  0  0  0
   -4.0375    4.4204    0.7786 H   0  0  0  0  0  0  0  0  0  0  0  0
   -5.2093    1.8450   -0.5274 H   0  0  0  0  0  0  0  0  0  0  0  0
   -5.6052    2.5323    1.0906 H   0  0  0  0  0  0  0  0  0  0  0  0
   -5.0865    0.8348    0.9613 H   0  0  0  0  0  0  0  0  0  0  0  0
   -1.9580    0.2171    2.5901 H   0  0  0  0  0  0  0  0  0  0  0  0
    1.0298    2.6371   -3.0644 H   0  0  0  0  0  0  0  0  0  0  0  0
    1.9829    4.1131   -1.5695 H   0  0  0  0  0  0  0  0  0  0  0  0
    1.2156    2.1969    0.7541 H   0  0  0  0  0  0  0  0  0  0  0  0
    1.9734    4.9160    0.7929 H   0  0  0  0  0  0  0  0  0  0  0  0
    3.4651    2.6494    1.7645 H   0  0  0  0  0  0  0  0  0  0  0  0
    4.2338    3.6886   -0.7758 H   0  0  0  0  0  0  0  0  0  0  0  0
    4.8863    1.2894    0.1258 H   0  0  0  0  0  0  0  0  0  0  0  0
    3.5166    1.3490   -1.0236 H   0  0  0  0  0  0  0  0  0  0  0  0
    2.1232    0.3053    0.9536 H   0  0  0  0  0  0  0  0  0  0  0  0
    3.6315    0.0563    1.7887 H   0  0  0  0  0  0  0  0  0  0  0  0
    5.5351   -0.8790    0.1497 H   0  0  0  0  0  0  0  0  0  0  0  0
    4.9414   -1.6040   -1.3862 H   0  0  0  0  0  0  0  0  0  0  0  0
    4.9555   -2.5740    0.1391 H   0  0  0  0  0  0  0  0  0  0  0  0
    2.7438   -2.7965   -1.0007 H   0  0  0  0  0  0  0  0  0  0  0  0
    0.5928   -2.0489   -1.5507 H   0  0  0  0  0  0  0  0  0  0  0  0
    0.5734   -3.1384    1.3549 H   0  0  0  0  0  0  0  0  0  0  0  0
    1.5222   -5.5254    0.9956 H   0  0  0  0  0  0  0  0  0  0  0  0
  1  2  1  0  0  0  0
  1 33  1  0  0  0  0
  1 34  1  0  0  0  0
  1 35  1  0  0  0  0
  2  3  2  0  0  0  0
  3  4  1  0  0  0  0
  4 36  1  0  0  0  0
  4 37  1  0  0  0  0
  4 38  1  0  0  0  0
  5  3  1  0  0  0  0
  5  6  1  0  0  0  0
  5 39  1  6  0  0  0
  6  7  1  0  0  0  0
  6 11  1  0  0  0  0
  6 40  1  1  0  0  0
  7  8  1  0  0  0  0
  7 41  1  0  0  0  0
  7 42  1  0  0  0  0
  8  9  1  0  0  0  0
  8 10  1  0  0  0  0
  8 43  1  0  0  0  0
  9 44  1  0  0  0  0
  9 45  1  0  0  0  0
  9 46  1  0  0  0  0
 10 47  1  0  0  0  0
 10 48  1  0  0  0  0
 10 49  1  0  0  0  0
 11 12  1  0  0  0  0
 11 50  1  0  0  0  0
 12 13  2  0  0  0  0
 14 12  1  1  0  0  0
 14 15  1  0  0  0  0
 14  5  1  0  0  0  0
 15 16  1  0  0  0  0
 16 17  2  0  0  0  0
 16 18  1  0  0  0  0
 18 19  2  0  0  0  0
 18 51  1  0  0  0  0
 19 20  1  0  0  0  0
 19 52  1  0  0  0  0
 20 21  1  0  0  0  0
 20 22  1  0  0  0  0
 20 53  1  1  0  0  0
 21 54  1  0  0  0  0
 22 23  1  0  0  0  0
 22 24  1  0  0  0  0
 22 55  1  1  0  0  0
 23 56  1  0  0  0  0
 24 25  1  0  0  0  0
 24 57  1  0  0  0  0
 24 58  1  0  0  0  0
 25 26  1  0  0  0  0
 25 59  1  0  0  0  0
 25 60  1  0  0  0  0
 26 27  1  0  0  0  0
 26 28  2  0  0  0  0
 27 61  1  0  0  0  0
 27 62  1  0  0  0  0
 27 63  1  0  0  0  0
 28 64  1  0  0  0  0
 29 28  1  0  0  0  0
 29 30  1  0  0  0  0
 29 14  1  0  0  0  0
 29 65  1  6  0  0  0
 30 31  1  0  0  0  0
 30  2  1  0  0  0  0
 30 66  1  1  0  0  0
 31 32  1  0  0  0  0
 32 67  1  0  0  0  0
M  END
>  <IDENTIFIER>
CNP0355472.1

>  <Energy>
712.779

$$$$
