
 OpenBabel09052505313D

144149  0  0  0  0  0  0  0  0999 V2000
    4.1905   -3.5696   -0.3305 C   0  0  0  0  0  0  0  0  0  0  0  0
    3.0878   -3.2011   -1.3182 C   0  0  2  0  0  0  0  0  0  0  0  0
    3.4043   -2.0768   -2.1966 N   0  0  0  0  0  0  0  0  0  0  0  0
    4.1247   -0.9979   -2.1285 C   0  0  0  0  0  0  0  0  0  0  0  0
    4.0561   -0.1628   -3.1919 O   0  0  0  0  0  0  0  0  0  0  0  0
    5.0116   -0.5639   -0.9597 C   0  0  1  0  0  0  0  0  0  0  0  0
    6.2478   -1.3375   -0.9232 N   0  0  0  0  0  0  0  0  0  0  0  0
    6.8071   -1.7880    0.2407 C   0  0  0  0  0  0  0  0  0  0  0  0
    6.2477   -1.5836    1.3100 O   0  0  0  0  0  0  0  0  0  0  0  0
    8.1147   -2.4936    0.2406 C   0  0  0  0  0  0  0  0  0  0  0  0
    8.6805   -2.9601    1.4417 C   0  0  0  0  0  0  0  0  0  0  0  0
    9.8829   -3.5917    1.4232 N   0  0  0  0  0  0  0  0  0  0  0  0
   10.5593   -3.7813    0.2617 C   0  0  0  0  0  0  0  0  0  0  0  0
   11.7998   -4.4281    0.2576 C   0  0  0  0  0  0  0  0  0  0  0  0
   12.4848   -4.6107   -0.9483 C   0  0  0  0  0  0  0  0  0  0  0  0
   11.9319   -4.1485   -2.1486 C   0  0  0  0  0  0  0  0  0  0  0  0
   10.6900   -3.5019   -2.1499 C   0  0  0  0  0  0  0  0  0  0  0  0
   10.0005   -3.3167   -0.9462 C   0  0  0  0  0  0  0  0  0  0  0  0
    8.7948   -2.6884   -0.9242 N   0  0  0  0  0  0  0  0  0  0  0  0
    5.4202    0.9157   -1.1089 C   0  0  0  0  0  0  0  0  0  0  0  0
    4.3410    1.7648   -0.9018 O   0  0  0  0  0  0  0  0  0  0  0  0
    4.0169    2.2336    0.3360 C   0  0  0  0  0  0  0  0  0  0  0  0
    4.5224    1.7342    1.3335 O   0  0  0  0  0  0  0  0  0  0  0  0
    3.1580    3.4691    0.5117 C   0  0  1  0  0  0  0  0  0  0  0  0
    3.7326    4.6825   -0.3053 C   0  0  2  0  0  0  0  0  0  0  0  0
    5.2211    4.9249    0.0528 C   0  0  0  0  0  0  0  0  0  0  0  0
    2.8671    5.9772   -0.1416 C   0  0  0  0  0  0  0  0  0  0  0  0
    2.8256    6.5216    1.2986 C   0  0  0  0  0  0  0  0  0  0  0  0
    3.3188    7.0984   -1.0941 C   0  0  0  0  0  0  0  0  0  0  0  0
    1.7328    3.1767    0.2175 N   0  0  0  0  0  0  0  0  0  0  0  0
    1.3259    2.8766   -1.1517 C   0  0  0  0  0  0  0  0  0  0  0  0
    0.7962    3.2200    1.2411 C   0  0  0  0  0  0  0  0  0  0  0  0
    1.1650    3.5097    2.3736 O   0  0  0  0  0  0  0  0  0  0  0  0
   -0.7219    2.9215    1.0716 C   0  0  1  0  0  0  0  0  0  0  0  0
   -1.1036    1.8875    2.1927 C   0  0  0  0  0  0  0  0  0  0  0  0
   -0.0116    0.4335    2.5458 S   0  0  0  0  0  0  0  0  0  0  0  0
    0.6762   -0.0998    0.5994 S   0  0  0  0  0  0  0  0  0  0  0  0
   -0.6260   -1.3209    0.1889 C   0  0  0  0  0  0  0  0  0  0  0  0
   -0.3531   -2.7780    0.6509 C   0  0  1  0  0  0  0  0  0  0  0  0
   -1.2936   -3.7907   -0.0643 C   0  0  0  0  0  0  0  0  0  0  0  0
   -0.7645   -4.4799   -0.9251 O   0  0  0  0  0  0  0  0  0  0  0  0
   -2.6550   -3.9921    0.1665 N   0  0  0  0  0  0  0  0  0  0  0  0
   -3.4098   -4.8307   -0.7741 C   0  0  0  0  0  0  0  0  0  0  0  0
   -3.4507   -3.5149    1.3202 C   0  0  1  0  0  0  0  0  0  0  0  0
   -3.0278   -4.2200    2.6525 C   0  0  0  0  0  0  0  0  0  0  0  0
   -4.0457   -3.9405    3.7802 C   0  0  0  0  0  0  0  0  0  0  0  0
   -2.9476   -5.7469    2.4660 C   0  0  0  0  0  0  0  0  0  0  0  0
   -3.5363   -2.0151    1.3907 C   0  0  0  0  0  0  0  0  0  0  0  0
   -3.1489   -1.4078    2.3808 O   0  0  0  0  0  0  0  0  0  0  0  0
   -4.0440   -1.3420    0.3279 O   0  0  0  0  0  0  0  0  0  0  0  0
   -4.0900    0.0344    0.2414 C   0  0  0  0  0  0  0  0  0  0  0  0
   -4.6346    0.5015   -1.1167 C   0  0  1  0  0  0  0  0  0  0  0  0
   -6.1002    0.5118   -1.1811 N   0  0  0  0  0  0  0  0  0  0  0  0
   -6.8608   -0.6029   -0.9380 C   0  0  0  0  0  0  0  0  0  0  0  0
   -6.3218   -1.6615   -0.6564 O   0  0  0  0  0  0  0  0  0  0  0  0
   -8.3461   -0.5894   -1.0175 C   0  0  0  0  0  0  0  0  0  0  0  0
   -9.0794   -1.7222   -0.6105 C   0  0  0  0  0  0  0  0  0  0  0  0
  -10.4322   -1.7248   -0.6997 N   0  0  0  0  0  0  0  0  0  0  0  0
  -11.1040   -0.6527   -1.1893 C   0  0  0  0  0  0  0  0  0  0  0  0
  -12.4978   -0.6806   -1.2917 C   0  0  0  0  0  0  0  0  0  0  0  0
  -13.1770    0.4239   -1.8132 C   0  0  0  0  0  0  0  0  0  0  0  0
  -12.4644    1.5553   -2.2286 C   0  0  0  0  0  0  0  0  0  0  0  0
  -11.0679    1.5896   -2.1215 C   0  0  0  0  0  0  0  0  0  0  0  0
  -10.3812    0.4861   -1.6013 C   0  0  0  0  0  0  0  0  0  0  0  0
   -9.0221    0.4927   -1.4977 N   0  0  0  0  0  0  0  0  0  0  0  0
   -3.9871    1.8230   -1.5978 C   0  0  0  0  0  0  0  0  0  0  0  0
   -3.6590    1.9001   -2.9072 O   0  0  0  0  0  0  0  0  0  0  0  0
   -3.6253    2.8329   -0.8568 N   0  0  0  0  0  0  0  0  0  0  0  0
   -3.8512    3.1200    0.5511 C   0  0  2  0  0  0  0  0  0  0  0  0
   -5.3374    3.4738    0.7495 C   0  0  0  0  0  0  0  0  0  0  0  0
   -2.9300    4.2594    1.0009 C   0  0  0  0  0  0  0  0  0  0  0  0
   -3.4881    5.3310    1.2085 O   0  0  0  0  0  0  0  0  0  0  0  0
   -1.5456    4.1756    1.1899 N   0  0  0  0  0  0  0  0  0  0  0  0
   -0.8491    5.4278    1.5345 C   0  0  0  0  0  0  0  0  0  0  0  0
    1.0839   -3.0833    0.4074 N   0  0  0  0  0  0  0  0  0  0  0  0
    1.8917   -3.3988    1.5798 C   0  0  0  0  0  0  0  0  0  0  0  0
    1.6248   -3.0150   -0.8760 C   0  0  0  0  0  0  0  0  0  0  0  0
    0.8775   -2.7580   -1.8109 O   0  0  0  0  0  0  0  0  0  0  0  0
    5.1425   -3.7105   -0.8823 H   0  0  0  0  0  0  0  0  0  0  0  0
    3.9805   -4.5435    0.1505 H   0  0  0  0  0  0  0  0  0  0  0  0
    4.3241   -2.8022    0.4384 H   0  0  0  0  0  0  0  0  0  0  0  0
    3.0612   -4.0855   -1.9920 H   0  0  0  0  0  0  0  0  0  0  0  0
    3.5079   -0.3587   -3.9656 H   0  0  0  0  0  0  0  0  0  0  0  0
    4.4540   -0.6203   -0.0013 H   0  0  0  0  0  0  0  0  0  0  0  0
    6.7694   -1.4494   -1.8062 H   0  0  0  0  0  0  0  0  0  0  0  0
    8.1738   -2.8233    2.3882 H   0  0  0  0  0  0  0  0  0  0  0  0
   12.2335   -4.7868    1.1831 H   0  0  0  0  0  0  0  0  0  0  0  0
   13.4453   -5.1097   -0.9522 H   0  0  0  0  0  0  0  0  0  0  0  0
   12.4673   -4.2915   -3.0782 H   0  0  0  0  0  0  0  0  0  0  0  0
   10.2697   -3.1463   -3.0822 H   0  0  0  0  0  0  0  0  0  0  0  0
    5.8827    1.1168   -2.0997 H   0  0  0  0  0  0  0  0  0  0  0  0
    6.2183    1.1534   -0.3682 H   0  0  0  0  0  0  0  0  0  0  0  0
    3.2749    3.7388    1.5804 H   0  0  0  0  0  0  0  0  0  0  0  0
    3.7102    4.4150   -1.3829 H   0  0  0  0  0  0  0  0  0  0  0  0
    5.3419    5.1746    1.1266 H   0  0  0  0  0  0  0  0  0  0  0  0
    5.6616    5.7343   -0.5611 H   0  0  0  0  0  0  0  0  0  0  0  0
    5.8323    4.0231   -0.1574 H   0  0  0  0  0  0  0  0  0  0  0  0
    1.8327    5.7207   -0.4457 H   0  0  0  0  0  0  0  0  0  0  0  0
    3.8340    6.8354    1.6395 H   0  0  0  0  0  0  0  0  0  0  0  0
    2.4250    5.7717    2.0057 H   0  0  0  0  0  0  0  0  0  0  0  0
    2.1566    7.4067    1.3492 H   0  0  0  0  0  0  0  0  0  0  0  0
    4.3302    7.4756   -0.8397 H   0  0  0  0  0  0  0  0  0  0  0  0
    2.6172    7.9573   -1.0276 H   0  0  0  0  0  0  0  0  0  0  0  0
    3.3183    6.7363   -2.1439 H   0  0  0  0  0  0  0  0  0  0  0  0
    2.1827    2.8823   -1.8529 H   0  0  0  0  0  0  0  0  0  0  0  0
    0.5960    3.6373   -1.5013 H   0  0  0  0  0  0  0  0  0  0  0  0
    0.8687    1.8741   -1.2253 H   0  0  0  0  0  0  0  0  0  0  0  0
   -0.9032    2.4791    0.0734 H   0  0  0  0  0  0  0  0  0  0  0  0
   -2.1031    1.4684    2.1050 H   0  0  0  0  0  0  0  0  0  0  0  0
   -1.0902    2.4583    3.1458 H   0  0  0  0  0  0  0  0  0  0  0  0
   -0.7443   -1.2649   -0.9111 H   0  0  0  0  0  0  0  0  0  0  0  0
   -1.5459   -0.9496    0.5814 H   0  0  0  0  0  0  0  0  0  0  0  0
   -0.5538   -2.8238    1.7356 H   0  0  0  0  0  0  0  0  0  0  0  0
   -2.8169   -5.1969   -1.6373 H   0  0  0  0  0  0  0  0  0  0  0  0
   -4.2516   -4.2427   -1.1992 H   0  0  0  0  0  0  0  0  0  0  0  0
   -3.8223   -5.7205   -0.2559 H   0  0  0  0  0  0  0  0  0  0  0  0
   -4.5083   -3.8363    1.1682 H   0  0  0  0  0  0  0  0  0  0  0  0
   -2.0301   -3.8679    2.9776 H   0  0  0  0  0  0  0  0  0  0  0  0
   -5.0561   -4.3062    3.4917 H   0  0  0  0  0  0  0  0  0  0  0  0
   -4.1260   -2.8637    4.0199 H   0  0  0  0  0  0  0  0  0  0  0  0
   -3.7401   -4.4616    4.7119 H   0  0  0  0  0  0  0  0  0  0  0  0
   -3.9314   -6.1568    2.1483 H   0  0  0  0  0  0  0  0  0  0  0  0
   -2.6544   -6.2382    3.4179 H   0  0  0  0  0  0  0  0  0  0  0  0
   -2.1841   -6.0153    1.7069 H   0  0  0  0  0  0  0  0  0  0  0  0
   -3.0542    0.4001    0.3021 H   0  0  0  0  0  0  0  0  0  0  0  0
   -4.6945    0.4484    1.0757 H   0  0  0  0  0  0  0  0  0  0  0  0
   -4.2690   -0.2489   -1.8531 H   0  0  0  0  0  0  0  0  0  0  0  0
   -6.5743    1.3916   -1.4343 H   0  0  0  0  0  0  0  0  0  0  0  0
   -8.5826   -2.6008   -0.2192 H   0  0  0  0  0  0  0  0  0  0  0  0
  -13.0534   -1.5547   -0.9743 H   0  0  0  0  0  0  0  0  0  0  0  0
  -14.2559    0.4010   -1.8979 H   0  0  0  0  0  0  0  0  0  0  0  0
  -12.9968    2.4048   -2.6357 H   0  0  0  0  0  0  0  0  0  0  0  0
  -10.5256    2.4678   -2.4477 H   0  0  0  0  0  0  0  0  0  0  0  0
   -3.8679    1.1997   -3.5408 H   0  0  0  0  0  0  0  0  0  0  0  0
   -3.6714    2.2929    1.2071 H   0  0  0  0  0  0  0  0  0  0  0  0
   -5.6251    4.3419    0.1178 H   0  0  0  0  0  0  0  0  0  0  0  0
   -5.5312    3.7223    1.8157 H   0  0  0  0  0  0  0  0  0  0  0  0
   -5.9845    2.6162    0.4861 H   0  0  0  0  0  0  0  0  0  0  0  0
   -1.4964    6.3262    1.5816 H   0  0  0  0  0  0  0  0  0  0  0  0
   -0.0851    5.6559    0.7677 H   0  0  0  0  0  0  0  0  0  0  0  0
   -0.3809    5.3476    2.5358 H   0  0  0  0  0  0  0  0  0  0  0  0
    1.3024   -3.4092    2.5197 H   0  0  0  0  0  0  0  0  0  0  0  0
    2.6622   -2.6223    1.7368 H   0  0  0  0  0  0  0  0  0  0  0  0
    2.3135   -4.4172    1.4946 H   0  0  0  0  0  0  0  0  0  0  0  0
  1 79  1  0  0  0  0
  1 80  1  0  0  0  0
  1 81  1  0  0  0  0
  2  1  1  0  0  0  0
  2  3  1  0  0  0  0
  2 82  1  6  0  0  0
  3  4  2  0  0  0  0
  4  5  1  0  0  0  0
  4  6  1  0  0  0  0
  5 83  1  0  0  0  0
  6  7  1  0  0  0  0
  6 20  1  0  0  0  0
  6 84  1  1  0  0  0
  7  8  1  0  0  0  0
  7 85  1  0  0  0  0
  8  9  2  0  0  0  0
  8 10  1  0  0  0  0
 10 11  2  0  0  0  0
 11 12  1  0  0  0  0
 11 86  1  0  0  0  0
 12 13  2  0  0  0  0
 13 14  1  0  0  0  0
 14 15  2  0  0  0  0
 14 87  1  0  0  0  0
 15 16  1  0  0  0  0
 15 88  1  0  0  0  0
 16 17  2  0  0  0  0
 16 89  1  0  0  0  0
 17 18  1  0  0  0  0
 17 90  1  0  0  0  0
 18 19  2  0  0  0  0
 18 13  1  0  0  0  0
 19 10  1  0  0  0  0
 20 21  1  0  0  0  0
 20 91  1  0  0  0  0
 20 92  1  0  0  0  0
 21 22  1  0  0  0  0
 22 23  2  0  0  0  0
 22 24  1  0  0  0  0
 24 25  1  0  0  0  0
 24 30  1  0  0  0  0
 24 93  1  1  0  0  0
 25 26  1  0  0  0  0
 25 27  1  0  0  0  0
 25 94  1  6  0  0  0
 26 95  1  0  0  0  0
 26 96  1  0  0  0  0
 26 97  1  0  0  0  0
 27 28  1  0  0  0  0
 27 29  1  0  0  0  0
 27 98  1  0  0  0  0
 28 99  1  0  0  0  0
 28100  1  0  0  0  0
 28101  1  0  0  0  0
 29102  1  0  0  0  0
 29103  1  0  0  0  0
 29104  1  0  0  0  0
 30 31  1  0  0  0  0
 30 32  1  0  0  0  0
 31105  1  0  0  0  0
 31106  1  0  0  0  0
 31107  1  0  0  0  0
 32 33  2  0  0  0  0
 32 34  1  0  0  0  0
 34 35  1  0  0  0  0
 34 73  1  0  0  0  0
 34108  1  6  0  0  0
 35 36  1  0  0  0  0
 35109  1  0  0  0  0
 35110  1  0  0  0  0
 36 37  1  0  0  0  0
 37 38  1  0  0  0  0
 38 39  1  0  0  0  0
 38111  1  0  0  0  0
 38112  1  0  0  0  0
 39 40  1  0  0  0  0
 39 75  1  0  0  0  0
 39113  1  1  0  0  0
 40 41  2  0  0  0  0
 40 42  1  0  0  0  0
 42 43  1  0  0  0  0
 42 44  1  0  0  0  0
 43114  1  0  0  0  0
 43115  1  0  0  0  0
 43116  1  0  0  0  0
 44 45  1  0  0  0  0
 44 48  1  0  0  0  0
 44117  1  6  0  0  0
 45 46  1  0  0  0  0
 45 47  1  0  0  0  0
 45118  1  0  0  0  0
 46119  1  0  0  0  0
 46120  1  0  0  0  0
 46121  1  0  0  0  0
 47122  1  0  0  0  0
 47123  1  0  0  0  0
 47124  1  0  0  0  0
 48 49  2  0  0  0  0
 48 50  1  0  0  0  0
 50 51  1  0  0  0  0
 51 52  1  0  0  0  0
 51125  1  0  0  0  0
 51126  1  0  0  0  0
 52 53  1  0  0  0  0
 52 66  1  0  0  0  0
 52127  1  6  0  0  0
 53 54  1  0  0  0  0
 53128  1  0  0  0  0
 54 55  2  0  0  0  0
 54 56  1  0  0  0  0
 56 57  2  0  0  0  0
 57 58  1  0  0  0  0
 57129  1  0  0  0  0
 58 59  2  0  0  0  0
 59 60  1  0  0  0  0
 60 61  2  0  0  0  0
 60130  1  0  0  0  0
 61 62  1  0  0  0  0
 61131  1  0  0  0  0
 62 63  2  0  0  0  0
 62132  1  0  0  0  0
 63 64  1  0  0  0  0
 63133  1  0  0  0  0
 64 65  2  0  0  0  0
 64 59  1  0  0  0  0
 65 56  1  0  0  0  0
 66 67  1  0  0  0  0
 66 68  2  0  0  0  0
 67134  1  0  0  0  0
 68 69  1  0  0  0  0
 69 70  1  0  0  0  0
 69 71  1  0  0  0  0
 69135  1  1  0  0  0
 70136  1  0  0  0  0
 70137  1  0  0  0  0
 70138  1  0  0  0  0
 71 72  2  0  0  0  0
 71 73  1  0  0  0  0
 73 74  1  0  0  0  0
 74139  1  0  0  0  0
 74140  1  0  0  0  0
 74141  1  0  0  0  0
 75 76  1  0  0  0  0
 75 77  1  0  0  0  0
 76142  1  0  0  0  0
 76143  1  0  0  0  0
 76144  1  0  0  0  0
 77 78  2  0  0  0  0
 77  2  1  0  0  0  0
M  END
>  <IDENTIFIER>
CNP0512892.0

>  <Energy>
1301.09

$$$$
