
 OpenBabel09072500093D

 51 52  0  0  0  0  0  0  0  0999 V2000
    5.9210    3.5693   -0.8459 C   0  0  0  0  0  0  0  0  0  0  0  0
    5.6858    2.0960   -1.1690 C   0  0  0  0  0  0  0  0  0  0  0  0
    4.3217    1.6242   -0.6475 C   0  0  0  0  0  0  0  0  0  0  0  0
    4.1088    0.1283   -0.9507 C   0  0  0  0  0  0  0  0  0  0  0  0
    2.7752   -0.3804   -0.5331 N   0  0  0  0  0  0  0  0  0  0  0  0
    2.6255   -1.7526   -1.0532 C   0  0  0  0  0  0  0  0  0  0  0  0
    2.6223   -0.3269    0.9453 C   0  0  0  0  0  0  0  0  0  0  0  0
    1.2712   -0.8219    1.5101 C   0  0  2  0  0  0  0  0  0  0  0  0
    1.0899   -2.2251    1.4153 O   0  0  0  0  0  0  0  0  0  0  0  0
   -0.2989   -2.4285    1.1873 C   0  0  0  0  0  0  0  0  0  0  0  0
   -0.9981   -1.0989    1.4397 C   0  0  2  0  0  0  0  0  0  0  0  0
   -2.2911   -1.0054    0.7797 N   0  0  0  0  0  0  0  0  0  0  0  0
   -3.4436   -0.7056    1.4458 C   0  0  0  0  0  0  0  0  0  0  0  0
   -3.4232   -0.4787    2.6475 O   0  0  0  0  0  0  0  0  0  0  0  0
   -4.7739   -0.6433    0.7264 C   0  0  0  0  0  0  0  0  0  0  0  0
   -4.8149    0.3181   -0.4609 C   0  0  0  0  0  0  0  0  0  0  0  0
   -6.1800   -0.0124   -1.0482 C   0  0  0  0  0  0  0  0  0  0  0  0
   -6.3267   -1.5367   -0.8848 C   0  0  0  0  0  0  0  0  0  0  0  0
   -5.1857   -1.9488    0.0562 C   0  0  0  0  0  0  0  0  0  0  0  0
    0.0404   -0.1730    0.8738 C   0  0  1  0  0  0  0  0  0  0  0  0
   -0.1453    1.1788    1.2125 O   0  0  0  0  0  0  0  0  0  0  0  0
    6.9165    3.8798   -1.2273 H   0  0  0  0  0  0  0  0  0  0  0  0
    5.8974    3.7310    0.2532 H   0  0  0  0  0  0  0  0  0  0  0  0
    5.1418    4.1996   -1.3245 H   0  0  0  0  0  0  0  0  0  0  0  0
    6.4928    1.4966   -0.6933 H   0  0  0  0  0  0  0  0  0  0  0  0
    5.7384    1.9542   -2.2704 H   0  0  0  0  0  0  0  0  0  0  0  0
    3.5136    2.2160   -1.1307 H   0  0  0  0  0  0  0  0  0  0  0  0
    4.3067    1.8093    0.4447 H   0  0  0  0  0  0  0  0  0  0  0  0
    4.9187   -0.4687   -0.4718 H   0  0  0  0  0  0  0  0  0  0  0  0
    4.2098    0.0158   -2.0545 H   0  0  0  0  0  0  0  0  0  0  0  0
    2.8291   -1.7850   -2.1456 H   0  0  0  0  0  0  0  0  0  0  0  0
    1.5821   -2.0987   -0.9535 H   0  0  0  0  0  0  0  0  0  0  0  0
    3.3147   -2.4579   -0.5377 H   0  0  0  0  0  0  0  0  0  0  0  0
    2.6747    0.7300    1.2695 H   0  0  0  0  0  0  0  0  0  0  0  0
    3.4468   -0.8812    1.4480 H   0  0  0  0  0  0  0  0  0  0  0  0
    1.2850   -0.5937    2.6024 H   0  0  0  0  0  0  0  0  0  0  0  0
   -0.7182   -3.2250    1.8378 H   0  0  0  0  0  0  0  0  0  0  0  0
   -0.4209   -2.7281    0.1228 H   0  0  0  0  0  0  0  0  0  0  0  0
   -1.0692   -0.9347    2.5408 H   0  0  0  0  0  0  0  0  0  0  0  0
   -2.3224   -1.1766   -0.2358 H   0  0  0  0  0  0  0  0  0  0  0  0
   -5.5685   -0.3543    1.4557 H   0  0  0  0  0  0  0  0  0  0  0  0
   -4.0302    0.0484   -1.2029 H   0  0  0  0  0  0  0  0  0  0  0  0
   -4.7010    1.3898   -0.1903 H   0  0  0  0  0  0  0  0  0  0  0  0
   -6.3820    0.3750   -2.0689 H   0  0  0  0  0  0  0  0  0  0  0  0
   -6.9196    0.4606   -0.3611 H   0  0  0  0  0  0  0  0  0  0  0  0
   -6.2274   -2.0995   -1.8382 H   0  0  0  0  0  0  0  0  0  0  0  0
   -7.3272   -1.7374   -0.4420 H   0  0  0  0  0  0  0  0  0  0  0  0
   -4.3367   -2.2700   -0.5889 H   0  0  0  0  0  0  0  0  0  0  0  0
   -5.4294   -2.7947    0.7337 H   0  0  0  0  0  0  0  0  0  0  0  0
    0.0782   -0.2801   -0.2346 H   0  0  0  0  0  0  0  0  0  0  0  0
   -0.1645    1.2459    2.2025 H   0  0  0  0  0  0  0  0  0  0  0  0
  1  2  1  0  0  0  0
  1 22  1  0  0  0  0
  1 23  1  0  0  0  0
  1 24  1  0  0  0  0
  2  3  1  0  0  0  0
  2 25  1  0  0  0  0
  2 26  1  0  0  0  0
  3  4  1  0  0  0  0
  3 27  1  0  0  0  0
  3 28  1  0  0  0  0
  4  5  1  0  0  0  0
  4 29  1  0  0  0  0
  4 30  1  0  0  0  0
  5  6  1  0  0  0  0
  5  7  1  0  0  0  0
  6 31  1  0  0  0  0
  6 32  1  0  0  0  0
  6 33  1  0  0  0  0
  7 34  1  0  0  0  0
  7 35  1  0  0  0  0
  8  7  1  0  0  0  0
  8  9  1  0  0  0  0
  8 36  1  1  0  0  0
  9 10  1  0  0  0  0
 10 11  1  0  0  0  0
 10 37  1  0  0  0  0
 10 38  1  0  0  0  0
 11 12  1  0  0  0  0
 11 20  1  0  0  0  0
 11 39  1  1  0  0  0
 12 13  1  0  0  0  0
 12 40  1  0  0  0  0
 13 14  2  0  0  0  0
 13 15  1  0  0  0  0
 15 16  1  0  0  0  0
 15 41  1  0  0  0  0
 16 17  1  0  0  0  0
 16 42  1  0  0  0  0
 16 43  1  0  0  0  0
 17 18  1  0  0  0  0
 17 44  1  0  0  0  0
 17 45  1  0  0  0  0
 18 19  1  0  0  0  0
 18 46  1  0  0  0  0
 18 47  1  0  0  0  0
 19 15  1  0  0  0  0
 19 48  1  0  0  0  0
 19 49  1  0  0  0  0
 20 21  1  0  0  0  0
 20  8  1  0  0  0  0
 20 50  1  6  0  0  0
 21 51  1  0  0  0  0
M  END
>  <IDENTIFIER>
CNP0312194.1

>  <Energy>
475.671

$$$$
