
 OpenBabel09092504502D

183182  0  0  0  0  0  0  0  0999 V2000
   27.2798   15.7500    0.0000 C   0  0  0  0  0  0  0  0  0  0  0  0
   25.9808   15.0000    0.0000 C   0  0  0  0  0  0  0  0  0  0  0  0
   24.3300   14.6882   -0.0276 C   0  0  0  0  0  0  0  0  0  0  0  0
   23.7282   13.0972    0.0202 C   0  0  0  0  0  0  0  0  0  0  0  0
   22.0836   12.7500    0.0000 C   0  0  0  0  0  0  0  0  0  0  0  0
   20.7846   12.0000    0.0000 C   0  0  0  0  0  2  0  0  0  0  0  0
   19.4856   11.2500    0.0000 C   0  0  0  0  0  0  0  0  0  0  0  0
   18.1865   10.5000    0.0000 C   0  0  0  0  0  0  0  0  0  0  0  0
   16.8875    9.7500    0.0000 C   0  0  0  0  0  2  0  0  0  0  0  0
   15.5885    9.0000    0.0000 C   0  0  0  0  0  0  0  0  0  0  0  0
   13.9458    8.6507   -0.0706 C   0  0  0  0  0  0  0  0  0  0  0  0
   13.3381    7.0695    0.0899 C   0  0  0  0  0  0  0  0  0  0  0  0
   11.6913    6.7500    0.0000 C   0  0  0  0  0  0  0  0  0  0  0  0
   10.3923    6.0000    0.0000 C   0  0  0  0  0  0  0  0  0  0  0  0
    9.0933    5.2500    0.0000 C   0  0  0  0  0  0  0  0  0  0  0  0
    7.7942    4.5000    0.0000 C   0  0  0  0  0  0  0  0  0  0  0  0
    6.4952    3.7500    0.0000 C   0  0  0  0  0  0  0  0  0  0  0  0
    5.1962    3.0000    0.0000 C   0  0  0  0  0  0  0  0  0  0  0  0
    3.5291    2.9547   -0.1071 C   0  0  0  0  0  0  0  0  0  0  0  0
    2.7475    1.4629    0.0206 C   0  0  0  0  0  0  0  0  0  0  0  0
    1.0857    1.2112    0.0216 C   0  0  0  0  0  0  0  0  0  0  0  0
    0.4181   -0.2959    0.0786 C   0  0  0  0  0  0  0  0  0  0  0  0
    1.2134   -1.2212    0.0374 O   0  0  0  0  0  0  0  0  0  0  0  0
   -0.9896   -0.6370    0.1783 O   0  0  0  0  0  0  0  0  0  0  0  0
   -1.6101   -1.9587   -0.0282 C   0  0  0  0  0  0  0  0  0  0  0  0
   -3.2243   -2.3033    0.3150 C   0  0  1  0  0  0  0  0  0  0  0  0
   -3.6934   -3.8753   -0.1215 C   0  0  0  0  0  0  0  0  0  0  0  0
   -4.9690   -4.5717    0.1634 O   0  0  0  0  0  0  0  0  0  0  0  0
   -5.1962   -6.0000    0.0000 C   0  0  0  0  0  0  0  0  0  0  0  0
   -4.1870   -6.6678   -0.2279 O   0  0  0  0  0  0  0  0  0  0  0  0
   -6.4952   -6.7500    0.0000 C   0  0  0  0  0  0  0  0  0  0  0  0
   -7.7942   -7.5000    0.0000 C   0  0  0  0  0  0  0  0  0  0  0  0
   -9.0933   -8.2500    0.0000 C   0  0  0  0  0  0  0  0  0  0  0  0
  -10.3923   -9.0000    0.0000 C   0  0  0  0  0  0  0  0  0  0  0  0
  -11.6913   -9.7500    0.0000 C   0  0  0  0  0  0  0  0  0  0  0  0
  -13.3395  -10.0672    0.0693 C   0  0  0  0  0  0  0  0  0  0  0  0
  -13.9453  -11.6517   -0.0633 C   0  0  0  0  0  0  0  0  0  0  0  0
  -15.5885  -12.0000    0.0000 C   0  0  0  0  0  0  0  0  0  0  0  0
  -16.8875  -12.7500    0.0000 C   0  0  0  0  0  2  0  0  0  0  0  0
  -18.1865  -13.5000    0.0000 C   0  0  0  0  0  0  0  0  0  0  0  0
  -19.4856  -14.2500    0.0000 C   0  0  0  0  0  0  0  0  0  0  0  0
  -20.7846  -15.0000    0.0000 C   0  0  0  0  0  2  0  0  0  0  0  0
  -22.0836  -15.7500    0.0000 C   0  0  0  0  0  0  0  0  0  0  0  0
  -23.7260  -16.1072   -0.0434 C   0  0  0  0  0  0  0  0  0  0  0  0
  -24.3287  -17.6978    0.0422 C   0  0  0  0  0  0  0  0  0  0  0  0
  -25.9808  -18.0000    0.0000 C   0  0  0  0  0  0  0  0  0  0  0  0
  -27.2798  -18.7500    0.0000 C   0  0  0  0  0  0  0  0  0  0  0  0
  -28.5788  -19.5000    0.0000 C   0  0  0  0  0  0  0  0  0  0  0  0
   -3.9785   -1.2381   -0.2117 O   0  0  0  0  0  0  0  0  0  0  0  0
   -5.2874   -0.8387   -0.0444 C   0  0  0  0  0  0  0  0  0  0  0  0
   -6.1909   -1.6534    0.0514 O   0  0  0  0  0  0  0  0  0  0  0  0
   -5.5533    0.6780    0.0579 C   0  0  0  0  0  0  0  0  0  0  0  0
   -6.9988    1.3365    0.0007 C   0  0  0  0  0  0  0  0  0  0  0  0
   -6.8533    2.8780    0.3014 C   0  0  0  0  0  0  0  0  0  0  0  0
   -7.8219    4.0377   -0.1704 C   0  0  0  0  0  0  0  0  0  0  0  0
   -9.1778    4.5858    0.4878 C   0  0  0  0  0  0  0  0  0  0  0  0
   -9.3481    6.0933    0.0000 C   0  0  0  0  0  0  0  0  0  0  0  0
  -10.0981    7.3923    0.0000 C   0  0  0  0  0  0  0  0  0  0  0  0
  -10.8481    8.6913    0.0000 C   0  0  0  0  0  0  0  0  0  0  0  0
  -11.2356   10.3001    0.2950 C   0  0  0  0  0  0  0  0  0  0  0  0
  -12.7290   10.9602   -0.1965 C   0  0  0  0  0  0  0  0  0  0  0  0
  -13.0981   12.5885    0.0000 C   0  0  0  0  0  0  0  0  0  0  0  0
  -13.8481   13.8875    0.0000 C   0  0  0  0  0  0  0  0  0  0  0  0
  -14.5981   15.1865    0.0000 C   0  0  0  0  0  0  0  0  0  0  0  0
  -15.3481   16.4856    0.0000 C   0  0  0  0  0  0  0  0  0  0  0  0
  -16.0981   17.7846    0.0000 C   0  0  0  0  0  0  0  0  0  0  0  0
  -16.8481   19.0836    0.0000 C   0  0  0  0  0  0  0  0  0  0  0  0
  -17.5981   20.3827    0.0000 C   0  0  0  0  0  0  0  0  0  0  0  0
  -15.5490   19.8336    0.0000 C   0  0  0  0  0  0  0  0  0  0  0  0
   27.9849   14.8915    0.1417 H   0  0  0  0  0  0  0  0  0  0  0  0
   27.0912   16.3075    0.9450 H   0  0  0  0  0  0  0  0  0  0  0  0
   28.2064   16.2850    0.0000 H   0  0  0  0  0  0  0  0  0  0  0  0
   26.1993   14.3623   -0.8877 H   0  0  0  0  0  0  0  0  0  0  0  0
   26.1361   14.3762    0.9175 H   0  0  0  0  0  0  0  0  0  0  0  0
   23.8860   15.2235    0.8382 H   0  0  0  0  0  0  0  0  0  0  0  0
   23.9252   15.1602   -0.9477 H   0  0  0  0  0  0  0  0  0  0  0  0
   24.1381   12.6313    0.9410 H   0  0  0  0  0  0  0  0  0  0  0  0
   24.1761   12.5629   -0.8438 H   0  0  0  0  0  0  0  0  0  0  0  0
   21.8560   13.3377   -0.9137 H   0  0  0  0  0  0  0  0  0  0  0  0
   21.8181   13.4061    0.8551 H   0  0  0  0  0  0  0  0  0  0  0  0
   19.8547   10.6943    0.8959 H   0  0  0  0  0  0  0  0  0  0  0  0
   19.8547   10.6944   -0.8960 H   0  0  0  0  0  0  0  0  0  0  0  0
   17.8174   11.0557   -0.8959 H   0  0  0  0  0  0  0  0  0  0  0  0
   17.8174   11.0556    0.8960 H   0  0  0  0  0  0  0  0  0  0  0  0
   15.7717    8.4882    0.9678 H   0  0  0  0  0  0  0  0  0  0  0  0
   15.8922    8.2774   -0.7859 H   0  0  0  0  0  0  0  0  0  0  0  0
   13.5822    9.0340   -1.0471 H   0  0  0  0  0  0  0  0  0  0  0  0
   13.4582    9.2576    0.7211 H   0  0  0  0  0  0  0  0  0  0  0  0
   13.8277    6.4545   -0.6942 H   0  0  0  0  0  0  0  0  0  0  0  0
   13.6880    6.6895    1.0726 H   0  0  0  0  0  0  0  0  0  0  0  0
   11.4121    7.5338    0.7479 H   0  0  0  0  0  0  0  0  0  0  0  0
   11.5493    7.2807   -0.9761 H   0  0  0  0  0  0  0  0  0  0  0  0
   10.9514    5.3252   -0.7277 H   0  0  0  0  0  0  0  0  0  0  0  0
   10.5796    5.6839    1.0621 H   0  0  0  0  0  0  0  0  0  0  0  0
    8.9742    5.4948   -1.0995 H   0  0  0  0  0  0  0  0  0  0  0  0
    9.5782    4.2167    0.0570 H   0  0  0  0  0  0  0  0  0  0  0  0
    7.3060    5.5311   -0.0597 H   0  0  0  0  0  0  0  0  0  0  0  0
    7.9134    4.2573    1.1002 H   0  0  0  0  0  0  0  0  0  0  0  0
    5.9372    4.4175    0.7336 H   0  0  0  0  0  0  0  0  0  0  0  0
    6.3057    4.0582   -1.0627 H   0  0  0  0  0  0  0  0  0  0  0  0
    5.2979    2.4482    0.9679 H   0  0  0  0  0  0  0  0  0  0  0  0
    5.4207    2.2052   -0.7532 H   0  0  0  0  0  0  0  0  0  0  0  0
    3.2403    3.3974   -1.0837 H   0  0  0  0  0  0  0  0  0  0  0  0
    3.1297    3.6125    0.6924 H   0  0  0  0  0  0  0  0  0  0  0  0
    3.1522    0.8426   -0.8057 H   0  0  0  0  0  0  0  0  0  0  0  0
    3.1083    1.0143    0.9698 H   0  0  0  0  0  0  0  0  0  0  0  0
    0.6888    1.7742    0.8917 H   0  0  0  0  0  0  0  0  0  0  0  0
    0.6851    1.6908   -0.8955 H   0  0  0  0  0  0  0  0  0  0  0  0
   -1.0184   -2.7055    0.5429 H   0  0  0  0  0  0  0  0  0  0  0  0
   -1.4657   -2.2026   -1.1017 H   0  0  0  0  0  0  0  0  0  0  0  0
   -3.3128   -2.2356    1.4202 H   0  0  0  0  0  0  0  0  0  0  0  0
   -2.9076   -4.4969    0.3588 H   0  0  0  0  0  0  0  0  0  0  0  0
   -3.5189   -3.9585   -1.2147 H   0  0  0  0  0  0  0  0  0  0  0  0
   -6.3099   -7.0650   -1.0589 H   0  0  0  0  0  0  0  0  0  0  0  0
   -6.0126   -7.3350    0.8499 H   0  0  0  0  0  0  0  0  0  0  0  0
   -7.2937   -8.5264    0.0149 H   0  0  0  0  0  0  0  0  0  0  0  0
   -7.9728   -7.1841    1.0760 H   0  0  0  0  0  0  0  0  0  0  0  0
   -9.5808   -7.2159   -0.0361 H   0  0  0  0  0  0  0  0  0  0  0  0
   -8.9323   -8.5707   -1.0737 H   0  0  0  0  0  0  0  0  0  0  0  0
  -10.9250   -8.3715   -0.7873 H   0  0  0  0  0  0  0  0  0  0  0  0
  -10.6172   -8.6208    1.0333 H   0  0  0  0  0  0  0  0  0  0  0  0
  -11.5309  -10.3215   -0.9506 H   0  0  0  0  0  0  0  0  0  0  0  0
  -11.4262  -10.5011    0.7852 H   0  0  0  0  0  0  0  0  0  0  0  0
  -13.7053   -9.6627    1.0365 H   0  0  0  0  0  0  0  0  0  0  0  0
  -13.8161   -9.4721   -0.7377 H   0  0  0  0  0  0  0  0  0  0  0  0
  -13.4645  -12.2433    0.7438 H   0  0  0  0  0  0  0  0  0  0  0  0
  -13.5734  -12.0533   -1.0293 H   0  0  0  0  0  0  0  0  0  0  0  0
  -15.8863  -11.2885   -0.7982 H   0  0  0  0  0  0  0  0  0  0  0  0
  -15.7790  -11.4747    0.9591 H   0  0  0  0  0  0  0  0  0  0  0  0
  -17.8174  -14.0556    0.8960 H   0  0  0  0  0  0  0  0  0  0  0  0
  -17.8174  -14.0557   -0.8960 H   0  0  0  0  0  0  0  0  0  0  0  0
  -19.8547  -13.6944   -0.8960 H   0  0  0  0  0  0  0  0  0  0  0  0
  -19.8547  -13.6944    0.8960 H   0  0  0  0  0  0  0  0  0  0  0  0
  -21.8705  -16.3131    0.9325 H   0  0  0  0  0  0  0  0  0  0  0  0
  -21.8020  -16.4268   -0.8335 H   0  0  0  0  0  0  0  0  0  0  0  0
  -24.1205  -15.6693   -0.9843 H   0  0  0  0  0  0  0  0  0  0  0  0
  -24.1907  -15.5489    0.7964 H   0  0  0  0  0  0  0  0  0  0  0  0
  -23.8699  -18.2673   -0.7938 H   0  0  0  0  0  0  0  0  0  0  0  0
  -23.9428  -18.1347    0.9873 H   0  0  0  0  0  0  0  0  0  0  0  0
  -26.1602  -17.2430    0.8153 H   0  0  0  0  0  0  0  0  0  0  0  0
  -26.1247  -17.4762   -0.9758 H   0  0  0  0  0  0  0  0  0  0  0  0
  -27.9097  -17.8135    0.0389 H   0  0  0  0  0  0  0  0  0  0  0  0
  -27.0601  -19.1191    1.0353 H   0  0  0  0  0  0  0  0  0  0  0  0
  -28.8566  -19.2750   -1.0600 H   0  0  0  0  0  0  0  0  0  0  0  0
  -28.1354  -20.5253   -0.0297 H   0  0  0  0  0  0  0  0  0  0  0  0
  -29.5054  -20.0350    0.0000 H   0  0  0  0  0  0  0  0  0  0  0  0
   -5.0629    0.9940    1.0036 H   0  0  0  0  0  0  0  0  0  0  0  0
   -4.9798    1.1374   -0.7770 H   0  0  0  0  0  0  0  0  0  0  0  0
   -7.3871    1.1830   -1.0293 H   0  0  0  0  0  0  0  0  0  0  0  0
   -7.7049    0.8833    0.7269 H   0  0  0  0  0  0  0  0  0  0  0  0
   -6.5952    3.0200    1.3729 H   0  0  0  0  0  0  0  0  0  0  0  0
   -5.9322    3.1427   -0.2693 H   0  0  0  0  0  0  0  0  0  0  0  0
   -7.9733    3.9403   -1.2675 H   0  0  0  0  0  0  0  0  0  0  0  0
   -7.1211    4.8923   -0.0401 H   0  0  0  0  0  0  0  0  0  0  0  0
   -9.0851    4.5969    1.5943 H   0  0  0  0  0  0  0  0  0  0  0  0
  -10.0333    3.9415    0.1957 H   0  0  0  0  0  0  0  0  0  0  0  0
   -9.1611    5.9834   -1.0988 H   0  0  0  0  0  0  0  0  0  0  0  0
   -8.3890    6.5137    0.3891 H   0  0  0  0  0  0  0  0  0  0  0  0
  -10.9481    6.8100   -0.4600 H   0  0  0  0  0  0  0  0  0  0  0  0
  -10.1497    7.3657    1.1188 H   0  0  0  0  0  0  0  0  0  0  0  0
  -10.9317    8.7994   -1.1081 H   0  0  0  0  0  0  0  0  0  0  0  0
  -11.8523    8.3640    0.3924 H   0  0  0  0  0  0  0  0  0  0  0  0
  -11.1733   10.4567    1.3927 H   0  0  0  0  0  0  0  0  0  0  0  0
  -10.4329   10.9126   -0.1679 H   0  0  0  0  0  0  0  0  0  0  0  0
  -13.5145   10.3839    0.3358 H   0  0  0  0  0  0  0  0  0  0  0  0
  -12.8413   10.7423   -1.2796 H   0  0  0  0  0  0  0  0  0  0  0  0
  -12.2009   12.9428   -0.5660 H   0  0  0  0  0  0  0  0  0  0  0  0
  -12.7442   12.6288    1.0624 H   0  0  0  0  0  0  0  0  0  0  0  0
  -14.6216   13.2857    0.5776 H   0  0  0  0  0  0  0  0  0  0  0  0
  -14.0025   13.7949   -1.1083 H   0  0  0  0  0  0  0  0  0  0  0  0
  -15.6159   14.7249   -0.2308 H   0  0  0  0  0  0  0  0  0  0  0  0
  -14.4731   15.2577    1.1169 H   0  0  0  0  0  0  0  0  0  0  0  0
  -15.3872   16.4833   -1.1323 H   0  0  0  0  0  0  0  0  0  0  0  0
  -14.3625   17.0330    0.1280 H   0  0  0  0  0  0  0  0  0  0  0  0
  -17.0547   17.2414   -0.2417 H   0  0  0  0  0  0  0  0  0  0  0  0
  -15.9452   17.6838    1.1311 H   0  0  0  0  0  0  0  0  0  0  0  0
  -17.4077   18.8699    0.9748 H   0  0  0  0  0  0  0  0  0  0  0  0
  -17.4334   20.8218    1.0370 H   0  0  0  0  0  0  0  0  0  0  0  0
  -18.6295   19.9799   -0.1778 H   0  0  0  0  0  0  0  0  0  0  0  0
  -18.1331   21.3094    0.0000 H   0  0  0  0  0  0  0  0  0  0  0  0
  -15.0772   19.6081    0.9971 H   0  0  0  0  0  0  0  0  0  0  0  0
  -15.1632   19.6413   -1.0403 H   0  0  0  0  0  0  0  0  0  0  0  0
  -14.6223   20.3686    0.0000 H   0  0  0  0  0  0  0  0  0  0  0  0
  1  2  1  0  0  0  0
  1 70  1  0  0  0  0
  1 71  1  0  0  0  0
  1 72  1  0  0  0  0
  2  3  1  0  0  0  0
  2 73  1  0  0  0  0
  2 74  1  0  0  0  0
  3  4  1  0  0  0  0
  3 75  1  0  0  0  0
  3 76  1  0  0  0  0
  4  5  1  0  0  0  0
  4 77  1  0  0  0  0
  4 78  1  0  0  0  0
  5  6  1  0  0  0  0
  5 79  1  0  0  0  0
  5 80  1  0  0  0  0
  6  7  1  0  0  0  0
  7  8  1  0  0  0  0
  7 81  1  0  0  0  0
  7 82  1  0  0  0  0
  8  9  1  0  0  0  0
  8 83  1  0  0  0  0
  8 84  1  0  0  0  0
  9 10  1  0  0  0  0
 10 11  1  0  0  0  0
 10 85  1  0  0  0  0
 10 86  1  0  0  0  0
 11 12  1  0  0  0  0
 11 87  1  0  0  0  0
 11 88  1  0  0  0  0
 12 13  1  0  0  0  0
 12 89  1  0  0  0  0
 12 90  1  0  0  0  0
 13 14  1  0  0  0  0
 13 91  1  0  0  0  0
 13 92  1  0  0  0  0
 14 15  1  0  0  0  0
 14 93  1  0  0  0  0
 14 94  1  0  0  0  0
 15 16  1  0  0  0  0
 15 95  1  0  0  0  0
 15 96  1  0  0  0  0
 16 17  1  0  0  0  0
 16 97  1  0  0  0  0
 16 98  1  0  0  0  0
 17 18  1  0  0  0  0
 17 99  1  0  0  0  0
 17100  1  0  0  0  0
 18 19  1  0  0  0  0
 18101  1  0  0  0  0
 18102  1  0  0  0  0
 19 20  1  0  0  0  0
 19103  1  0  0  0  0
 19104  1  0  0  0  0
 20 21  1  0  0  0  0
 20105  1  0  0  0  0
 20106  1  0  0  0  0
 21 22  1  0  0  0  0
 21107  1  0  0  0  0
 21108  1  0  0  0  0
 22 23  2  0  0  0  0
 22 24  1  0  0  0  0
 24 25  1  0  0  0  0
 25109  1  0  0  0  0
 25110  1  0  0  0  0
 26 25  1  0  0  0  0
 26 27  1  0  0  0  0
 26 49  1  0  0  0  0
 26111  1  6  0  0  0
 27 28  1  0  0  0  0
 27112  1  0  0  0  0
 27113  1  0  0  0  0
 28 29  1  0  0  0  0
 29 30  2  0  0  0  0
 29 31  1  0  0  0  0
 31 32  1  0  0  0  0
 31114  1  0  0  0  0
 31115  1  0  0  0  0
 32 33  1  0  0  0  0
 32116  1  0  0  0  0
 32117  1  0  0  0  0
 33 34  1  0  0  0  0
 33118  1  0  0  0  0
 33119  1  0  0  0  0
 34 35  1  0  0  0  0
 34120  1  0  0  0  0
 34121  1  0  0  0  0
 35 36  1  0  0  0  0
 35122  1  0  0  0  0
 35123  1  0  0  0  0
 36 37  1  0  0  0  0
 36124  1  0  0  0  0
 36125  1  0  0  0  0
 37 38  1  0  0  0  0
 37126  1  0  0  0  0
 37127  1  0  0  0  0
 38 39  1  0  0  0  0
 38128  1  0  0  0  0
 38129  1  0  0  0  0
 39 40  1  0  0  0  0
 40 41  1  0  0  0  0
 40130  1  0  0  0  0
 40131  1  0  0  0  0
 41 42  1  0  0  0  0
 41132  1  0  0  0  0
 41133  1  0  0  0  0
 42 43  1  0  0  0  0
 43 44  1  0  0  0  0
 43134  1  0  0  0  0
 43135  1  0  0  0  0
 44 45  1  0  0  0  0
 44136  1  0  0  0  0
 44137  1  0  0  0  0
 45 46  1  0  0  0  0
 45138  1  0  0  0  0
 45139  1  0  0  0  0
 46 47  1  0  0  0  0
 46140  1  0  0  0  0
 46141  1  0  0  0  0
 47 48  1  0  0  0  0
 47142  1  0  0  0  0
 47143  1  0  0  0  0
 48144  1  0  0  0  0
 48145  1  0  0  0  0
 48146  1  0  0  0  0
 49 50  1  0  0  0  0
 50 51  2  0  0  0  0
 50 52  1  0  0  0  0
 52 53  1  0  0  0  0
 52147  1  0  0  0  0
 52148  1  0  0  0  0
 53 54  1  0  0  0  0
 53149  1  0  0  0  0
 53150  1  0  0  0  0
 54 55  1  0  0  0  0
 54151  1  0  0  0  0
 54152  1  0  0  0  0
 55 56  1  0  0  0  0
 55153  1  0  0  0  0
 55154  1  0  0  0  0
 56 57  1  0  0  0  0
 56155  1  0  0  0  0
 56156  1  0  0  0  0
 57 58  1  0  0  0  0
 57157  1  0  0  0  0
 57158  1  0  0  0  0
 58 59  1  0  0  0  0
 58159  1  0  0  0  0
 58160  1  0  0  0  0
 59 60  1  0  0  0  0
 59161  1  0  0  0  0
 59162  1  0  0  0  0
 60 61  1  0  0  0  0
 60163  1  0  0  0  0
 60164  1  0  0  0  0
 61 62  1  0  0  0  0
 61165  1  0  0  0  0
 61166  1  0  0  0  0
 62 63  1  0  0  0  0
 62167  1  0  0  0  0
 62168  1  0  0  0  0
 63 64  1  0  0  0  0
 63169  1  0  0  0  0
 63170  1  0  0  0  0
 64 65  1  0  0  0  0
 64171  1  0  0  0  0
 64172  1  0  0  0  0
 65 66  1  0  0  0  0
 65173  1  0  0  0  0
 65174  1  0  0  0  0
 66 67  1  0  0  0  0
 66175  1  0  0  0  0
 66176  1  0  0  0  0
 67 68  1  0  0  0  0
 67 69  1  0  0  0  0
 67177  1  0  0  0  0
 68178  1  0  0  0  0
 68179  1  0  0  0  0
 68180  1  0  0  0  0
 69181  1  0  0  0  0
 69182  1  0  0  0  0
 69183  1  0  0  0  0
M  END
>  <IDENTIFIER>
CNP0548185.2

>  <Energy>
14999.9

$$$$
