
 OpenBabel09122500462D

 36 38  0  0  0  0  0  0  0  0999 V2000
    3.7500    1.2990    0.0000 C   0  0  0  0  0  0  0  0  0  0  0  0
    3.0000    0.0000    0.0000 C   0  0  0  0  0  0  0  0  0  0  0  0
    0.9518   -0.0155    0.2528 C   0  0  0  0  0  0  0  0  0  0  0  0
    0.7500   -1.2990    0.0000 C   0  0  2  0  0  0  0  0  0  0  0  0
   -0.7500   -1.2990    0.0000 C   0  0  0  0  0  0  0  0  0  0  0  0
   -1.5000    0.0000    0.0000 C   0  0  0  0  0  0  0  0  0  0  0  0
   -3.0000    0.0000    0.0000 C   0  0  0  0  0  0  0  0  0  0  0  0
   -0.7500    1.2990    0.0000 C   0  0  0  0  0  0  0  0  0  0  0  0
    0.7500    1.2990    0.0000 C   0  0  1  0  0  0  0  0  0  0  0  0
    0.9492    2.2971   -1.1195 N   0  0  0  0  0  0  0  0  0  0  0  0
    2.2500    1.2990    0.0000 C   0  0  0  0  0  0  0  0  0  0  0  0
    3.0000    0.0000    0.0000 C   0  0  0  0  0  0  0  0  0  0  0  0
    2.2500   -1.2990    0.0000 C   0  0  0  0  0  0  0  0  0  0  0  0
    4.1407   -0.2208    1.6726 N   0  0  0  0  0  0  0  0  0  0  0  0
    4.3551    0.8881    2.5025 C   0  0  0  0  0  0  0  0  0  0  0  0
    5.2838    0.8648    3.2947 O   0  0  0  0  0  0  0  0  0  0  0  0
    3.4887    2.0548    2.4468 C   0  0  0  0  0  0  0  0  0  0  0  0
    2.3875    2.2530    1.4813 C   0  0  0  0  0  0  0  0  0  0  0  0
    4.9122    1.0590    0.0068 H   0  0  0  0  0  0  0  0  0  0  0  0
    4.0740    1.5437   -1.1601 H   0  0  0  0  0  0  0  0  0  0  0  0
    4.2850    2.2256    0.0000 H   0  0  0  0  0  0  0  0  0  0  0  0
    4.3706   -1.1904   -0.3819 H   0  0  0  0  0  0  0  0  0  0  0  0
    0.6939   -1.3453   -1.1151 H   0  0  0  0  0  0  0  0  0  0  0  0
   -1.2783   -2.2478   -0.0188 H   0  0  0  0  0  0  0  0  0  0  0  0
   -3.2587    1.0780    0.0615 H   0  0  0  0  0  0  0  0  0  0  0  0
   -3.2537   -1.0796    0.0377 H   0  0  0  0  0  0  0  0  0  0  0  0
   -4.0700   -0.0000    0.0000 H   0  0  0  0  0  0  0  0  0  0  0  0
   -1.2986    1.8479   -0.7926 H   0  0  0  0  0  0  0  0  0  0  0  0
   -1.0393    1.8289    0.9342 H   0  0  0  0  0  0  0  0  0  0  0  0
    1.1929    3.2261   -0.6552 H   0  0  0  0  0  0  0  0  0  0  0  0
    0.1803    2.7228   -1.6877 H   0  0  0  0  0  0  0  0  0  0  0  0
    2.4779   -1.9756    0.9183 H   0  0  0  0  0  0  0  0  0  0  0  0
    2.5476   -2.0722   -0.8166 H   0  0  0  0  0  0  0  0  0  0  0  0
    4.6769   -1.1108    1.8215 H   0  0  0  0  0  0  0  0  0  0  0  0
    3.6893    2.8400    3.1678 H   0  0  0  0  0  0  0  0  0  0  0  0
    1.7400    3.1128    1.6446 H   0  0  0  0  0  0  0  0  0  0  0  0
  1  2  1  0  0  0  0
  1 19  1  0  0  0  0
  1 20  1  0  0  0  0
  1 21  1  0  0  0  0
  2  3  2  0  0  0  0
  2 22  1  0  0  0  0
  3  4  1  0  0  0  0
  4  5  1  0  0  0  0
  4 13  1  0  0  0  0
  4 23  1  6  0  0  0
  5  6  2  0  0  0  0
  5 24  1  0  0  0  0
  6  7  1  0  0  0  0
  6  8  1  0  0  0  0
  7 25  1  0  0  0  0
  7 26  1  0  0  0  0
  7 27  1  0  0  0  0
  8  9  1  0  0  0  0
  8 28  1  0  0  0  0
  8 29  1  0  0  0  0
  9 10  1  1  0  0  0
  9 11  1  0  0  0  0
  9  3  1  0  0  0  0
 10 30  1  0  0  0  0
 10 31  1  0  0  0  0
 11 12  2  0  0  0  0
 12 13  1  0  0  0  0
 12 14  1  0  0  0  0
 13 32  1  0  0  0  0
 13 33  1  0  0  0  0
 14 15  1  0  0  0  0
 14 34  1  0  0  0  0
 15 16  2  0  0  0  0
 15 17  1  0  0  0  0
 17 18  2  0  0  0  0
 17 35  1  0  0  0  0
 18 11  1  0  0  0  0
 18 36  1  0  0  0  0
M  END
>  <IDENTIFIER>
CNP0356706.5

>  <Energy>
4.67685e+36

$$$$
