
 OpenBabel09072517493D

 49 51  0  0  0  0  0  0  0  0999 V2000
   -1.9942    0.1272   -2.5368 C   0  0  0  0  0  0  0  0  0  0  0  0
   -2.5495   -0.5943   -1.3802 N   0  0  0  0  0  0  0  0  0  0  0  0
   -2.8107   -2.0261   -1.6323 C   0  0  0  0  0  0  0  0  0  0  0  0
   -1.9437   -0.2274   -0.0671 C   0  0  1  0  0  0  0  0  0  0  0  0
   -2.8673   -0.6585    1.1020 C   0  0  0  0  0  0  0  0  0  0  0  0
   -4.2036    0.0434    1.0272 C   0  0  0  0  0  0  0  0  0  0  0  0
   -5.3913   -0.6759    0.8119 C   0  0  0  0  0  0  0  0  0  0  0  0
   -6.6178   -0.0048    0.7431 C   0  0  0  0  0  0  0  0  0  0  0  0
   -6.6688    1.3839    0.8973 C   0  0  0  0  0  0  0  0  0  0  0  0
   -5.4951    2.1055    1.1209 C   0  0  0  0  0  0  0  0  0  0  0  0
   -4.2685    1.4409    1.1850 C   0  0  0  0  0  0  0  0  0  0  0  0
   -0.4935   -0.6560    0.1948 C   0  0  0  0  0  0  0  0  0  0  0  0
   -0.0070   -0.2983    1.2602 O   0  0  0  0  0  0  0  0  0  0  0  0
    0.2924   -1.3470   -0.6863 N   0  0  0  0  0  0  0  0  0  0  0  0
    1.6943   -1.6264   -0.4104 C   0  0  0  0  0  0  0  0  0  0  0  0
    2.5112   -0.3505   -0.3231 C   0  0  0  0  0  0  0  0  0  0  0  0
    1.9732    0.7297   -0.5150 O   0  0  0  0  0  0  0  0  0  0  0  0
    3.9557   -0.3931   -0.0053 C   0  0  0  0  0  0  0  0  0  0  0  0
    4.7256   -1.5355    0.2024 C   0  0  0  0  0  0  0  0  0  0  0  0
    6.0050   -1.1935    0.4769 N   0  0  0  0  0  0  0  0  0  0  0  0
    6.0551    0.1493    0.4484 C   0  0  0  0  0  0  0  0  0  0  0  0
    7.1682    0.9575    0.6772 C   0  0  0  0  0  0  0  0  0  0  0  0
    6.9966    2.3513    0.6016 C   0  0  0  0  0  0  0  0  0  0  0  0
    5.7312    2.8996    0.3026 C   0  0  0  0  0  0  0  0  0  0  0  0
    4.6259    2.0609    0.0753 C   0  0  0  0  0  0  0  0  0  0  0  0
    4.8222    0.6780    0.1560 C   0  0  0  0  0  0  0  0  0  0  0  0
   -2.6325   -0.0400   -3.4305 H   0  0  0  0  0  0  0  0  0  0  0  0
   -0.9643   -0.1840   -2.7852 H   0  0  0  0  0  0  0  0  0  0  0  0
   -1.9963    1.2206   -2.3416 H   0  0  0  0  0  0  0  0  0  0  0  0
   -3.2422   -2.1706   -2.6460 H   0  0  0  0  0  0  0  0  0  0  0  0
   -3.5718   -2.4106   -0.9270 H   0  0  0  0  0  0  0  0  0  0  0  0
   -1.9124   -2.6589   -1.5393 H   0  0  0  0  0  0  0  0  0  0  0  0
   -1.8943    0.8827   -0.0244 H   0  0  0  0  0  0  0  0  0  0  0  0
   -2.4148   -0.3878    2.0810 H   0  0  0  0  0  0  0  0  0  0  0  0
   -2.9804   -1.7625    1.1051 H   0  0  0  0  0  0  0  0  0  0  0  0
   -5.3698   -1.7512    0.6904 H   0  0  0  0  0  0  0  0  0  0  0  0
   -7.5299   -0.5605    0.5703 H   0  0  0  0  0  0  0  0  0  0  0  0
   -7.6182    1.9015    0.8462 H   0  0  0  0  0  0  0  0  0  0  0  0
   -5.5337    3.1799    1.2458 H   0  0  0  0  0  0  0  0  0  0  0  0
   -3.3694    2.0175    1.3645 H   0  0  0  0  0  0  0  0  0  0  0  0
   -0.0663   -1.6794   -1.5845 H   0  0  0  0  0  0  0  0  0  0  0  0
    2.1172   -2.2485   -1.2294 H   0  0  0  0  0  0  0  0  0  0  0  0
    1.7738   -2.1976    0.5394 H   0  0  0  0  0  0  0  0  0  0  0  0
    4.3741   -2.5581    0.1566 H   0  0  0  0  0  0  0  0  0  0  0  0
    6.7953   -1.8473    0.6743 H   0  0  0  0  0  0  0  0  0  0  0  0
    8.1344    0.5276    0.9075 H   0  0  0  0  0  0  0  0  0  0  0  0
    7.8392    3.0073    0.7757 H   0  0  0  0  0  0  0  0  0  0  0  0
    5.6102    3.9738    0.2483 H   0  0  0  0  0  0  0  0  0  0  0  0
    3.6608    2.4912   -0.1515 H   0  0  0  0  0  0  0  0  0  0  0  0
  1  2  1  0  0  0  0
  1 27  1  0  0  0  0
  1 28  1  0  0  0  0
  1 29  1  0  0  0  0
  2  3  1  0  0  0  0
  2  4  1  0  0  0  0
  3 30  1  0  0  0  0
  3 31  1  0  0  0  0
  3 32  1  0  0  0  0
  4  5  1  0  0  0  0
  4 12  1  0  0  0  0
  4 33  1  1  0  0  0
  5  6  1  0  0  0  0
  5 34  1  0  0  0  0
  5 35  1  0  0  0  0
  6  7  2  0  0  0  0
  7  8  1  0  0  0  0
  7 36  1  0  0  0  0
  8  9  2  0  0  0  0
  8 37  1  0  0  0  0
  9 10  1  0  0  0  0
  9 38  1  0  0  0  0
 10 11  2  0  0  0  0
 10 39  1  0  0  0  0
 11  6  1  0  0  0  0
 11 40  1  0  0  0  0
 12 13  2  0  0  0  0
 12 14  1  0  0  0  0
 14 15  1  0  0  0  0
 14 41  1  0  0  0  0
 15 16  1  0  0  0  0
 15 42  1  0  0  0  0
 15 43  1  0  0  0  0
 16 17  2  0  0  0  0
 16 18  1  0  0  0  0
 18 19  2  0  0  0  0
 19 20  1  0  0  0  0
 19 44  1  0  0  0  0
 20 21  1  0  0  0  0
 20 45  1  0  0  0  0
 21 22  2  0  0  0  0
 22 23  1  0  0  0  0
 22 46  1  0  0  0  0
 23 24  2  0  0  0  0
 23 47  1  0  0  0  0
 24 25  1  0  0  0  0
 24 48  1  0  0  0  0
 25 26  2  0  0  0  0
 25 49  1  0  0  0  0
 26 18  1  0  0  0  0
 26 21  1  0  0  0  0
M  END
>  <IDENTIFIER>
CNP0310051.1

>  <Energy>
432.827

$$$$
