
 OpenBabel09102508583D

 45 46  0  0  0  0  0  0  0  0999 V2000
   -2.9262   -1.7485   -0.1808 C   0  0  0  0  0  0  0  0  0  0  0  0
   -2.2904   -0.3350   -0.0323 C   0  0  0  0  0  0  0  0  0  0  0  0
   -3.0991    0.3979    1.0625 C   0  0  0  0  0  0  0  0  0  0  0  0
   -2.4679    0.3980   -1.4219 C   0  0  0  0  0  0  0  0  0  0  0  0
   -1.2622    0.1478   -2.3413 C   0  0  0  0  0  0  0  0  0  0  0  0
    0.0822    0.6904   -1.7493 C   0  0  0  0  0  0  0  0  0  0  0  0
    0.1540    0.7385   -0.1736 C   0  0  1  0  0  0  0  0  0  0  0  0
   -0.3994    2.1299    0.3053 C   0  0  0  0  0  0  0  0  0  0  0  0
   -0.7395   -0.4802    0.3146 C   0  0  1  0  0  0  0  0  0  0  0  0
   -0.2606   -0.9827    1.7069 C   0  0  1  0  0  0  0  0  0  0  0  0
   -1.0732   -1.9971    2.2417 O   0  0  0  0  0  0  0  0  0  0  0  0
    1.1459   -1.5273    1.4518 C   0  0  0  0  0  0  0  0  0  0  0  0
    2.0434   -0.7974    0.7516 C   0  0  0  0  0  0  0  0  0  0  0  0
    3.3673   -1.4320    0.3708 C   0  0  0  0  0  0  0  0  0  0  0  0
    3.5320   -1.4448   -1.0200 O   0  0  0  0  0  0  0  0  0  0  0  0
    1.6628    0.6586    0.4266 C   0  0  2  0  0  0  0  0  0  0  0  0
    1.6739    1.3164    1.6826 O   0  0  0  0  0  0  0  0  0  0  0  0
    2.6828    1.4116   -0.4912 C   0  0  0  0  0  0  0  0  0  0  0  0
    3.9678    1.4612    0.0735 O   0  0  0  0  0  0  0  0  0  0  0  0
   -3.9931   -1.6659   -0.4824 H   0  0  0  0  0  0  0  0  0  0  0  0
   -2.9281   -2.3198    0.7639 H   0  0  0  0  0  0  0  0  0  0  0  0
   -2.4080   -2.3498   -0.9572 H   0  0  0  0  0  0  0  0  0  0  0  0
   -4.1724    0.4520    0.7786 H   0  0  0  0  0  0  0  0  0  0  0  0
   -2.7600    1.4306    1.2426 H   0  0  0  0  0  0  0  0  0  0  0  0
   -3.0273   -0.1458    2.0279 H   0  0  0  0  0  0  0  0  0  0  0  0
   -2.5919    1.4865   -1.3397 H   0  0  0  0  0  0  0  0  0  0  0  0
   -3.4169    0.0833   -1.9085 H   0  0  0  0  0  0  0  0  0  0  0  0
   -1.4120    0.5599   -3.3620 H   0  0  0  0  0  0  0  0  0  0  0  0
   -1.1903   -0.9548   -2.4591 H   0  0  0  0  0  0  0  0  0  0  0  0
    0.3039    1.7065   -2.1431 H   0  0  0  0  0  0  0  0  0  0  0  0
    0.8546    0.0090   -2.1648 H   0  0  0  0  0  0  0  0  0  0  0  0
   -1.3620    2.4485   -0.0908 H   0  0  0  0  0  0  0  0  0  0  0  0
    0.2822    2.9486   -0.0004 H   0  0  0  0  0  0  0  0  0  0  0  0
   -0.5019    2.1674    1.4099 H   0  0  0  0  0  0  0  0  0  0  0  0
   -0.4333   -1.3262   -0.3487 H   0  0  0  0  0  0  0  0  0  0  0  0
   -0.2584   -0.1395    2.4276 H   0  0  0  0  0  0  0  0  0  0  0  0
   -0.9504   -2.8164    1.6938 H   0  0  0  0  0  0  0  0  0  0  0  0
    1.3709   -2.5570    1.7178 H   0  0  0  0  0  0  0  0  0  0  0  0
    3.4617   -2.4722    0.7595 H   0  0  0  0  0  0  0  0  0  0  0  0
    4.2014   -0.8685    0.8341 H   0  0  0  0  0  0  0  0  0  0  0  0
    2.9336   -2.1566   -1.3683 H   0  0  0  0  0  0  0  0  0  0  0  0
    2.5567    1.1829    2.1196 H   0  0  0  0  0  0  0  0  0  0  0  0
    2.3351    2.4469   -0.7031 H   0  0  0  0  0  0  0  0  0  0  0  0
    2.7705    0.9257   -1.4817 H   0  0  0  0  0  0  0  0  0  0  0  0
    4.0344    2.3121    0.5806 H   0  0  0  0  0  0  0  0  0  0  0  0
  1  2  1  0  0  0  0
  1 20  1  0  0  0  0
  1 21  1  0  0  0  0
  1 22  1  0  0  0  0
  2  3  1  0  0  0  0
  2  4  1  0  0  0  0
  3 23  1  0  0  0  0
  3 24  1  0  0  0  0
  3 25  1  0  0  0  0
  4  5  1  0  0  0  0
  4 26  1  0  0  0  0
  4 27  1  0  0  0  0
  5  6  1  0  0  0  0
  5 28  1  0  0  0  0
  5 29  1  0  0  0  0
  6  7  1  0  0  0  0
  6 30  1  0  0  0  0
  6 31  1  0  0  0  0
  7  8  1  1  0  0  0
  7  9  1  0  0  0  0
  8 32  1  0  0  0  0
  8 33  1  0  0  0  0
  8 34  1  0  0  0  0
  9 10  1  0  0  0  0
  9  2  1  0  0  0  0
  9 35  1  6  0  0  0
 10 11  1  0  0  0  0
 10 12  1  0  0  0  0
 10 36  1  1  0  0  0
 11 37  1  0  0  0  0
 12 13  2  0  0  0  0
 12 38  1  0  0  0  0
 13 14  1  0  0  0  0
 13 16  1  0  0  0  0
 14 15  1  0  0  0  0
 14 39  1  0  0  0  0
 14 40  1  0  0  0  0
 15 41  1  0  0  0  0
 16 17  1  1  0  0  0
 16 18  1  0  0  0  0
 16  7  1  0  0  0  0
 17 42  1  0  0  0  0
 18 19  1  0  0  0  0
 18 43  1  0  0  0  0
 18 44  1  0  0  0  0
 19 45  1  0  0  0  0
M  END
>  <IDENTIFIER>
CNP0186339.9

>  <Energy>
638.337

$$$$
