
 OpenBabel09052503032D

180179  0  0  0  0  0  0  0  0999 V2000
   25.9808   15.0000    0.0000 C   0  0  0  0  0  0  0  0  0  0  0  0
   24.6817   14.2500    0.0000 C   0  0  0  0  0  0  0  0  0  0  0  0
   23.6433   13.0517    0.6669 C   0  0  0  0  0  0  0  0  0  0  0  0
   22.0836   12.7500    0.0000 C   0  0  0  0  0  0  0  0  0  0  0  0
   20.7846   12.0000    0.0000 C   0  0  0  0  0  2  0  0  0  0  0  0
   19.4856   11.2500    0.0000 C   0  0  0  0  0  0  0  0  0  0  0  0
   18.1865   10.5000    0.0000 C   0  0  0  0  0  0  0  0  0  0  0  0
   16.8875    9.7500    0.0000 C   0  0  0  0  0  2  0  0  0  0  0  0
   15.5885    9.0000    0.0000 C   0  0  0  0  0  0  0  0  0  0  0  0
   13.9448    8.6520   -0.0503 C   0  0  0  0  0  0  0  0  0  0  0  0
   13.3401    7.0654    0.0627 C   0  0  0  0  0  0  0  0  0  0  0  0
   11.6913    6.7500    0.0000 C   0  0  0  0  0  0  0  0  0  0  0  0
   10.3923    6.0000    0.0000 C   0  0  0  0  0  0  0  0  0  0  0  0
    9.0933    5.2500    0.0000 C   0  0  0  0  0  0  0  0  0  0  0  0
    7.7942    4.5000    0.0000 C   0  0  0  0  0  0  0  0  0  0  0  0
    6.4952    3.7500    0.0000 C   0  0  0  0  0  0  0  0  0  0  0  0
    5.1962    3.0000    0.0000 C   0  0  0  0  0  0  0  0  0  0  0  0
    3.5850    2.7431   -0.2019 C   0  0  0  0  0  0  0  0  0  0  0  0
    3.0016    1.2345    0.2073 C   0  0  0  0  0  0  0  0  0  0  0  0
    1.4356    0.8011   -0.0602 C   0  0  0  0  0  0  0  0  0  0  0  0
    0.7152   -0.5289    0.5518 C   0  0  0  0  0  0  0  0  0  0  0  0
    0.7053   -0.6362    1.7674 O   0  0  0  0  0  0  0  0  0  0  0  0
   -0.0522   -1.4681   -0.2083 O   0  0  0  0  0  0  0  0  0  0  0  0
   -1.2990   -2.2500    0.0000 C   0  0  2  0  0  0  0  0  0  0  0  0
   -2.0490   -0.9510   -0.0000 C   0  0  0  0  0  0  0  0  0  0  0  0
   -2.6606    0.1443    0.7754 O   0  0  0  0  0  0  0  0  0  0  0  0
   -3.7953    0.9175    0.2664 C   0  0  0  0  0  0  0  0  0  0  0  0
   -4.3114    0.5150   -0.7661 O   0  0  0  0  0  0  0  0  0  0  0  0
   -4.4968    2.2939    0.8449 C   0  0  0  0  0  0  0  0  0  0  0  0
   -5.7990    2.9462    0.0000 C   0  0  0  0  0  0  0  0  0  0  0  0
   -6.5490    4.2452    0.0000 C   0  0  0  0  0  0  0  0  0  0  0  0
   -7.2990    5.5442    0.0000 C   0  0  0  0  0  0  0  0  0  0  0  0
   -8.0490    6.8433    0.0000 C   0  0  0  0  0  0  0  0  0  0  0  0
   -8.7990    8.1423    0.0000 C   0  0  0  0  0  0  0  0  0  0  0  0
   -9.5490    9.4413    0.0000 C   0  0  0  0  0  0  0  0  0  0  0  0
   -9.8850   11.0845    0.1079 C   0  0  0  0  0  0  0  0  0  0  0  0
  -11.4430   11.7069   -0.1894 C   0  0  0  0  0  0  0  0  0  0  0  0
  -11.7990   13.3385    0.0000 C   0  0  0  0  0  0  0  0  0  0  0  0
  -12.5490   14.6375    0.0000 C   0  0  0  0  0  0  0  0  0  0  0  0
  -13.2990   15.9365    0.0000 C   0  0  0  0  0  0  0  0  0  0  0  0
  -14.0490   17.2356    0.0000 C   0  0  0  0  0  0  0  0  0  0  0  0
  -14.7990   18.5346    0.0000 C   0  0  0  0  0  2  0  0  0  0  0  0
  -15.5490   19.8336    0.0000 C   0  0  0  0  0  0  0  0  0  0  0  0
  -15.7958   21.4127   -0.6234 C   0  0  0  0  0  0  0  0  0  0  0  0
  -17.0490   22.4317    0.0000 C   0  0  3  0  0  0  0  0  0  0  0  0
  -17.7990   23.7308    0.0000 C   0  0  0  0  0  0  0  0  0  0  0  0
  -18.3481   21.6817    0.0000 C   0  0  0  0  0  0  0  0  0  0  0  0
  -19.6471   20.9317    0.0000 C   0  0  0  0  0  0  0  0  0  0  0  0
   -0.5490   -3.5490    0.0000 C   0  0  0  0  0  0  0  0  0  0  0  0
    0.6857   -4.0676   -0.6235 O   0  0  0  0  0  0  0  0  0  0  0  0
    1.4065   -5.2353   -0.1335 C   0  0  0  0  0  0  0  0  0  0  0  0
    1.0749   -5.6476    0.9683 O   0  0  0  0  0  0  0  0  0  0  0  0
    2.6035   -6.1294   -0.8525 C   0  0  0  0  0  0  0  0  0  0  0  0
    3.2010   -7.4462    0.0000 C   0  0  0  0  0  0  0  0  0  0  0  0
    3.9510   -8.7452    0.0000 C   0  0  0  0  0  0  0  0  0  0  0  0
    4.7010  -10.0442    0.0000 C   0  0  0  0  0  0  0  0  0  0  0  0
    5.4510  -11.3433    0.0000 C   0  0  0  0  0  0  0  0  0  0  0  0
    6.2010  -12.6423    0.0000 C   0  0  0  0  0  0  0  0  0  0  0  0
    6.9510  -13.9413    0.0000 C   0  0  0  0  0  0  0  0  0  0  0  0
    7.3854  -15.5217    0.3680 C   0  0  0  0  0  0  0  0  0  0  0  0
    8.7539  -16.2523   -0.3310 C   0  0  0  0  0  0  0  0  0  0  0  0
    9.2010  -17.8385    0.0000 C   0  0  0  0  0  0  0  0  0  0  0  0
    9.9510  -19.1375    0.0000 C   0  0  0  0  0  2  0  0  0  0  0  0
   10.7010  -20.4365    0.0000 C   0  0  0  0  0  0  0  0  0  0  0  0
   11.4510  -21.7356    0.0000 C   0  0  0  0  0  0  0  0  0  0  0  0
   12.2010  -23.0346    0.0000 C   0  0  0  0  0  0  0  0  0  0  0  0
   12.9510  -24.3336    0.0000 C   0  0  0  0  0  0  0  0  0  0  0  0
   10.9019  -23.7846    0.0000 C   0  0  0  0  0  0  0  0  0  0  0  0
   26.6225   14.1107   -0.1884 H   0  0  0  0  0  0  0  0  0  0  0  0
   25.8191   15.6079   -0.9240 H   0  0  0  0  0  0  0  0  0  0  0  0
   26.9075   15.5350    0.0000 H   0  0  0  0  0  0  0  0  0  0  0  0
   23.9701   15.1053    0.0533 H   0  0  0  0  0  0  0  0  0  0  0  0
   24.6398   13.8709   -1.0519 H   0  0  0  0  0  0  0  0  0  0  0  0
   23.4971   13.3050    1.7375 H   0  0  0  0  0  0  0  0  0  0  0  0
   24.1978   12.0905    0.6274 H   0  0  0  0  0  0  0  0  0  0  0  0
   22.3673   12.5915   -1.0610 H   0  0  0  0  0  0  0  0  0  0  0  0
   21.6761   13.7816    0.0326 H   0  0  0  0  0  0  0  0  0  0  0  0
   19.8548   10.6942    0.8958 H   0  0  0  0  0  0  0  0  0  0  0  0
   19.8546   10.6945   -0.8961 H   0  0  0  0  0  0  0  0  0  0  0  0
   17.8175   11.0555    0.8961 H   0  0  0  0  0  0  0  0  0  0  0  0
   17.8173   11.0558   -0.8959 H   0  0  0  0  0  0  0  0  0  0  0  0
   15.8754    8.3081   -0.8192 H   0  0  0  0  0  0  0  0  0  0  0  0
   15.7921    8.4518    0.9435 H   0  0  0  0  0  0  0  0  0  0  0  0
   13.4742    9.2276    0.7744 H   0  0  0  0  0  0  0  0  0  0  0  0
   13.5605    9.0723   -1.0033 H   0  0  0  0  0  0  0  0  0  0  0  0
   13.7114    6.6502    1.0229 H   0  0  0  0  0  0  0  0  0  0  0  0
   13.8117    6.4791   -0.7539 H   0  0  0  0  0  0  0  0  0  0  0  0
   11.5309    7.2921   -0.9635 H   0  0  0  0  0  0  0  0  0  0  0  0
   11.4301    7.5307    0.7635 H   0  0  0  0  0  0  0  0  0  0  0  0
   10.7897    5.3352   -0.8119 H   0  0  0  0  0  0  0  0  0  0  0  0
   10.7548    5.6519    1.0239 H   0  0  0  0  0  0  0  0  0  0  0  0
    9.5348    4.2941    0.4473 H   0  0  0  0  0  0  0  0  0  0  0  0
    8.7436    5.8905    0.8647 H   0  0  0  0  0  0  0  0  0  0  0  0
    8.1544    3.8381   -0.8491 H   0  0  0  0  0  0  0  0  0  0  0  0
    7.3634    5.4426   -0.4799 H   0  0  0  0  0  0  0  0  0  0  0  0
    6.1793    4.0154   -1.0628 H   0  0  0  0  0  0  0  0  0  0  0  0
    6.0545    4.4785    0.7331 H   0  0  0  0  0  0  0  0  0  0  0  0
    5.5185    2.1289   -0.6277 H   0  0  0  0  0  0  0  0  0  0  0  0
    5.2571    2.5841    1.0359 H   0  0  0  0  0  0  0  0  0  0  0  0
    3.3525    2.9246   -1.2724 H   0  0  0  0  0  0  0  0  0  0  0  0
    3.0290    3.4941    0.3981 H   0  0  0  0  0  0  0  0  0  0  0  0
    3.1829    1.1266    1.2973 H   0  0  0  0  0  0  0  0  0  0  0  0
    3.6258    0.4746   -0.3076 H   0  0  0  0  0  0  0  0  0  0  0  0
    1.2666    0.8102   -1.1569 H   0  0  0  0  0  0  0  0  0  0  0  0
    0.8455    1.6416    0.3621 H   0  0  0  0  0  0  0  0  0  0  0  0
   -1.6073   -2.5401   -1.0465 H   0  0  0  0  0  0  0  0  0  0  0  0
   -3.0257   -1.4642   -0.1979 H   0  0  0  0  0  0  0  0  0  0  0  0
   -1.8444   -0.4460   -0.9874 H   0  0  0  0  0  0  0  0  0  0  0  0
   -3.6993    3.0652    0.8670 H   0  0  0  0  0  0  0  0  0  0  0  0
   -4.8267    2.1126    1.8888 H   0  0  0  0  0  0  0  0  0  0  0  0
   -6.5582    2.1247   -0.0273 H   0  0  0  0  0  0  0  0  0  0  0  0
   -5.3881    2.9395   -1.0370 H   0  0  0  0  0  0  0  0  0  0  0  0
   -6.8659    3.8850    1.0301 H   0  0  0  0  0  0  0  0  0  0  0  0
   -5.5749    4.7975    0.0122 H   0  0  0  0  0  0  0  0  0  0  0  0
   -7.0579    5.7858    1.0950 H   0  0  0  0  0  0  0  0  0  0  0  0
   -8.2663    4.9656   -0.0049 H   0  0  0  0  0  0  0  0  0  0  0  0
   -8.3949    6.6632   -1.0577 H   0  0  0  0  0  0  0  0  0  0  0  0
   -7.0126    7.3320   -0.0654 H   0  0  0  0  0  0  0  0  0  0  0  0
   -8.1634    8.6781   -0.7797 H   0  0  0  0  0  0  0  0  0  0  0  0
   -8.4326    8.3580    1.0386 H   0  0  0  0  0  0  0  0  0  0  0  0
  -10.0778    9.3126   -0.9811 H   0  0  0  0  0  0  0  0  0  0  0  0
  -10.3345    9.1461    0.7385 H   0  0  0  0  0  0  0  0  0  0  0  0
   -9.5985   11.3977    1.1341 H   0  0  0  0  0  0  0  0  0  0  0  0
   -9.2008   11.6032   -0.5957 H   0  0  0  0  0  0  0  0  0  0  0  0
  -12.1498   11.1507    0.4616 H   0  0  0  0  0  0  0  0  0  0  0  0
  -11.6878   11.4427   -1.2396 H   0  0  0  0  0  0  0  0  0  0  0  0
  -10.8858   13.6799   -0.5513 H   0  0  0  0  0  0  0  0  0  0  0  0
  -11.4652   13.3838    1.0660 H   0  0  0  0  0  0  0  0  0  0  0  0
  -12.5883   14.6114   -1.1243 H   0  0  0  0  0  0  0  0  0  0  0  0
  -13.3781   14.0017    0.4468 H   0  0  0  0  0  0  0  0  0  0  0  0
  -14.2583   15.5140   -0.4448 H   0  0  0  0  0  0  0  0  0  0  0  0
  -13.3693   15.8928    1.1249 H   0  0  0  0  0  0  0  0  0  0  0  0
  -13.8509   17.4030   -1.0899 H   0  0  0  0  0  0  0  0  0  0  0  0
  -13.2229   17.7912    0.5148 H   0  0  0  0  0  0  0  0  0  0  0  0
  -15.5047   20.0616    1.0851 H   0  0  0  0  0  0  0  0  0  0  0  0
  -16.5478   19.3944   -0.1832 H   0  0  0  0  0  0  0  0  0  0  0  0
  -14.8424   21.9664   -0.4955 H   0  0  0  0  0  0  0  0  0  0  0  0
  -15.9645   21.3028   -1.7152 H   0  0  0  0  0  0  0  0  0  0  0  0
  -16.7091   22.4481    1.0694 H   0  0  0  0  0  0  0  0  0  0  0  0
  -16.9121   24.3752    0.1994 H   0  0  0  0  0  0  0  0  0  0  0  0
  -17.9753   23.7895   -1.1042 H   0  0  0  0  0  0  0  0  0  0  0  0
  -18.3340   24.6575    0.0000 H   0  0  0  0  0  0  0  0  0  0  0  0
  -18.2593   21.4768   -1.0992 H   0  0  0  0  0  0  0  0  0  0  0  0
  -17.9110   20.8354    0.5744 H   0  0  0  0  0  0  0  0  0  0  0  0
  -20.2486   21.7415   -0.4785 H   0  0  0  0  0  0  0  0  0  0  0  0
  -19.8601   21.0098    1.0969 H   0  0  0  0  0  0  0  0  0  0  0  0
  -20.5737   20.3967    0.0000 H   0  0  0  0  0  0  0  0  0  0  0  0
   -0.3194   -3.5889    1.0883 H   0  0  0  0  0  0  0  0  0  0  0  0
   -1.3050   -4.3684   -0.0857 H   0  0  0  0  0  0  0  0  0  0  0  0
    2.1680   -6.5196   -1.7966 H   0  0  0  0  0  0  0  0  0  0  0  0
    3.4548   -5.4682   -1.1170 H   0  0  0  0  0  0  0  0  0  0  0  0
    3.6180   -6.9324    0.8971 H   0  0  0  0  0  0  0  0  0  0  0  0
    2.1610   -7.7775    0.2824 H   0  0  0  0  0  0  0  0  0  0  0  0
    3.3346   -9.0961   -0.8700 H   0  0  0  0  0  0  0  0  0  0  0  0
    3.4647   -9.0813    0.9659 H   0  0  0  0  0  0  0  0  0  0  0  0
    5.3281   -9.6373   -0.8475 H   0  0  0  0  0  0  0  0  0  0  0  0
    5.3367   -9.7170    0.8798 H   0  0  0  0  0  0  0  0  0  0  0  0
    5.0329  -11.5891   -1.0206 H   0  0  0  0  0  0  0  0  0  0  0  0
    4.6862  -11.6527    0.7853 H   0  0  0  0  0  0  0  0  0  0  0  0
    6.4986  -12.4812    1.0730 H   0  0  0  0  0  0  0  0  0  0  0  0
    5.2929  -13.3229   -0.0692 H   0  0  0  0  0  0  0  0  0  0  0  0
    7.9809  -13.5317    0.1584 H   0  0  0  0  0  0  0  0  0  0  0  0
    6.9377  -14.1001   -1.1069 H   0  0  0  0  0  0  0  0  0  0  0  0
    6.5126  -16.1605    0.1164 H   0  0  0  0  0  0  0  0  0  0  0  0
    7.5237  -15.5717    1.4682 H   0  0  0  0  0  0  0  0  0  0  0  0
    8.6273  -16.1818   -1.4316 H   0  0  0  0  0  0  0  0  0  0  0  0
    9.6222  -15.6154   -0.0600 H   0  0  0  0  0  0  0  0  0  0  0  0
    9.1939  -17.7304    1.1047 H   0  0  0  0  0  0  0  0  0  0  0  0
    8.2223  -18.2900   -0.2654 H   0  0  0  0  0  0  0  0  0  0  0  0
   11.2690  -19.9927    0.8731 H   0  0  0  0  0  0  0  0  0  0  0  0
   11.2887  -19.9740   -0.8443 H   0  0  0  0  0  0  0  0  0  0  0  0
   11.0388  -21.8751   -1.0623 H   0  0  0  0  0  0  0  0  0  0  0  0
   10.8123  -21.8595    0.9665 H   0  0  0  0  0  0  0  0  0  0  0  0
   12.6472  -22.6739    0.9707 H   0  0  0  0  0  0  0  0  0  0  0  0
   12.9480  -24.6365    1.0868 H   0  0  0  0  0  0  0  0  0  0  0  0
   13.9403  -23.8886   -0.2537 H   0  0  0  0  0  0  0  0  0  0  0  0
   13.4860  -25.2602    0.0000 H   0  0  0  0  0  0  0  0  0  0  0  0
   10.8608  -24.3004    1.0005 H   0  0  0  0  0  0  0  0  0  0  0  0
   10.8790  -24.2372   -1.0323 H   0  0  0  0  0  0  0  0  0  0  0  0
    9.9752  -24.3196    0.0000 H   0  0  0  0  0  0  0  0  0  0  0  0
  1  2  1  0  0  0  0
  1 69  1  0  0  0  0
  1 70  1  0  0  0  0
  1 71  1  0  0  0  0
  2  3  1  0  0  0  0
  2 72  1  0  0  0  0
  2 73  1  0  0  0  0
  3  4  1  0  0  0  0
  3 74  1  0  0  0  0
  3 75  1  0  0  0  0
  4  5  1  0  0  0  0
  4 76  1  0  0  0  0
  4 77  1  0  0  0  0
  5  6  1  0  0  0  0
  6  7  1  0  0  0  0
  6 78  1  0  0  0  0
  6 79  1  0  0  0  0
  7  8  1  0  0  0  0
  7 80  1  0  0  0  0
  7 81  1  0  0  0  0
  8  9  1  0  0  0  0
  9 10  1  0  0  0  0
  9 82  1  0  0  0  0
  9 83  1  0  0  0  0
 10 11  1  0  0  0  0
 10 84  1  0  0  0  0
 10 85  1  0  0  0  0
 11 12  1  0  0  0  0
 11 86  1  0  0  0  0
 11 87  1  0  0  0  0
 12 13  1  0  0  0  0
 12 88  1  0  0  0  0
 12 89  1  0  0  0  0
 13 14  1  0  0  0  0
 13 90  1  0  0  0  0
 13 91  1  0  0  0  0
 14 15  1  0  0  0  0
 14 92  1  0  0  0  0
 14 93  1  0  0  0  0
 15 16  1  0  0  0  0
 15 94  1  0  0  0  0
 15 95  1  0  0  0  0
 16 17  1  0  0  0  0
 16 96  1  0  0  0  0
 16 97  1  0  0  0  0
 17 18  1  0  0  0  0
 17 98  1  0  0  0  0
 17 99  1  0  0  0  0
 18 19  1  0  0  0  0
 18100  1  0  0  0  0
 18101  1  0  0  0  0
 19 20  1  0  0  0  0
 19102  1  0  0  0  0
 19103  1  0  0  0  0
 20 21  1  0  0  0  0
 20104  1  0  0  0  0
 20105  1  0  0  0  0
 21 22  2  0  0  0  0
 21 23  1  0  0  0  0
 23 24  1  0  0  0  0
 24 25  1  0  0  0  0
 24 49  1  0  0  0  0
 24106  1  6  0  0  0
 25 26  1  0  0  0  0
 25107  1  0  0  0  0
 25108  1  0  0  0  0
 26 27  1  0  0  0  0
 27 28  2  0  0  0  0
 27 29  1  0  0  0  0
 29 30  1  0  0  0  0
 29109  1  0  0  0  0
 29110  1  0  0  0  0
 30 31  1  0  0  0  0
 30111  1  0  0  0  0
 30112  1  0  0  0  0
 31 32  1  0  0  0  0
 31113  1  0  0  0  0
 31114  1  0  0  0  0
 32 33  1  0  0  0  0
 32115  1  0  0  0  0
 32116  1  0  0  0  0
 33 34  1  0  0  0  0
 33117  1  0  0  0  0
 33118  1  0  0  0  0
 34 35  1  0  0  0  0
 34119  1  0  0  0  0
 34120  1  0  0  0  0
 35 36  1  0  0  0  0
 35121  1  0  0  0  0
 35122  1  0  0  0  0
 36 37  1  0  0  0  0
 36123  1  0  0  0  0
 36124  1  0  0  0  0
 37 38  1  0  0  0  0
 37125  1  0  0  0  0
 37126  1  0  0  0  0
 38 39  1  0  0  0  0
 38127  1  0  0  0  0
 38128  1  0  0  0  0
 39 40  1  0  0  0  0
 39129  1  0  0  0  0
 39130  1  0  0  0  0
 40 41  1  0  0  0  0
 40131  1  0  0  0  0
 40132  1  0  0  0  0
 41 42  1  0  0  0  0
 41133  1  0  0  0  0
 41134  1  0  0  0  0
 42 43  1  0  0  0  0
 43 44  1  0  0  0  0
 43135  1  0  0  0  0
 43136  1  0  0  0  0
 44 45  1  0  0  0  0
 44137  1  0  0  0  0
 44138  1  0  0  0  0
 45 46  1  0  0  0  0
 45 47  1  0  0  0  0
 45139  1  0  0  0  0
 46140  1  0  0  0  0
 46141  1  0  0  0  0
 46142  1  0  0  0  0
 47 48  1  0  0  0  0
 47143  1  0  0  0  0
 47144  1  0  0  0  0
 48145  1  0  0  0  0
 48146  1  0  0  0  0
 48147  1  0  0  0  0
 49 50  1  0  0  0  0
 49148  1  0  0  0  0
 49149  1  0  0  0  0
 50 51  1  0  0  0  0
 51 52  2  0  0  0  0
 51 53  1  0  0  0  0
 53 54  1  0  0  0  0
 53150  1  0  0  0  0
 53151  1  0  0  0  0
 54 55  1  0  0  0  0
 54152  1  0  0  0  0
 54153  1  0  0  0  0
 55 56  1  0  0  0  0
 55154  1  0  0  0  0
 55155  1  0  0  0  0
 56 57  1  0  0  0  0
 56156  1  0  0  0  0
 56157  1  0  0  0  0
 57 58  1  0  0  0  0
 57158  1  0  0  0  0
 57159  1  0  0  0  0
 58 59  1  0  0  0  0
 58160  1  0  0  0  0
 58161  1  0  0  0  0
 59 60  1  0  0  0  0
 59162  1  0  0  0  0
 59163  1  0  0  0  0
 60 61  1  0  0  0  0
 60164  1  0  0  0  0
 60165  1  0  0  0  0
 61 62  1  0  0  0  0
 61166  1  0  0  0  0
 61167  1  0  0  0  0
 62 63  1  0  0  0  0
 62168  1  0  0  0  0
 62169  1  0  0  0  0
 63 64  1  0  0  0  0
 64 65  1  0  0  0  0
 64170  1  0  0  0  0
 64171  1  0  0  0  0
 65 66  1  0  0  0  0
 65172  1  0  0  0  0
 65173  1  0  0  0  0
 66 67  1  0  0  0  0
 66 68  1  0  0  0  0
 66174  1  0  0  0  0
 67175  1  0  0  0  0
 67176  1  0  0  0  0
 67177  1  0  0  0  0
 68178  1  0  0  0  0
 68179  1  0  0  0  0
 68180  1  0  0  0  0
M  END
>  <IDENTIFIER>
CNP0509851.1

>  <Energy>
16692.9

$$$$
