
 OpenBabel09122516573D

 82 85  0  0  0  0  0  0  0  0999 V2000
    1.6527    0.2584   -2.1630 O   0  0  0  0  0  0  0  0  0  0  0  0
    2.7045   -0.2552   -1.8175 C   0  0  0  0  0  0  0  0  0  0  0  0
    3.9997    0.4034   -2.0947 C   0  0  0  0  0  0  0  0  0  0  0  0
    4.0998    1.5903   -2.7228 C   0  0  0  0  0  0  0  0  0  0  0  0
    5.3889    2.2850   -3.0128 C   0  0  0  0  0  0  0  0  0  0  0  0
    6.6518    1.7574   -2.6593 C   0  0  0  0  0  0  0  0  0  0  0  0
    7.8232    2.4599   -2.9596 C   0  0  0  0  0  0  0  0  0  0  0  0
    7.7566    3.6912   -3.6123 C   0  0  0  0  0  0  0  0  0  0  0  0
    6.5172    4.2247   -3.9673 C   0  0  0  0  0  0  0  0  0  0  0  0
    5.3414    3.5281   -3.6706 C   0  0  0  0  0  0  0  0  0  0  0  0
    2.7308   -1.4420   -1.1626 O   0  0  0  0  0  0  0  0  0  0  0  0
    1.6802   -2.2324   -0.7241 C   0  0  0  0  0  0  0  0  0  0  0  0
    0.8206   -1.5429    0.3838 C   0  0  2  0  0  0  0  0  0  0  0  0
   -0.0611   -0.5593   -0.1665 O   0  0  0  0  0  0  0  0  0  0  0  0
   -1.1113   -1.0692   -0.9826 C   0  0  2  0  0  0  0  0  0  0  0  0
   -0.7672   -0.8898   -2.3473 O   0  0  0  0  0  0  0  0  0  0  0  0
   -1.7320   -1.4973   -3.1948 C   0  0  2  0  0  0  0  0  0  0  0  0
   -1.2236   -1.4344   -4.6407 C   0  0  0  0  0  0  0  0  0  0  0  0
   -0.0118   -2.1298   -4.7639 O   0  0  0  0  0  0  0  0  0  0  0  0
   -3.0896   -0.7649   -3.0463 C   0  0  1  0  0  0  0  0  0  0  0  0
   -4.0745   -1.3222   -3.8820 O   0  0  0  0  0  0  0  0  0  0  0  0
   -3.5333   -0.8165   -1.5692 C   0  0  2  0  0  0  0  0  0  0  0  0
   -4.7264   -0.1020   -1.3674 O   0  0  0  0  0  0  0  0  0  0  0  0
   -2.4054   -0.2915   -0.6604 C   0  0  1  0  0  0  0  0  0  0  0  0
   -2.7601   -0.5246    0.6959 O   0  0  0  0  0  0  0  0  0  0  0  0
   -2.8075    0.6445    1.5028 C   0  0  1  0  0  0  0  0  0  0  0  0
   -4.1692    0.9445    1.7895 O   0  0  0  0  0  0  0  0  0  0  0  0
   -4.2781    2.1456    2.5474 C   0  0  1  0  0  0  0  0  0  0  0  0
   -5.7619    2.5240    2.6687 C   0  0  0  0  0  0  0  0  0  0  0  0
   -5.9149    3.7427    3.3467 O   0  0  0  0  0  0  0  0  0  0  0  0
   -3.6112    1.9763    3.9444 C   0  0  1  0  0  0  0  0  0  0  0  0
   -4.2775    1.0308    4.7539 O   0  0  0  0  0  0  0  0  0  0  0  0
   -2.1351    1.5921    3.7271 C   0  0  1  0  0  0  0  0  0  0  0  0
   -1.4442    1.4214    4.9404 O   0  0  0  0  0  0  0  0  0  0  0  0
   -2.0227    0.3571    2.8154 C   0  0  1  0  0  0  0  0  0  0  0  0
   -2.4765   -0.7951    3.4977 O   0  0  0  0  0  0  0  0  0  0  0  0
    1.7354   -0.8564    1.2390 O   0  0  0  0  0  0  0  0  0  0  0  0
    1.7297   -1.4855    2.5083 C   0  0  2  0  0  0  0  0  0  0  0  0
    3.1338   -1.4944    3.1215 C   0  0  0  0  0  0  0  0  0  0  0  0
    4.0510   -2.1316    2.2706 O   0  0  0  0  0  0  0  0  0  0  0  0
    1.1531   -2.8804    2.3103 C   0  0  1  0  0  0  0  0  0  0  0  0
    0.6883   -3.4850    3.4913 O   0  0  0  0  0  0  0  0  0  0  0  0
    0.0728   -2.5494    1.3165 C   0  0  2  0  0  0  0  0  0  0  0  0
   -0.4944   -3.6821    0.7015 O   0  0  0  0  0  0  0  0  0  0  0  0
    4.8801   -0.1252   -1.7562 H   0  0  0  0  0  0  0  0  0  0  0  0
    3.1853    2.0842   -3.0408 H   0  0  0  0  0  0  0  0  0  0  0  0
    6.7574    0.8104   -2.1540 H   0  0  0  0  0  0  0  0  0  0  0  0
    8.7858    2.0474   -2.6849 H   0  0  0  0  0  0  0  0  0  0  0  0
    8.6659    4.2315   -3.8427 H   0  0  0  0  0  0  0  0  0  0  0  0
    6.4665    5.1801   -4.4734 H   0  0  0  0  0  0  0  0  0  0  0  0
    4.3913    3.9626   -3.9557 H   0  0  0  0  0  0  0  0  0  0  0  0
    2.1733   -3.1254   -0.2964 H   0  0  0  0  0  0  0  0  0  0  0  0
    1.0633   -2.5974   -1.5711 H   0  0  0  0  0  0  0  0  0  0  0  0
   -1.3108   -2.1386   -0.7894 H   0  0  0  0  0  0  0  0  0  0  0  0
   -1.8458   -2.5784   -2.9418 H   0  0  0  0  0  0  0  0  0  0  0  0
   -1.1007   -0.3780   -4.9747 H   0  0  0  0  0  0  0  0  0  0  0  0
   -1.9613   -1.9081   -5.3226 H   0  0  0  0  0  0  0  0  0  0  0  0
    0.7066   -1.5105   -4.4704 H   0  0  0  0  0  0  0  0  0  0  0  0
   -2.9436    0.2980   -3.3409 H   0  0  0  0  0  0  0  0  0  0  0  0
   -4.1667   -2.2808   -3.6393 H   0  0  0  0  0  0  0  0  0  0  0  0
   -3.7218   -1.8805   -1.3016 H   0  0  0  0  0  0  0  0  0  0  0  0
   -4.5545    0.8441   -1.6151 H   0  0  0  0  0  0  0  0  0  0  0  0
   -2.2298    0.7791   -0.9163 H   0  0  0  0  0  0  0  0  0  0  0  0
   -2.3178    1.5234    1.0183 H   0  0  0  0  0  0  0  0  0  0  0  0
   -3.7847    2.9821    1.9984 H   0  0  0  0  0  0  0  0  0  0  0  0
   -6.3437    1.7157    3.1691 H   0  0  0  0  0  0  0  0  0  0  0  0
   -6.1942    2.6376    1.6522 H   0  0  0  0  0  0  0  0  0  0  0  0
   -6.0387    3.5265    4.3077 H   0  0  0  0  0  0  0  0  0  0  0  0
   -3.6446    2.9483    4.4823 H   0  0  0  0  0  0  0  0  0  0  0  0
   -4.6319    0.3017    4.1844 H   0  0  0  0  0  0  0  0  0  0  0  0
   -1.6515    2.4401    3.1916 H   0  0  0  0  0  0  0  0  0  0  0  0
   -1.8621    0.6664    5.4295 H   0  0  0  0  0  0  0  0  0  0  0  0
   -0.9559    0.2001    2.5571 H   0  0  0  0  0  0  0  0  0  0  0  0
   -3.2108   -1.2309    2.9942 H   0  0  0  0  0  0  0  0  0  0  0  0
    1.0575   -0.8935    3.1698 H   0  0  0  0  0  0  0  0  0  0  0  0
    3.1172   -1.9718    4.1287 H   0  0  0  0  0  0  0  0  0  0  0  0
    3.4723   -0.4470    3.2693 H   0  0  0  0  0  0  0  0  0  0  0  0
    4.1256   -3.0734    2.5743 H   0  0  0  0  0  0  0  0  0  0  0  0
    1.9079   -3.5408    1.8356 H   0  0  0  0  0  0  0  0  0  0  0  0
    0.0254   -2.8737    3.9078 H   0  0  0  0  0  0  0  0  0  0  0  0
   -0.7240   -2.0010    1.8605 H   0  0  0  0  0  0  0  0  0  0  0  0
    0.2399   -4.2679    0.3841 H   0  0  0  0  0  0  0  0  0  0  0  0
  1  2  2  0  0  0  0
  2  3  1  0  0  0  0
  2 11  1  0  0  0  0
  3  4  2  3  0  0  0
  3 45  1  0  0  0  0
  4  5  1  0  0  0  0
  4 46  1  0  0  0  0
  5  6  2  0  0  0  0
  6  7  1  0  0  0  0
  6 47  1  0  0  0  0
  7  8  2  0  0  0  0
  7 48  1  0  0  0  0
  8  9  1  0  0  0  0
  8 49  1  0  0  0  0
  9 10  2  0  0  0  0
  9 50  1  0  0  0  0
 10  5  1  0  0  0  0
 10 51  1  0  0  0  0
 11 12  1  0  0  0  0
 12 52  1  0  0  0  0
 12 53  1  0  0  0  0
 13 12  1  0  0  0  0
 13 14  1  6  0  0  0
 13 37  1  0  0  0  0
 15 14  1  0  0  0  0
 15 16  1  0  0  0  0
 15 54  1  1  0  0  0
 16 17  1  0  0  0  0
 17 18  1  0  0  0  0
 17 20  1  0  0  0  0
 17 55  1  1  0  0  0
 18 19  1  0  0  0  0
 18 56  1  0  0  0  0
 18 57  1  0  0  0  0
 19 58  1  0  0  0  0
 20 21  1  0  0  0  0
 20 22  1  0  0  0  0
 20 59  1  6  0  0  0
 21 60  1  0  0  0  0
 22 23  1  0  0  0  0
 22 24  1  0  0  0  0
 22 61  1  1  0  0  0
 23 62  1  0  0  0  0
 24 25  1  0  0  0  0
 24 15  1  0  0  0  0
 24 63  1  6  0  0  0
 26 25  1  0  0  0  0
 26 27  1  0  0  0  0
 26 64  1  6  0  0  0
 27 28  1  0  0  0  0
 28 29  1  0  0  0  0
 28 31  1  0  0  0  0
 28 65  1  6  0  0  0
 29 30  1  0  0  0  0
 29 66  1  0  0  0  0
 29 67  1  0  0  0  0
 30 68  1  0  0  0  0
 31 32  1  0  0  0  0
 31 33  1  0  0  0  0
 31 69  1  1  0  0  0
 32 70  1  0  0  0  0
 33 34  1  0  0  0  0
 33 35  1  0  0  0  0
 33 71  1  6  0  0  0
 34 72  1  0  0  0  0
 35 36  1  0  0  0  0
 35 26  1  0  0  0  0
 35 73  1  6  0  0  0
 36 74  1  0  0  0  0
 37 38  1  0  0  0  0
 38 39  1  0  0  0  0
 38 41  1  0  0  0  0
 38 75  1  1  0  0  0
 39 40  1  0  0  0  0
 39 76  1  0  0  0  0
 39 77  1  0  0  0  0
 40 78  1  0  0  0  0
 41 42  1  0  0  0  0
 41 43  1  0  0  0  0
 41 79  1  6  0  0  0
 42 80  1  0  0  0  0
 43 44  1  0  0  0  0
 43 13  1  0  0  0  0
 43 81  1  1  0  0  0
 44 82  1  0  0  0  0
M  END
>  <IDENTIFIER>
CNP0465907.4

>  <Energy>
823.284

$$$$
