
 OpenBabel09072512503D

 66 69  0  0  0  0  0  0  0  0999 V2000
  -10.5911    1.3111    1.2608 C   0  0  0  0  0  0  0  0  0  0  0  0
   -9.7102    1.4750    0.2133 O   0  0  0  0  0  0  0  0  0  0  0  0
   -8.4056    1.0974    0.2012 C   0  0  0  0  0  0  0  0  0  0  0  0
   -7.6470    1.4007   -0.9313 C   0  0  0  0  0  0  0  0  0  0  0  0
   -6.2986    1.0517   -0.9990 C   0  0  0  0  0  0  0  0  0  0  0  0
   -5.6748    0.3746    0.0668 C   0  0  0  0  0  0  0  0  0  0  0  0
   -4.2003    0.0091   -0.0027 C   0  0  1  0  0  0  0  0  0  0  0  0
   -3.7945   -0.8108   -1.2230 C   0  0  0  0  0  0  0  0  0  0  0  0
   -2.2998   -0.4754   -1.4008 C   0  0  2  0  0  0  0  0  0  0  0  0
   -1.3349   -1.6841   -1.2319 C   0  0  0  0  0  0  0  0  0  0  0  0
    0.0844   -1.1012   -1.1330 C   0  0  2  0  0  0  0  0  0  0  0  0
    1.1841   -2.1702   -1.2156 C   0  0  0  0  0  0  0  0  0  0  0  0
    2.4364   -1.5763   -1.1303 O   0  0  0  0  0  0  0  0  0  0  0  0
    3.2877   -1.7140   -0.0779 C   0  0  0  0  0  0  0  0  0  0  0  0
    2.9454   -2.3570    0.9073 O   0  0  0  0  0  0  0  0  0  0  0  0
    4.6091   -1.0346   -0.0808 C   0  0  0  0  0  0  0  0  0  0  0  0
    5.3942   -1.0424    1.0816 C   0  0  0  0  0  0  0  0  0  0  0  0
    6.6431   -0.3898    1.1234 C   0  0  0  0  0  0  0  0  0  0  0  0
    7.4123   -0.4052    2.2438 O   0  0  0  0  0  0  0  0  0  0  0  0
    7.0937   -1.0092    3.4434 C   0  0  0  0  0  0  0  0  0  0  0  0
    7.1082    0.2708   -0.0327 C   0  0  0  0  0  0  0  0  0  0  0  0
    8.2978    0.9232   -0.0577 O   0  0  0  0  0  0  0  0  0  0  0  0
    8.6504    1.9345    0.8119 C   0  0  0  0  0  0  0  0  0  0  0  0
    6.3439    0.2643   -1.2088 C   0  0  0  0  0  0  0  0  0  0  0  0
    6.8517    0.9037   -2.2965 O   0  0  0  0  0  0  0  0  0  0  0  0
    6.2555    1.0087   -3.5340 C   0  0  0  0  0  0  0  0  0  0  0  0
    5.0885   -0.3793   -1.2259 C   0  0  0  0  0  0  0  0  0  0  0  0
    0.1999   -0.2640    0.1733 C   0  0  0  0  0  0  0  0  0  0  0  0
   -1.1625    0.2930    0.6368 C   0  0  0  0  0  0  0  0  0  0  0  0
   -1.9779    0.6921   -0.5265 N   0  0  2  0  0  0  0  0  0  0  0  0
   -3.2879    1.2224   -0.1283 C   0  0  0  0  0  0  0  0  0  0  0  0
   -6.4381    0.0626    1.2057 C   0  0  0  0  0  0  0  0  0  0  0  0
   -7.7908    0.4234    1.2765 C   0  0  0  0  0  0  0  0  0  0  0  0
  -11.5806    1.7173    0.9654 H   0  0  0  0  0  0  0  0  0  0  0  0
  -10.2315    1.8687    2.1515 H   0  0  0  0  0  0  0  0  0  0  0  0
  -10.7078    0.2337    1.5021 H   0  0  0  0  0  0  0  0  0  0  0  0
   -8.1040    1.9183   -1.7656 H   0  0  0  0  0  0  0  0  0  0  0  0
   -5.7469    1.3158   -1.8907 H   0  0  0  0  0  0  0  0  0  0  0  0
   -3.8899   -0.5463    0.9094 H   0  0  0  0  0  0  0  0  0  0  0  0
   -4.3082   -0.4004   -2.1173 H   0  0  0  0  0  0  0  0  0  0  0  0
   -4.0507   -1.8906   -1.1559 H   0  0  0  0  0  0  0  0  0  0  0  0
   -2.1549   -0.1289   -2.4499 H   0  0  0  0  0  0  0  0  0  0  0  0
   -1.4512   -2.3586   -2.1086 H   0  0  0  0  0  0  0  0  0  0  0  0
   -1.5521   -2.2722   -0.3134 H   0  0  0  0  0  0  0  0  0  0  0  0
    0.2095   -0.4191   -2.0065 H   0  0  0  0  0  0  0  0  0  0  0  0
    1.1121   -2.7169   -2.1805 H   0  0  0  0  0  0  0  0  0  0  0  0
    1.0222   -2.9110   -0.4023 H   0  0  0  0  0  0  0  0  0  0  0  0
    5.0285   -1.5524    1.9607 H   0  0  0  0  0  0  0  0  0  0  0  0
    7.9230   -0.8497    4.1627 H   0  0  0  0  0  0  0  0  0  0  0  0
    6.9568   -2.1026    3.3006 H   0  0  0  0  0  0  0  0  0  0  0  0
    6.1689   -0.5606    3.8654 H   0  0  0  0  0  0  0  0  0  0  0  0
    9.6833    2.2651    0.5810 H   0  0  0  0  0  0  0  0  0  0  0  0
    8.6169    1.6131    1.8702 H   0  0  0  0  0  0  0  0  0  0  0  0
    7.9660    2.7974    0.6666 H   0  0  0  0  0  0  0  0  0  0  0  0
    6.9259    1.5834   -4.2059 H   0  0  0  0  0  0  0  0  0  0  0  0
    5.2899    1.5496   -3.4484 H   0  0  0  0  0  0  0  0  0  0  0  0
    6.0973   -0.0001   -3.9705 H   0  0  0  0  0  0  0  0  0  0  0  0
    4.4888   -0.3770   -2.1256 H   0  0  0  0  0  0  0  0  0  0  0  0
    0.9347    0.5487   -0.0140 H   0  0  0  0  0  0  0  0  0  0  0  0
    0.5768   -0.8738    1.0241 H   0  0  0  0  0  0  0  0  0  0  0  0
   -1.0043    1.1300    1.3506 H   0  0  0  0  0  0  0  0  0  0  0  0
   -1.6888   -0.5123    1.1960 H   0  0  0  0  0  0  0  0  0  0  0  0
   -3.6398    1.8763   -0.9566 H   0  0  0  0  0  0  0  0  0  0  0  0
   -3.2560    1.8409    0.7963 H   0  0  0  0  0  0  0  0  0  0  0  0
   -5.9862   -0.4497    2.0460 H   0  0  0  0  0  0  0  0  0  0  0  0
   -8.3484    0.1766    2.1701 H   0  0  0  0  0  0  0  0  0  0  0  0
  1  2  1  0  0  0  0
  1 34  1  0  0  0  0
  1 35  1  0  0  0  0
  1 36  1  0  0  0  0
  2  3  1  0  0  0  0
  3  4  2  0  0  0  0
  4  5  1  0  0  0  0
  4 37  1  0  0  0  0
  5  6  2  0  0  0  0
  5 38  1  0  0  0  0
  6 32  1  0  0  0  0
  7  6  1  0  0  0  0
  7  8  1  0  0  0  0
  7 39  1  1  0  0  0
  8 40  1  0  0  0  0
  8 41  1  0  0  0  0
  9  8  1  0  0  0  0
  9 10  1  0  0  0  0
  9 42  1  6  0  0  0
 10 11  1  0  0  0  0
 10 43  1  0  0  0  0
 10 44  1  0  0  0  0
 11 12  1  0  0  0  0
 11 28  1  0  0  0  0
 11 45  1  6  0  0  0
 12 13  1  0  0  0  0
 12 46  1  0  0  0  0
 12 47  1  0  0  0  0
 13 14  1  0  0  0  0
 14 15  2  0  0  0  0
 14 16  1  0  0  0  0
 16 17  2  0  0  0  0
 17 18  1  0  0  0  0
 17 48  1  0  0  0  0
 18 19  1  0  0  0  0
 18 21  2  0  0  0  0
 19 20  1  0  0  0  0
 20 49  1  0  0  0  0
 20 50  1  0  0  0  0
 20 51  1  0  0  0  0
 21 22  1  0  0  0  0
 21 24  1  0  0  0  0
 22 23  1  0  0  0  0
 23 52  1  0  0  0  0
 23 53  1  0  0  0  0
 23 54  1  0  0  0  0
 24 25  1  0  0  0  0
 24 27  2  0  0  0  0
 25 26  1  0  0  0  0
 26 55  1  0  0  0  0
 26 56  1  0  0  0  0
 26 57  1  0  0  0  0
 27 16  1  0  0  0  0
 27 58  1  0  0  0  0
 28 29  1  0  0  0  0
 28 59  1  0  0  0  0
 28 60  1  0  0  0  0
 29 61  1  0  0  0  0
 29 62  1  0  0  0  0
 30 29  1  1  0  0  0
 30 31  1  0  0  0  0
 30  9  1  0  0  0  0
 31  7  1  0  0  0  0
 31 63  1  0  0  0  0
 31 64  1  0  0  0  0
 32 33  2  0  0  0  0
 32 65  1  0  0  0  0
 33  3  1  0  0  0  0
 33 66  1  0  0  0  0
M  END
>  <IDENTIFIER>
CNP0318630.2

>  <Energy>
612.678

$$$$
