
 OpenBabel09072500482D

181180  0  0  0  0  0  0  0  0999 V2000
   -6.0000  -10.3923    0.0000 C   0  0  0  0  0  0  0  0  0  0  0  0
   -5.2500   -9.0933    0.0000 C   0  0  0  0  0  0  0  0  0  0  0  0
   -4.5000   -7.7942    0.0000 C   0  0  0  0  0  0  0  0  0  0  0  0
   -3.7500   -6.4952    0.0000 C   0  0  0  0  0  0  0  0  0  0  0  0
   -3.0000   -5.1962    0.0000 C   0  0  0  0  0  0  0  0  0  0  0  0
   -1.8033   -4.8737    0.9509 C   0  0  0  0  0  0  0  0  0  0  0  0
   -1.1506   -3.5233    0.5021 C   0  0  0  0  0  0  0  0  0  0  0  0
    0.1445   -3.1088    1.2483 C   0  0  0  0  0  0  0  0  0  0  0  0
    0.5381   -1.6720    0.8777 C   0  0  0  0  0  0  0  0  0  0  0  0
    1.6820   -1.0923    0.3905 C   0  0  0  0  0  0  0  0  0  0  0  0
    3.0738   -1.6099    0.0045 C   0  0  0  0  0  0  0  0  0  0  0  0
    3.2729   -3.0963    0.1529 C   0  0  0  0  0  0  0  0  0  0  0  0
    4.6910   -3.6860   -0.1856 C   0  0  0  0  0  0  0  0  0  0  0  0
    4.5000   -5.1962    0.0000 C   0  0  0  0  0  0  0  0  0  0  0  0
    5.2500   -6.4952    0.0000 C   0  0  0  0  0  0  0  0  0  0  0  0
    6.0000   -7.7942    0.0000 C   0  0  0  0  0  0  0  0  0  0  0  0
    6.7500   -9.0933    0.0000 C   0  0  0  0  0  0  0  0  0  0  0  0
    7.5000  -10.3923    0.0000 C   0  0  0  0  0  0  0  0  0  0  0  0
    8.2500  -11.6913    0.0000 C   0  0  0  0  0  0  0  0  0  0  0  0
    8.5751  -13.3349    0.1220 C   0  0  0  0  0  0  0  0  0  0  0  0
   10.1430  -13.9502   -0.1188 C   0  0  0  0  0  0  0  0  0  0  0  0
   10.5000  -15.5885    0.0000 C   0  0  0  0  0  0  0  0  0  0  0  0
   11.2500  -16.8875    0.0000 C   0  0  0  0  0  2  0  0  0  0  0  0
   12.0000  -18.1865    0.0000 C   0  0  0  0  0  0  0  0  0  0  0  0
   13.0335  -17.9741    0.6134 O   0  0  0  0  0  0  0  0  0  0  0  0
   11.2500  -19.4856    0.0000 O   0  0  0  0  0  0  0  0  0  0  0  0
   12.0000  -20.7846    0.0000 C   0  0  1  0  0  0  0  0  0  0  0  0
   13.5305  -20.1787   -0.5400 C   0  0  0  0  0  0  0  0  0  0  0  0
   14.9289  -20.4695   -0.6729 O   0  0  0  0  0  0  0  0  0  0  0  0
   15.9104  -19.4515   -0.9037 C   0  0  0  0  0  0  0  0  0  0  0  0
   15.7326  -18.6440   -1.8015 O   0  0  0  0  0  0  0  0  0  0  0  0
   17.1962  -19.2846    0.0000 C   0  0  0  0  0  0  0  0  0  0  0  0
   18.4952  -18.5346    0.0000 C   0  0  0  0  0  2  0  0  0  0  0  0
   19.7942  -17.7846    0.0000 C   0  0  0  0  0  0  0  0  0  0  0  0
   21.0933  -17.0346    0.0000 C   0  0  0  0  0  0  0  0  0  0  0  0
   22.3923  -16.2846    0.0000 C   0  0  0  0  0  0  0  0  0  0  0  0
   23.6913  -15.5346    0.0000 C   0  0  0  0  0  0  0  0  0  0  0  0
   25.2920  -15.1353    0.3164 C   0  0  0  0  0  0  0  0  0  0  0  0
   25.9920  -13.7139   -0.3038 C   0  0  0  0  0  0  0  0  0  0  0  0
   27.5885  -13.2846    0.0000 C   0  0  0  0  0  0  0  0  0  0  0  0
   28.8875  -12.5346    0.0000 C   0  0  0  0  0  2  0  0  0  0  0  0
   30.1865  -11.7846    0.0000 C   0  0  0  0  0  0  0  0  0  0  0  0
   31.6738  -11.3562   -0.6206 C   0  0  0  0  0  0  0  0  0  0  0  0
   32.5698  -10.2612    0.2740 C   0  0  0  0  0  0  0  0  0  0  0  0
   34.0836   -9.5346    0.0000 C   0  0  0  0  0  0  0  0  0  0  0  0
   35.3827   -8.7846    0.0000 C   0  0  0  0  0  0  0  0  0  0  0  0
   12.7500  -22.0836    0.0000 C   0  0  0  0  0  0  0  0  0  0  0  0
   12.6421  -23.4325   -0.5589 O   0  0  0  0  0  0  0  0  0  0  0  0
   13.6721  -24.4604   -0.5793 C   0  0  0  0  0  0  0  0  0  0  0  0
   14.7708  -24.1607   -1.0176 O   0  0  0  0  0  0  0  0  0  0  0  0
   13.5000  -25.9808    0.0000 C   0  0  0  0  0  0  0  0  0  0  0  0
   14.2500  -27.2798    0.0000 C   0  0  0  0  0  0  0  0  0  0  0  0
   15.0000  -28.5788    0.0000 C   0  0  0  0  0  0  0  0  0  0  0  0
   15.8994  -29.8918    0.5376 C   0  0  0  0  0  0  0  0  0  0  0  0
   16.3701  -31.1406   -0.5173 C   0  0  0  0  0  0  0  0  0  0  0  0
   17.2500  -32.4760    0.0000 C   0  0  0  0  0  0  0  0  0  0  0  0
   18.0000  -33.7750    0.0000 C   0  0  0  0  0  2  0  0  0  0  0  0
   18.7500  -35.0740    0.0000 C   0  0  0  0  0  0  0  0  0  0  0  0
   19.5000  -36.3731    0.0000 C   0  0  0  0  0  0  0  0  0  0  0  0
   20.2500  -37.6721    0.0000 C   0  0  0  0  0  2  0  0  0  0  0  0
   21.0000  -38.9711    0.0000 C   0  0  0  0  0  0  0  0  0  0  0  0
   21.3306  -40.6184   -0.0115 C   0  0  0  0  0  0  0  0  0  0  0  0
   22.9194  -41.2210    0.0115 C   0  0  0  0  0  0  0  0  0  0  0  0
   23.2500  -42.8683    0.0000 C   0  0  0  0  0  0  0  0  0  0  0  0
   24.0000  -44.1673    0.0000 C   0  0  0  0  0  2  0  0  0  0  0  0
   24.7500  -45.4663    0.0000 C   0  0  0  0  0  0  0  0  0  0  0  0
   25.5000  -46.7654    0.0000 C   0  0  0  0  0  0  0  0  0  0  0  0
   26.2500  -48.0644    0.0000 C   0  0  0  0  0  2  0  0  0  0  0  0
   27.0000  -49.3634    0.0000 C   0  0  0  0  0  0  0  0  0  0  0  0
   27.7500  -50.6625    0.0000 C   0  0  0  0  0  0  0  0  0  0  0  0
   28.5000  -51.9615    0.0000 C   0  0  0  0  0  0  0  0  0  0  0  0
   -6.8519  -10.0519   -0.6354 H   0  0  0  0  0  0  0  0  0  0  0  0
   -5.3042  -11.0802   -0.5644 H   0  0  0  0  0  0  0  0  0  0  0  0
   -6.5350  -11.3189    0.0000 H   0  0  0  0  0  0  0  0  0  0  0  0
   -5.0267   -9.1500   -1.1061 H   0  0  0  0  0  0  0  0  0  0  0  0
   -4.4038   -9.6447    0.5207 H   0  0  0  0  0  0  0  0  0  0  0  0
   -5.4033   -7.2580   -0.3992 H   0  0  0  0  0  0  0  0  0  0  0  0
   -4.6037   -7.8448    1.1380 H   0  0  0  0  0  0  0  0  0  0  0  0
   -4.2697   -6.0163    0.8886 H   0  0  0  0  0  0  0  0  0  0  0  0
   -2.8203   -7.0614    0.2447 H   0  0  0  0  0  0  0  0  0  0  0  0
   -3.6937   -4.3142   -0.0434 H   0  0  0  0  0  0  0  0  0  0  0  0
   -2.5300   -5.2025   -1.0102 H   0  0  0  0  0  0  0  0  0  0  0  0
   -1.0441   -5.6814    0.8693 H   0  0  0  0  0  0  0  0  0  0  0  0
   -2.1479   -4.8059    2.0045 H   0  0  0  0  0  0  0  0  0  0  0  0
   -0.8977   -3.5727   -0.5801 H   0  0  0  0  0  0  0  0  0  0  0  0
   -1.9173   -2.7292    0.6415 H   0  0  0  0  0  0  0  0  0  0  0  0
   -0.0748   -3.1106    2.3371 H   0  0  0  0  0  0  0  0  0  0  0  0
    0.9275   -3.8602    1.0616 H   0  0  0  0  0  0  0  0  0  0  0  0
   -0.2682   -0.9654    1.0613 H   0  0  0  0  0  0  0  0  0  0  0  0
    1.6077   -0.0166    0.2516 H   0  0  0  0  0  0  0  0  0  0  0  0
    3.2657   -1.3355   -1.0550 H   0  0  0  0  0  0  0  0  0  0  0  0
    3.8207   -1.0874    0.6398 H   0  0  0  0  0  0  0  0  0  0  0  0
    3.0532   -3.3325    1.2172 H   0  0  0  0  0  0  0  0  0  0  0  0
    2.5161   -3.5685   -0.5127 H   0  0  0  0  0  0  0  0  0  0  0  0
    5.4517   -3.2889    0.5196 H   0  0  0  0  0  0  0  0  0  0  0  0
    4.9886   -3.4613   -1.2319 H   0  0  0  0  0  0  0  0  0  0  0  0
    3.6634   -5.4368   -0.7045 H   0  0  0  0  0  0  0  0  0  0  0  0
    4.0221   -5.2787    1.0114 H   0  0  0  0  0  0  0  0  0  0  0  0
    5.4997   -6.3420   -1.0835 H   0  0  0  0  0  0  0  0  0  0  0  0
    5.9598   -5.9216    0.6815 H   0  0  0  0  0  0  0  0  0  0  0  0
    7.0278   -7.3107   -0.1260 H   0  0  0  0  0  0  0  0  0  0  0  0
    5.8102   -7.8832    1.1136 H   0  0  0  0  0  0  0  0  0  0  0  0
    5.7211   -9.5758    0.1204 H   0  0  0  0  0  0  0  0  0  0  0  0
    6.9412   -9.0068   -1.1133 H   0  0  0  0  0  0  0  0  0  0  0  0
    6.7897  -10.9727   -0.6754 H   0  0  0  0  0  0  0  0  0  0  0  0
    7.2395  -10.5466    1.0823 H   0  0  0  0  0  0  0  0  0  0  0  0
    8.7315  -11.5775   -1.0048 H   0  0  0  0  0  0  0  0  0  0  0  0
    9.0705  -11.3912    0.6989 H   0  0  0  0  0  0  0  0  0  0  0  0
    8.2581  -13.6511    1.1380 H   0  0  0  0  0  0  0  0  0  0  0  0
    7.9122  -13.8496   -0.6048 H   0  0  0  0  0  0  0  0  0  0  0  0
   10.8031  -13.4289    0.6058 H   0  0  0  0  0  0  0  0  0  0  0  0
   10.4559  -13.6305   -1.1350 H   0  0  0  0  0  0  0  0  0  0  0  0
    9.7190  -15.9267   -0.7126 H   0  0  0  0  0  0  0  0  0  0  0  0
   10.0652  -15.7264    1.0120 H   0  0  0  0  0  0  0  0  0  0  0  0
   11.4438  -21.1856   -0.8765 H   0  0  0  0  0  0  0  0  0  0  0  0
   13.7597  -19.8745    0.4945 H   0  0  0  0  0  0  0  0  0  0  0  0
   13.3204  -19.5208   -1.4148 H   0  0  0  0  0  0  0  0  0  0  0  0
   16.7897  -19.1100    1.0176 H   0  0  0  0  0  0  0  0  0  0  0  0
   17.5793  -20.3258    0.0243 H   0  0  0  0  0  0  0  0  0  0  0  0
   19.5369  -17.4388    1.0347 H   0  0  0  0  0  0  0  0  0  0  0  0
   19.2912  -17.0433   -0.6730 H   0  0  0  0  0  0  0  0  0  0  0  0
   21.4678  -17.9057    0.6309 H   0  0  0  0  0  0  0  0  0  0  0  0
   21.2382  -17.2814   -1.0906 H   0  0  0  0  0  0  0  0  0  0  0  0
   23.0602  -17.1733   -0.2378 H   0  0  0  0  0  0  0  0  0  0  0  0
   22.3076  -16.1254    1.1100 H   0  0  0  0  0  0  0  0  0  0  0  0
   23.7823  -15.4236   -1.1095 H   0  0  0  0  0  0  0  0  0  0  0  0
   23.2939  -14.5326    0.3018 H   0  0  0  0  0  0  0  0  0  0  0  0
   25.3992  -15.0899    1.4205 H   0  0  0  0  0  0  0  0  0  0  0  0
   25.9132  -15.9836   -0.0402 H   0  0  0  0  0  0  0  0  0  0  0  0
   25.3642  -12.8701    0.0522 H   0  0  0  0  0  0  0  0  0  0  0  0
   25.8806  -13.7615   -1.4074 H   0  0  0  0  0  0  0  0  0  0  0  0
   28.0303  -14.2443   -0.3404 H   0  0  0  0  0  0  0  0  0  0  0  0
   27.5185  -13.3598    1.1053 H   0  0  0  0  0  0  0  0  0  0  0  0
   29.7618  -10.7672    0.1285 H   0  0  0  0  0  0  0  0  0  0  0  0
   30.5186  -12.0894    1.0143 H   0  0  0  0  0  0  0  0  0  0  0  0
   32.2803  -12.2783   -0.7402 H   0  0  0  0  0  0  0  0  0  0  0  0
   31.5087  -10.9220   -1.6290 H   0  0  0  0  0  0  0  0  0  0  0  0
   32.6617  -10.7540    1.2682 H   0  0  0  0  0  0  0  0  0  0  0  0
   31.8488   -9.4181    0.4007 H   0  0  0  0  0  0  0  0  0  0  0  0
   33.6993   -9.1349   -0.9745 H   0  0  0  0  0  0  0  0  0  0  0  0
   33.8519   -8.9477    0.9240 H   0  0  0  0  0  0  0  0  0  0  0  0
   35.8064   -9.2694   -0.9100 H   0  0  0  0  0  0  0  0  0  0  0  0
   35.0222   -7.7402   -0.2208 H   0  0  0  0  0  0  0  0  0  0  0  0
   36.3094   -8.2496    0.0000 H   0  0  0  0  0  0  0  0  0  0  0  0
   12.1784  -22.3362    0.9216 H   0  0  0  0  0  0  0  0  0  0  0  0
   13.6939  -22.1178    0.6180 H   0  0  0  0  0  0  0  0  0  0  0  0
   13.2902  -25.7203    1.0715 H   0  0  0  0  0  0  0  0  0  0  0  0
   12.5151  -26.2727   -0.4319 H   0  0  0  0  0  0  0  0  0  0  0  0
   15.1152  -26.7755    0.4952 H   0  0  0  0  0  0  0  0  0  0  0  0
   13.5637  -27.7204    0.7734 H   0  0  0  0  0  0  0  0  0  0  0  0
   14.2128  -29.2072   -0.4876 H   0  0  0  0  0  0  0  0  0  0  0  0
   15.6882  -28.3278   -0.8419 H   0  0  0  0  0  0  0  0  0  0  0  0
   16.8276  -29.4857    0.9916 H   0  0  0  0  0  0  0  0  0  0  0  0
   15.3143  -30.3660    1.3535 H   0  0  0  0  0  0  0  0  0  0  0  0
   16.9622  -30.6633   -1.3263 H   0  0  0  0  0  0  0  0  0  0  0  0
   15.4409  -31.5340   -0.9804 H   0  0  0  0  0  0  0  0  0  0  0  0
   16.5550  -32.7622    0.8169 H   0  0  0  0  0  0  0  0  0  0  0  0
   18.0623  -31.8953    0.4848 H   0  0  0  0  0  0  0  0  0  0  0  0
   19.3053  -34.7050    0.8962 H   0  0  0  0  0  0  0  0  0  0  0  0
   19.3060  -34.7047   -0.8956 H   0  0  0  0  0  0  0  0  0  0  0  0
   18.9441  -36.7423    0.8958 H   0  0  0  0  0  0  0  0  0  0  0  0
   18.9446  -36.7420   -0.8962 H   0  0  0  0  0  0  0  0  0  0  0  0
   21.6404  -38.7175   -0.8704 H   0  0  0  0  0  0  0  0  0  0  0  0
   21.6076  -38.7364    0.8988 H   0  0  0  0  0  0  0  0  0  0  0  0
   20.8119  -41.0543    0.8680 H   0  0  0  0  0  0  0  0  0  0  0  0
   20.8450  -41.0352   -0.9188 H   0  0  0  0  0  0  0  0  0  0  0  0
   23.4050  -40.8042    0.9188 H   0  0  0  0  0  0  0  0  0  0  0  0
   23.4381  -40.7851   -0.8680 H   0  0  0  0  0  0  0  0  0  0  0  0
   22.6424  -43.1030   -0.8988 H   0  0  0  0  0  0  0  0  0  0  0  0
   22.6096  -43.1219    0.8704 H   0  0  0  0  0  0  0  0  0  0  0  0
   25.3057  -45.0972    0.8960 H   0  0  0  0  0  0  0  0  0  0  0  0
   25.3056  -45.0972   -0.8960 H   0  0  0  0  0  0  0  0  0  0  0  0
   24.9444  -47.1345    0.8960 H   0  0  0  0  0  0  0  0  0  0  0  0
   24.9444  -47.1345   -0.8960 H   0  0  0  0  0  0  0  0  0  0  0  0
   27.5417  -48.9895    0.9064 H   0  0  0  0  0  0  0  0  0  0  0  0
   27.5792  -48.9678   -0.8719 H   0  0  0  0  0  0  0  0  0  0  0  0
   27.2327  -50.9694   -0.9491 H   0  0  0  0  0  0  0  0  0  0  0  0
   27.1073  -50.9686    0.8787 H   0  0  0  0  0  0  0  0  0  0  0  0
   27.6647  -52.7155    0.0668 H   0  0  0  0  0  0  0  0  0  0  0  0
   29.0327  -51.8041    0.9675 H   0  0  0  0  0  0  0  0  0  0  0  0
   29.0350  -52.8881    0.0000 H   0  0  0  0  0  0  0  0  0  0  0  0
  1  2  1  0  0  0  0
  1 72  1  0  0  0  0
  1 73  1  0  0  0  0
  1 74  1  0  0  0  0
  2  3  1  0  0  0  0
  2 75  1  0  0  0  0
  2 76  1  0  0  0  0
  3  4  1  0  0  0  0
  3 77  1  0  0  0  0
  3 78  1  0  0  0  0
  4  5  1  0  0  0  0
  4 79  1  0  0  0  0
  4 80  1  0  0  0  0
  5  6  1  0  0  0  0
  5 81  1  0  0  0  0
  5 82  1  0  0  0  0
  6  7  1  0  0  0  0
  6 83  1  0  0  0  0
  6 84  1  0  0  0  0
  7  8  1  0  0  0  0
  7 85  1  0  0  0  0
  7 86  1  0  0  0  0
  8  9  1  0  0  0  0
  8 87  1  0  0  0  0
  8 88  1  0  0  0  0
  9 10  2  0  0  0  0
  9 89  1  0  0  0  0
 10 11  1  0  0  0  0
 10 90  1  0  0  0  0
 11 12  1  0  0  0  0
 11 91  1  0  0  0  0
 11 92  1  0  0  0  0
 12 13  1  0  0  0  0
 12 93  1  0  0  0  0
 12 94  1  0  0  0  0
 13 14  1  0  0  0  0
 13 95  1  0  0  0  0
 13 96  1  0  0  0  0
 14 15  1  0  0  0  0
 14 97  1  0  0  0  0
 14 98  1  0  0  0  0
 15 16  1  0  0  0  0
 15 99  1  0  0  0  0
 15100  1  0  0  0  0
 16 17  1  0  0  0  0
 16101  1  0  0  0  0
 16102  1  0  0  0  0
 17 18  1  0  0  0  0
 17103  1  0  0  0  0
 17104  1  0  0  0  0
 18 19  1  0  0  0  0
 18105  1  0  0  0  0
 18106  1  0  0  0  0
 19 20  1  0  0  0  0
 19107  1  0  0  0  0
 19108  1  0  0  0  0
 20 21  1  0  0  0  0
 20109  1  0  0  0  0
 20110  1  0  0  0  0
 21 22  1  0  0  0  0
 21111  1  0  0  0  0
 21112  1  0  0  0  0
 22 23  1  0  0  0  0
 22113  1  0  0  0  0
 22114  1  0  0  0  0
 23 24  1  0  0  0  0
 24 25  2  0  0  0  0
 24 26  1  0  0  0  0
 26 27  1  0  0  0  0
 27 28  1  0  0  0  0
 27 47  1  0  0  0  0
 27115  1  6  0  0  0
 28 29  1  0  0  0  0
 28116  1  0  0  0  0
 28117  1  0  0  0  0
 29 30  1  0  0  0  0
 30 31  2  0  0  0  0
 30 32  1  0  0  0  0
 32 33  1  0  0  0  0
 32118  1  0  0  0  0
 32119  1  0  0  0  0
 33 34  1  0  0  0  0
 34 35  1  0  0  0  0
 34120  1  0  0  0  0
 34121  1  0  0  0  0
 35 36  1  0  0  0  0
 35122  1  0  0  0  0
 35123  1  0  0  0  0
 36 37  1  0  0  0  0
 36124  1  0  0  0  0
 36125  1  0  0  0  0
 37 38  1  0  0  0  0
 37126  1  0  0  0  0
 37127  1  0  0  0  0
 38 39  1  0  0  0  0
 38128  1  0  0  0  0
 38129  1  0  0  0  0
 39 40  1  0  0  0  0
 39130  1  0  0  0  0
 39131  1  0  0  0  0
 40 41  1  0  0  0  0
 40132  1  0  0  0  0
 40133  1  0  0  0  0
 41 42  1  0  0  0  0
 42 43  1  0  0  0  0
 42134  1  0  0  0  0
 42135  1  0  0  0  0
 43 44  1  0  0  0  0
 43136  1  0  0  0  0
 43137  1  0  0  0  0
 44 45  1  0  0  0  0
 44138  1  0  0  0  0
 44139  1  0  0  0  0
 45 46  1  0  0  0  0
 45140  1  0  0  0  0
 45141  1  0  0  0  0
 46142  1  0  0  0  0
 46143  1  0  0  0  0
 46144  1  0  0  0  0
 47 48  1  0  0  0  0
 47145  1  0  0  0  0
 47146  1  0  0  0  0
 48 49  1  0  0  0  0
 49 50  2  0  0  0  0
 49 51  1  0  0  0  0
 51 52  1  0  0  0  0
 51147  1  0  0  0  0
 51148  1  0  0  0  0
 52 53  1  0  0  0  0
 52149  1  0  0  0  0
 52150  1  0  0  0  0
 53 54  1  0  0  0  0
 53151  1  0  0  0  0
 53152  1  0  0  0  0
 54 55  1  0  0  0  0
 54153  1  0  0  0  0
 54154  1  0  0  0  0
 55 56  1  0  0  0  0
 55155  1  0  0  0  0
 55156  1  0  0  0  0
 56 57  1  0  0  0  0
 56157  1  0  0  0  0
 56158  1  0  0  0  0
 57 58  1  0  0  0  0
 58 59  1  0  0  0  0
 58159  1  0  0  0  0
 58160  1  0  0  0  0
 59 60  1  0  0  0  0
 59161  1  0  0  0  0
 59162  1  0  0  0  0
 60 61  1  0  0  0  0
 61 62  1  0  0  0  0
 61163  1  0  0  0  0
 61164  1  0  0  0  0
 62 63  1  0  0  0  0
 62165  1  0  0  0  0
 62166  1  0  0  0  0
 63 64  1  0  0  0  0
 63167  1  0  0  0  0
 63168  1  0  0  0  0
 64 65  1  0  0  0  0
 64169  1  0  0  0  0
 64170  1  0  0  0  0
 65 66  1  0  0  0  0
 66 67  1  0  0  0  0
 66171  1  0  0  0  0
 66172  1  0  0  0  0
 67 68  1  0  0  0  0
 67173  1  0  0  0  0
 67174  1  0  0  0  0
 68 69  1  0  0  0  0
 69 70  1  0  0  0  0
 69175  1  0  0  0  0
 69176  1  0  0  0  0
 70 71  1  0  0  0  0
 70177  1  0  0  0  0
 70178  1  0  0  0  0
 71179  1  0  0  0  0
 71180  1  0  0  0  0
 71181  1  0  0  0  0
M  END
>  <IDENTIFIER>
CNP0522376.1

>  <Energy>
15453.8

$$$$
