
 OpenBabel09102509273D

 61 66  0  0  0  0  0  0  0  0999 V2000
    5.1734    1.5357    2.0039 C   0  0  0  0  0  0  0  0  0  0  0  0
    4.4892    1.2603    0.7038 C   0  0  0  0  0  0  0  0  0  0  0  0
    5.1203    1.3300   -0.3431 O   0  0  0  0  0  0  0  0  0  0  0  0
    3.1660    0.9479    0.7127 O   0  0  0  0  0  0  0  0  0  0  0  0
    2.3795    0.6647   -0.3948 C   0  0  2  0  0  0  0  0  0  0  0  0
    1.3370    1.7861   -0.5531 C   0  0  0  0  0  0  0  0  0  0  0  0
    0.3104    1.6976    0.5772 C   0  0  1  0  0  0  0  0  0  0  0  0
   -0.3600    3.0720    0.7757 C   0  0  0  0  0  0  0  0  0  0  0  0
   -0.6615    0.4466    0.3942 C   0  0  1  0  0  0  0  0  0  0  0  0
   -1.1770    0.1003    1.8309 C   0  0  0  0  0  0  0  0  0  0  0  0
   -1.9279    0.8175   -0.4979 C   0  0  1  0  0  0  0  0  0  0  0  0
   -2.9196   -0.3171   -0.7809 C   0  0  0  0  0  0  0  0  0  0  0  0
   -4.1095    0.4954   -1.2259 C   0  0  1  0  0  0  0  0  0  0  0  0
   -5.4750   -0.0564   -0.9366 C   0  0  0  0  0  0  0  0  0  0  0  0
   -5.5557    0.1407    0.5693 C   0  0  0  0  0  0  0  0  0  0  0  0
   -4.8308    1.3164    0.8824 O   0  0  0  0  0  0  0  0  0  0  0  0
   -4.0537    1.6466   -0.2602 C   0  0  1  0  0  0  0  0  0  0  0  0
   -2.7020    1.8459    0.1050 O   0  0  0  0  0  0  0  0  0  0  0  0
    0.1542   -0.7419   -0.3358 C   0  0  2  0  0  0  0  0  0  0  0  0
   -0.3938   -2.1891   -0.1005 C   0  0  0  0  0  0  0  0  0  0  0  0
    0.7653   -3.2038   -0.0722 C   0  0  1  0  0  0  0  0  0  0  0  0
    1.5757   -3.1381   -1.3726 C   0  0  0  0  0  0  0  0  0  0  0  0
    2.2354   -1.7600   -1.3702 C   0  0  1  0  0  0  0  0  0  0  0  0
    3.6243   -1.7352   -1.9168 C   0  0  0  0  0  0  0  0  0  0  0  0
    2.5055   -1.2346   -2.6394 O   0  0  0  0  0  0  0  0  0  0  0  0
    1.7353   -0.7752   -0.2488 C   0  0  1  0  0  0  0  0  0  0  0  0
    2.1526   -1.5792    1.0308 C   0  0  1  0  0  0  0  0  0  0  0  0
    1.7807   -0.9030    2.1952 O   0  0  0  0  0  0  0  0  0  0  0  0
    1.6094   -2.9166    1.0476 O   0  0  0  0  0  0  0  0  0  0  0  0
    6.2441    1.7852    1.8412 H   0  0  0  0  0  0  0  0  0  0  0  0
    5.1068    0.6384    2.6542 H   0  0  0  0  0  0  0  0  0  0  0  0
    4.6774    2.3896    2.5093 H   0  0  0  0  0  0  0  0  0  0  0  0
    2.9801    0.7614   -1.3186 H   0  0  0  0  0  0  0  0  0  0  0  0
    0.8187    1.7464   -1.5362 H   0  0  0  0  0  0  0  0  0  0  0  0
    1.8983    2.7473   -0.5141 H   0  0  0  0  0  0  0  0  0  0  0  0
    0.9045    1.5492    1.5068 H   0  0  0  0  0  0  0  0  0  0  0  0
   -0.8860    3.4016   -0.1442 H   0  0  0  0  0  0  0  0  0  0  0  0
    0.4128    3.8394    0.9967 H   0  0  0  0  0  0  0  0  0  0  0  0
   -1.0579    3.0610    1.6372 H   0  0  0  0  0  0  0  0  0  0  0  0
   -1.7186    0.9611    2.2722 H   0  0  0  0  0  0  0  0  0  0  0  0
   -0.3645   -0.1383    2.5323 H   0  0  0  0  0  0  0  0  0  0  0  0
   -1.8887   -0.7403    1.8714 H   0  0  0  0  0  0  0  0  0  0  0  0
   -1.5728    1.2066   -1.4804 H   0  0  0  0  0  0  0  0  0  0  0  0
   -3.1449   -0.8480    0.1571 H   0  0  0  0  0  0  0  0  0  0  0  0
   -2.6111   -1.0558   -1.5447 H   0  0  0  0  0  0  0  0  0  0  0  0
   -3.9373    0.8118   -2.2803 H   0  0  0  0  0  0  0  0  0  0  0  0
   -5.6824   -1.0871   -1.2938 H   0  0  0  0  0  0  0  0  0  0  0  0
   -6.2093    0.6408   -1.4007 H   0  0  0  0  0  0  0  0  0  0  0  0
   -5.0809   -0.7052    1.1087 H   0  0  0  0  0  0  0  0  0  0  0  0
   -6.6134    0.2069    0.9016 H   0  0  0  0  0  0  0  0  0  0  0  0
   -4.4898    2.5561   -0.7296 H   0  0  0  0  0  0  0  0  0  0  0  0
    0.0425   -0.5223   -1.4240 H   0  0  0  0  0  0  0  0  0  0  0  0
   -1.1367   -2.4709   -0.8704 H   0  0  0  0  0  0  0  0  0  0  0  0
   -0.8607   -2.3090    0.8916 H   0  0  0  0  0  0  0  0  0  0  0  0
    0.3381   -4.2234    0.0470 H   0  0  0  0  0  0  0  0  0  0  0  0
    0.9086   -3.2716   -2.2521 H   0  0  0  0  0  0  0  0  0  0  0  0
    2.3434   -3.9437   -1.3686 H   0  0  0  0  0  0  0  0  0  0  0  0
    4.0009   -2.6120   -2.4833 H   0  0  0  0  0  0  0  0  0  0  0  0
    4.3035   -0.8910   -1.7044 H   0  0  0  0  0  0  0  0  0  0  0  0
    3.2641   -1.6665    1.0262 H   0  0  0  0  0  0  0  0  0  0  0  0
    2.0379   -1.4851    2.9571 H   0  0  0  0  0  0  0  0  0  0  0  0
  1  2  1  0  0  0  0
  1 30  1  0  0  0  0
  1 31  1  0  0  0  0
  1 32  1  0  0  0  0
  2  3  2  0  0  0  0
  2  4  1  0  0  0  0
  5  4  1  0  0  0  0
  5  6  1  0  0  0  0
  5 33  1  6  0  0  0
  6  7  1  0  0  0  0
  6 34  1  0  0  0  0
  6 35  1  0  0  0  0
  7  8  1  0  0  0  0
  7  9  1  0  0  0  0
  7 36  1  1  0  0  0
  8 37  1  0  0  0  0
  8 38  1  0  0  0  0
  8 39  1  0  0  0  0
  9 10  1  1  0  0  0
  9 11  1  0  0  0  0
  9 19  1  0  0  0  0
 10 40  1  0  0  0  0
 10 41  1  0  0  0  0
 10 42  1  0  0  0  0
 11 12  1  0  0  0  0
 11 43  1  6  0  0  0
 12 44  1  0  0  0  0
 12 45  1  0  0  0  0
 13 12  1  0  0  0  0
 13 14  1  0  0  0  0
 13 46  1  6  0  0  0
 14 15  1  0  0  0  0
 14 47  1  0  0  0  0
 14 48  1  0  0  0  0
 15 16  1  0  0  0  0
 15 49  1  0  0  0  0
 15 50  1  0  0  0  0
 17 16  1  0  0  0  0
 17 18  1  0  0  0  0
 17 13  1  0  0  0  0
 17 51  1  6  0  0  0
 18 11  1  0  0  0  0
 19 20  1  0  0  0  0
 19 52  1  6  0  0  0
 20 53  1  0  0  0  0
 20 54  1  0  0  0  0
 21 20  1  0  0  0  0
 21 22  1  0  0  0  0
 21 55  1  1  0  0  0
 22 23  1  0  0  0  0
 22 56  1  0  0  0  0
 22 57  1  0  0  0  0
 23 24  1  0  0  0  0
 23 25  1  6  0  0  0
 24 25  1  0  0  0  0
 24 58  1  0  0  0  0
 24 59  1  0  0  0  0
 26 23  1  0  0  0  0
 26 27  1  0  0  0  0
 26  5  1  0  0  0  0
 26 19  1  0  0  0  0
 27 28  1  0  0  0  0
 27 29  1  0  0  0  0
 27 60  1  0  0  0  0
 28 61  1  0  0  0  0
 29 21  1  0  0  0  0
M  END
>  <IDENTIFIER>
CNP0425062.1

>  <Energy>
2456.56

$$$$
