
 OpenBabel09102512303D

 56 61  0  0  0  0  0  0  0  0999 V2000
    4.0647   -1.5792    3.8848 O   0  0  0  0  0  0  0  0  0  0  0  0
    3.9254   -1.4863    2.6779 C   0  0  0  0  0  0  0  0  0  0  0  0
    2.7061   -1.5716    2.1676 O   0  0  0  0  0  0  0  0  0  0  0  0
    2.4503   -1.4920    0.8677 C   0  0  0  0  0  0  0  0  0  0  0  0
    1.1191   -1.5859    0.4257 C   0  0  0  0  0  0  0  0  0  0  0  0
   -0.0397   -1.7234    1.4028 C   0  0  0  0  0  0  0  0  0  0  0  0
   -1.3414   -1.3538    0.7785 N   0  0  0  0  0  0  0  0  0  0  0  0
   -1.4150    0.1301    0.6060 C   0  0  0  0  0  0  0  0  0  0  0  0
   -2.8366    0.7060    0.3598 C   0  0  0  0  0  0  0  0  0  0  0  0
   -2.8112    2.2338    0.3390 C   0  0  0  0  0  0  0  0  0  0  0  0
   -1.8801    2.9591   -0.4397 C   0  0  0  0  0  0  0  0  0  0  0  0
   -1.8867    4.3554   -0.4430 C   0  0  0  0  0  0  0  0  0  0  0  0
   -2.8263    5.0528    0.3158 C   0  0  0  0  0  0  0  0  0  0  0  0
   -3.7559    4.3538    1.0873 C   0  0  0  0  0  0  0  0  0  0  0  0
   -3.7455    2.9547    1.1070 C   0  0  0  0  0  0  0  0  0  0  0  0
   -3.5320    0.2021   -0.8930 C   0  0  0  0  0  0  0  0  0  0  0  0
   -4.7586   -0.4827   -0.7676 C   0  0  0  0  0  0  0  0  0  0  0  0
   -5.4272   -0.9573   -1.8986 C   0  0  0  0  0  0  0  0  0  0  0  0
   -4.8842   -0.7570   -3.1674 C   0  0  0  0  0  0  0  0  0  0  0  0
   -3.6704   -0.0817   -3.3089 C   0  0  0  0  0  0  0  0  0  0  0  0
   -2.9947    0.3968   -2.1820 C   0  0  0  0  0  0  0  0  0  0  0  0
   -1.4384   -2.0936   -0.5007 C   0  0  0  0  0  0  0  0  0  0  0  0
   -0.4476   -1.6744   -1.3716 O   0  0  0  0  0  0  0  0  0  0  0  0
    0.8324   -1.5355   -0.9486 C   0  0  0  0  0  0  0  0  0  0  0  0
    1.8561   -1.3423   -1.8715 C   0  0  0  0  0  0  0  0  0  0  0  0
    3.1784   -1.2157   -1.4411 C   0  0  0  0  0  0  0  0  0  0  0  0
    3.5022   -1.2962   -0.0657 C   0  0  0  0  0  0  0  0  0  0  0  0
    4.8287   -1.1829    0.4368 C   0  0  0  0  0  0  0  0  0  0  0  0
    5.9549   -0.9691   -0.3944 C   0  0  0  0  0  0  0  0  0  0  0  0
    7.2361   -0.8646    0.1513 C   0  0  0  0  0  0  0  0  0  0  0  0
    7.4269   -0.9728    1.5255 C   0  0  0  0  0  0  0  0  0  0  0  0
    6.3369   -1.1826    2.3677 C   0  0  0  0  0  0  0  0  0  0  0  0
    5.0356   -1.2849    1.8382 C   0  0  0  0  0  0  0  0  0  0  0  0
    0.1362   -1.0831    2.2948 H   0  0  0  0  0  0  0  0  0  0  0  0
   -0.0670   -2.7682    1.7817 H   0  0  0  0  0  0  0  0  0  0  0  0
   -0.7164    0.4642   -0.1845 H   0  0  0  0  0  0  0  0  0  0  0  0
   -1.0725    0.6159    1.5487 H   0  0  0  0  0  0  0  0  0  0  0  0
   -3.4537    0.3918    1.2315 H   0  0  0  0  0  0  0  0  0  0  0  0
   -1.1338    2.4623   -1.0398 H   0  0  0  0  0  0  0  0  0  0  0  0
   -1.1619    4.8967   -1.0378 H   0  0  0  0  0  0  0  0  0  0  0  0
   -2.8326    6.1349    0.3040 H   0  0  0  0  0  0  0  0  0  0  0  0
   -4.4876    4.8976    1.6703 H   0  0  0  0  0  0  0  0  0  0  0  0
   -4.4807    2.4353    1.7084 H   0  0  0  0  0  0  0  0  0  0  0  0
   -5.2009   -0.6507    0.2052 H   0  0  0  0  0  0  0  0  0  0  0  0
   -6.3678   -1.4814   -1.7876 H   0  0  0  0  0  0  0  0  0  0  0  0
   -5.4045   -1.1259   -4.0416 H   0  0  0  0  0  0  0  0  0  0  0  0
   -3.2499    0.0703   -4.2940 H   0  0  0  0  0  0  0  0  0  0  0  0
   -2.0559    0.9056   -2.3248 H   0  0  0  0  0  0  0  0  0  0  0  0
   -2.4299   -2.0149   -0.9723 H   0  0  0  0  0  0  0  0  0  0  0  0
   -1.3085   -3.1821   -0.3033 H   0  0  0  0  0  0  0  0  0  0  0  0
    1.6279   -1.2901   -2.9293 H   0  0  0  0  0  0  0  0  0  0  0  0
    3.9213   -1.0649   -2.2059 H   0  0  0  0  0  0  0  0  0  0  0  0
    5.8785   -0.8755   -1.4649 H   0  0  0  0  0  0  0  0  0  0  0  0
    8.0864   -0.6983   -0.4979 H   0  0  0  0  0  0  0  0  0  0  0  0
    8.4234   -0.8919    1.9405 H   0  0  0  0  0  0  0  0  0  0  0  0
    6.5137   -1.2604    3.4335 H   0  0  0  0  0  0  0  0  0  0  0  0
  1  2  2  0  0  0  0
  2  3  1  0  0  0  0
  3  4  1  0  0  0  0
  4  5  2  0  0  0  0
  5  6  1  0  0  0  0
  6  7  1  0  0  0  0
  6 34  1  0  0  0  0
  6 35  1  0  0  0  0
  7  8  1  0  0  0  0
  7 22  1  0  0  0  0
  8  9  1  0  0  0  0
  8 36  1  0  0  0  0
  8 37  1  0  0  0  0
  9 10  1  0  0  0  0
  9 16  1  0  0  0  0
  9 38  1  0  0  0  0
 10 11  2  0  0  0  0
 11 12  1  0  0  0  0
 11 39  1  0  0  0  0
 12 13  2  0  0  0  0
 12 40  1  0  0  0  0
 13 14  1  0  0  0  0
 13 41  1  0  0  0  0
 14 15  2  0  0  0  0
 14 42  1  0  0  0  0
 15 10  1  0  0  0  0
 15 43  1  0  0  0  0
 16 17  2  0  0  0  0
 17 18  1  0  0  0  0
 17 44  1  0  0  0  0
 18 19  2  0  0  0  0
 18 45  1  0  0  0  0
 19 20  1  0  0  0  0
 19 46  1  0  0  0  0
 20 21  2  0  0  0  0
 20 47  1  0  0  0  0
 21 16  1  0  0  0  0
 21 48  1  0  0  0  0
 22 23  1  0  0  0  0
 22 49  1  0  0  0  0
 22 50  1  0  0  0  0
 23 24  1  0  0  0  0
 24 25  2  0  0  0  0
 24  5  1  0  0  0  0
 25 26  1  0  0  0  0
 25 51  1  0  0  0  0
 26 27  2  0  0  0  0
 26 52  1  0  0  0  0
 27 28  1  0  0  0  0
 27  4  1  0  0  0  0
 28 29  2  0  0  0  0
 29 30  1  0  0  0  0
 29 53  1  0  0  0  0
 30 31  2  0  0  0  0
 30 54  1  0  0  0  0
 31 32  1  0  0  0  0
 31 55  1  0  0  0  0
 32 33  2  0  0  0  0
 32 56  1  0  0  0  0
 33  2  1  0  0  0  0
 33 28  1  0  0  0  0
M  END
>  <IDENTIFIER>
CNP0382998.0

>  <Energy>
431.504

$$$$
