
 OpenBabel09122523313D

104105  0  0  0  0  0  0  0  0999 V2000
   11.7676   -3.4141    0.6470 C   0  0  0  0  0  0  0  0  0  0  0  0
   10.8136   -2.8729   -0.4182 C   0  0  0  0  0  0  0  0  0  0  0  0
   11.4391   -1.7616   -1.2841 C   0  0  0  0  0  0  0  0  0  0  0  0
   11.9034   -0.5104   -0.5116 C   0  0  0  0  0  0  0  0  0  0  0  0
   10.7546    0.2014    0.2163 C   0  0  0  0  0  0  0  0  0  0  0  0
   11.2536    1.4390    0.9579 C   0  0  0  0  0  0  0  0  0  0  0  0
   10.2321    2.1604    1.8651 C   0  0  0  0  0  0  0  0  0  0  0  0
    9.0742    2.9292    1.1855 C   0  0  0  0  0  0  0  0  0  0  0  0
    7.6928    2.2404    1.1123 C   0  0  0  0  0  0  0  0  0  0  0  0
    7.5702    1.0461    0.1595 C   0  0  0  0  0  0  0  0  0  0  0  0
    6.1188    0.5807   -0.0330 C   0  0  0  0  0  0  0  0  0  0  0  0
    5.5024   -0.0070    1.2440 C   0  0  0  0  0  0  0  0  0  0  0  0
    4.0759   -0.6001    1.1001 C   0  0  1  0  0  0  0  0  0  0  0  0
    3.7747   -1.2772    2.2977 O   0  0  0  0  0  0  0  0  0  0  0  0
    2.9488    0.4290    0.8157 C   0  0  1  0  0  0  0  0  0  0  0  0
    2.8612    0.9619   -0.6132 C   0  0  0  0  0  0  0  0  0  0  0  0
    1.5230    1.6164   -0.5249 C   0  0  0  0  0  0  0  0  0  0  0  0
    0.7434    0.5950    0.3054 C   0  0  1  0  0  0  0  0  0  0  0  0
   -0.1598   -0.3547   -0.5247 C   0  0  2  0  0  0  0  0  0  0  0  0
    0.5975   -1.1724   -1.3829 O   0  0  0  0  0  0  0  0  0  0  0  0
   -1.2811    0.3853   -1.3099 C   0  0  0  0  0  0  0  0  0  0  0  0
   -2.1610    1.3190   -0.4492 C   0  0  0  0  0  0  0  0  0  0  0  0
   -2.8914    0.6154    0.7142 C   0  0  0  0  0  0  0  0  0  0  0  0
   -3.8311   -0.5196    0.2720 C   0  0  0  0  0  0  0  0  0  0  0  0
   -4.9463   -0.0051   -0.6428 C   0  0  0  0  0  0  0  0  0  0  0  0
   -5.8895   -1.1301   -1.0759 C   0  0  0  0  0  0  0  0  0  0  0  0
   -7.0158   -0.6150   -1.9935 C   0  0  0  0  0  0  0  0  0  0  0  0
   -7.9167    0.4641   -1.3519 C   0  0  0  0  0  0  0  0  0  0  0  0
   -8.5699    0.0409   -0.0240 C   0  0  0  0  0  0  0  0  0  0  0  0
   -9.5436   -1.1348   -0.2020 C   0  0  0  0  0  0  0  0  0  0  0  0
  -10.1705   -1.5955    1.1196 C   0  0  0  0  0  0  0  0  0  0  0  0
  -10.9926   -0.5499    1.8954 C   0  0  0  0  0  0  0  0  0  0  0  0
  -12.2119   -0.0453    1.1584 C   0  0  0  0  0  0  0  0  0  0  0  0
  -13.4651   -0.3308    1.4778 C   0  0  0  0  0  0  0  0  0  0  0  0
  -14.4027    0.3687    0.5289 C   0  0  2  0  0  0  0  0  0  0  0  0
  -15.2420   -0.6303   -0.2607 C   0  0  0  0  0  0  0  0  0  0  0  0
  -13.5728    1.0721   -0.3225 O   0  0  0  0  0  0  0  0  0  0  0  0
  -12.2917    0.8536    0.0172 C   0  0  0  0  0  0  0  0  0  0  0  0
  -11.3546    1.3985   -0.5380 O   0  0  0  0  0  0  0  0  0  0  0  0
    1.6842   -0.1573    1.0557 O   0  0  0  0  0  0  0  0  0  0  0  0
   11.2753   -4.2436    1.1968 H   0  0  0  0  0  0  0  0  0  0  0  0
   12.0286   -2.6272    1.3839 H   0  0  0  0  0  0  0  0  0  0  0  0
   12.6951   -3.8005    0.1741 H   0  0  0  0  0  0  0  0  0  0  0  0
    9.8834   -2.5136    0.0686 H   0  0  0  0  0  0  0  0  0  0  0  0
   10.5316   -3.7129   -1.0899 H   0  0  0  0  0  0  0  0  0  0  0  0
   10.6939   -1.4542   -2.0502 H   0  0  0  0  0  0  0  0  0  0  0  0
   12.3176   -2.1832   -1.8183 H   0  0  0  0  0  0  0  0  0  0  0  0
   12.3529    0.1961   -1.2437 H   0  0  0  0  0  0  0  0  0  0  0  0
   12.6968   -0.7906    0.2122 H   0  0  0  0  0  0  0  0  0  0  0  0
   10.3071   -0.4879    0.9612 H   0  0  0  0  0  0  0  0  0  0  0  0
   10.0202    0.5045   -0.5501 H   0  0  0  0  0  0  0  0  0  0  0  0
   11.6767    2.1628    0.2273 H   0  0  0  0  0  0  0  0  0  0  0  0
   12.0801    1.1092    1.6277 H   0  0  0  0  0  0  0  0  0  0  0  0
   10.8554    2.9465    2.3482 H   0  0  0  0  0  0  0  0  0  0  0  0
    9.8532    1.5160    2.6875 H   0  0  0  0  0  0  0  0  0  0  0  0
    9.3948    3.3583    0.2120 H   0  0  0  0  0  0  0  0  0  0  0  0
    8.8709    3.7967    1.8545 H   0  0  0  0  0  0  0  0  0  0  0  0
    6.9824    3.0198    0.7568 H   0  0  0  0  0  0  0  0  0  0  0  0
    7.3877    1.9447    2.1380 H   0  0  0  0  0  0  0  0  0  0  0  0
    8.1551    0.1901    0.5386 H   0  0  0  0  0  0  0  0  0  0  0  0
    7.9399    1.3661   -0.8388 H   0  0  0  0  0  0  0  0  0  0  0  0
    6.1054   -0.2046   -0.8197 H   0  0  0  0  0  0  0  0  0  0  0  0
    5.5595    1.4554   -0.3854 H   0  0  0  0  0  0  0  0  0  0  0  0
    5.4855    0.7547    2.0510 H   0  0  0  0  0  0  0  0  0  0  0  0
    6.1671   -0.8379    1.5687 H   0  0  0  0  0  0  0  0  0  0  0  0
    4.0707   -1.3693    0.2974 H   0  0  0  0  0  0  0  0  0  0  0  0
    3.7278   -0.6038    3.0272 H   0  0  0  0  0  0  0  0  0  0  0  0
    3.0605    1.2664    1.5453 H   0  0  0  0  0  0  0  0  0  0  0  0
    2.8302    0.1083   -1.3233 H   0  0  0  0  0  0  0  0  0  0  0  0
    3.6151    1.6873   -0.9515 H   0  0  0  0  0  0  0  0  0  0  0  0
    1.0762    1.9426   -1.4849 H   0  0  0  0  0  0  0  0  0  0  0  0
    1.6605    2.5308    0.0987 H   0  0  0  0  0  0  0  0  0  0  0  0
    0.0943    1.1449    1.0159 H   0  0  0  0  0  0  0  0  0  0  0  0
   -0.6607   -1.0350    0.1959 H   0  0  0  0  0  0  0  0  0  0  0  0
    0.8243   -0.6453   -2.1924 H   0  0  0  0  0  0  0  0  0  0  0  0
   -1.9193   -0.3691   -1.8165 H   0  0  0  0  0  0  0  0  0  0  0  0
   -0.8366    1.0031   -2.1164 H   0  0  0  0  0  0  0  0  0  0  0  0
   -2.8955    1.8207   -1.1103 H   0  0  0  0  0  0  0  0  0  0  0  0
   -1.5431    2.1418   -0.0350 H   0  0  0  0  0  0  0  0  0  0  0  0
   -3.4816    1.3775    1.2684 H   0  0  0  0  0  0  0  0  0  0  0  0
   -2.1484    0.2027    1.4277 H   0  0  0  0  0  0  0  0  0  0  0  0
   -4.2906   -0.9615    1.1836 H   0  0  0  0  0  0  0  0  0  0  0  0
   -3.2548   -1.3213   -0.2347 H   0  0  0  0  0  0  0  0  0  0  0  0
   -4.5215    0.4414   -1.5640 H   0  0  0  0  0  0  0  0  0  0  0  0
   -5.5019    0.7724   -0.0795 H   0  0  0  0  0  0  0  0  0  0  0  0
   -6.3200   -1.6324   -0.1847 H   0  0  0  0  0  0  0  0  0  0  0  0
   -5.3052   -1.8927   -1.6358 H   0  0  0  0  0  0  0  0  0  0  0  0
   -7.6331   -1.4808   -2.3090 H   0  0  0  0  0  0  0  0  0  0  0  0
   -6.5656   -0.1869   -2.9159 H   0  0  0  0  0  0  0  0  0  0  0  0
   -8.7083    0.7497   -2.0780 H   0  0  0  0  0  0  0  0  0  0  0  0
   -7.3166    1.3790   -1.1673 H   0  0  0  0  0  0  0  0  0  0  0  0
   -9.1140    0.9191    0.3744 H   0  0  0  0  0  0  0  0  0  0  0  0
   -7.7916   -0.2136    0.7246 H   0  0  0  0  0  0  0  0  0  0  0  0
   -8.9963   -2.0088   -0.6113 H   0  0  0  0  0  0  0  0  0  0  0  0
  -10.3366   -0.8704   -0.9302 H   0  0  0  0  0  0  0  0  0  0  0  0
   -9.3510   -1.9471    1.7850 H   0  0  0  0  0  0  0  0  0  0  0  0
  -10.8242   -2.4690    0.9043 H   0  0  0  0  0  0  0  0  0  0  0  0
  -10.3685    0.3090    2.2174 H   0  0  0  0  0  0  0  0  0  0  0  0
  -11.3329   -1.0646    2.8211 H   0  0  0  0  0  0  0  0  0  0  0  0
  -13.7654   -0.9727    2.2965 H   0  0  0  0  0  0  0  0  0  0  0  0
  -15.0604    1.0681    1.0876 H   0  0  0  0  0  0  0  0  0  0  0  0
  -14.5852   -1.3232   -0.8303 H   0  0  0  0  0  0  0  0  0  0  0  0
  -15.8922   -0.0847   -0.9771 H   0  0  0  0  0  0  0  0  0  0  0  0
  -15.8827   -1.2195    0.4280 H   0  0  0  0  0  0  0  0  0  0  0  0
  1  2  1  0  0  0  0
  1 41  1  0  0  0  0
  1 42  1  0  0  0  0
  1 43  1  0  0  0  0
  2  3  1  0  0  0  0
  2 44  1  0  0  0  0
  2 45  1  0  0  0  0
  3  4  1  0  0  0  0
  3 46  1  0  0  0  0
  3 47  1  0  0  0  0
  4  5  1  0  0  0  0
  4 48  1  0  0  0  0
  4 49  1  0  0  0  0
  5  6  1  0  0  0  0
  5 50  1  0  0  0  0
  5 51  1  0  0  0  0
  6  7  1  0  0  0  0
  6 52  1  0  0  0  0
  6 53  1  0  0  0  0
  7  8  1  0  0  0  0
  7 54  1  0  0  0  0
  7 55  1  0  0  0  0
  8  9  1  0  0  0  0
  8 56  1  0  0  0  0
  8 57  1  0  0  0  0
  9 10  1  0  0  0  0
  9 58  1  0  0  0  0
  9 59  1  0  0  0  0
 10 11  1  0  0  0  0
 10 60  1  0  0  0  0
 10 61  1  0  0  0  0
 11 12  1  0  0  0  0
 11 62  1  0  0  0  0
 11 63  1  0  0  0  0
 12 13  1  0  0  0  0
 12 64  1  0  0  0  0
 12 65  1  0  0  0  0
 13 14  1  0  0  0  0
 13 15  1  0  0  0  0
 13 66  1  6  0  0  0
 14 67  1  0  0  0  0
 15 16  1  0  0  0  0
 15 68  1  1  0  0  0
 16 17  1  0  0  0  0
 16 69  1  0  0  0  0
 16 70  1  0  0  0  0
 17 71  1  0  0  0  0
 17 72  1  0  0  0  0
 18 17  1  0  0  0  0
 18 19  1  0  0  0  0
 18 40  1  0  0  0  0
 18 73  1  1  0  0  0
 19 20  1  0  0  0  0
 19 21  1  0  0  0  0
 19 74  1  1  0  0  0
 20 75  1  0  0  0  0
 21 22  1  0  0  0  0
 21 76  1  0  0  0  0
 21 77  1  0  0  0  0
 22 23  1  0  0  0  0
 22 78  1  0  0  0  0
 22 79  1  0  0  0  0
 23 24  1  0  0  0  0
 23 80  1  0  0  0  0
 23 81  1  0  0  0  0
 24 25  1  0  0  0  0
 24 82  1  0  0  0  0
 24 83  1  0  0  0  0
 25 26  1  0  0  0  0
 25 84  1  0  0  0  0
 25 85  1  0  0  0  0
 26 27  1  0  0  0  0
 26 86  1  0  0  0  0
 26 87  1  0  0  0  0
 27 28  1  0  0  0  0
 27 88  1  0  0  0  0
 27 89  1  0  0  0  0
 28 29  1  0  0  0  0
 28 90  1  0  0  0  0
 28 91  1  0  0  0  0
 29 30  1  0  0  0  0
 29 92  1  0  0  0  0
 29 93  1  0  0  0  0
 30 31  1  0  0  0  0
 30 94  1  0  0  0  0
 30 95  1  0  0  0  0
 31 32  1  0  0  0  0
 31 96  1  0  0  0  0
 31 97  1  0  0  0  0
 32 33  1  0  0  0  0
 32 98  1  0  0  0  0
 32 99  1  0  0  0  0
 33 34  2  0  0  0  0
 34 35  1  0  0  0  0
 34100  1  0  0  0  0
 35 36  1  0  0  0  0
 35 37  1  0  0  0  0
 35101  1  1  0  0  0
 36102  1  0  0  0  0
 36103  1  0  0  0  0
 36104  1  0  0  0  0
 37 38  1  0  0  0  0
 38 39  2  0  0  0  0
 38 33  1  0  0  0  0
 40 15  1  0  0  0  0
M  END
>  <IDENTIFIER>
CNP0221182.1

>  <Energy>
614.241

$$$$
