
 OpenBabel09132507543D

 16 15  0  0  0  0  0  0  0  0999 V2000
   -3.0465    0.0825    0.0960 C   0  0  0  0  0  0  0  0  0  0  0  0
   -1.3994    0.6090   -0.4523 S   0  0  0  0  0  0  0  0  0  0  0  0
   -1.3576    2.1431   -0.3901 O   0  0  0  0  0  0  0  0  0  0  0  0
   -1.3489    0.4309   -1.9780 O   0  0  0  0  0  0  0  0  0  0  0  0
    0.1485    0.0084    0.2362 C   0  0  0  0  0  0  0  0  0  0  0  0
    1.2002   -0.2784   -0.5420 C   0  0  0  0  0  0  0  0  0  0  0  0
    2.4960   -0.7806    0.0307 C   0  0  0  0  0  0  0  0  0  0  0  0
    3.5309    0.1131   -0.2744 O   0  0  0  0  0  0  0  0  0  0  0  0
   -3.8194    0.6005   -0.5086 H   0  0  0  0  0  0  0  0  0  0  0  0
   -3.1853    0.3487    1.1639 H   0  0  0  0  0  0  0  0  0  0  0  0
   -3.1523   -1.0129   -0.0443 H   0  0  0  0  0  0  0  0  0  0  0  0
    0.2108   -0.1154    1.3130 H   0  0  0  0  0  0  0  0  0  0  0  0
    1.1320   -0.1500   -1.6176 H   0  0  0  0  0  0  0  0  0  0  0  0
    2.7219   -1.7916   -0.3770 H   0  0  0  0  0  0  0  0  0  0  0  0
    2.4385   -0.8850    1.1355 H   0  0  0  0  0  0  0  0  0  0  0  0
    3.7970   -0.0683   -1.2139 H   0  0  0  0  0  0  0  0  0  0  0  0
  1  2  1  0  0  0  0
  1  9  1  0  0  0  0
  1 10  1  0  0  0  0
  1 11  1  0  0  0  0
  2  3  2  0  0  0  0
  2  4  2  0  0  0  0
  2  5  1  0  0  0  0
  5  6  2  3  0  0  0
  5 12  1  0  0  0  0
  6  7  1  0  0  0  0
  6 13  1  0  0  0  0
  7  8  1  0  0  0  0
  7 14  1  0  0  0  0
  7 15  1  0  0  0  0
  8 16  1  0  0  0  0
M  END
>  <IDENTIFIER>
CNP0185981.0

>  <Energy>
423.729

$$$$
