
 OpenBabel09082502132D

163162  0  0  0  0  0  0  0  0999 V2000
   -3.7500   -6.4952    0.0000 C   0  0  0  0  0  0  0  0  0  0  0  0
   -3.0000   -5.1962    0.0000 C   0  0  0  0  0  0  0  0  0  0  0  0
   -1.7734   -4.9169   -0.9197 C   0  0  0  0  0  0  0  0  0  0  0  0
   -1.1525   -3.5389   -0.4972 C   0  0  0  0  0  0  0  0  0  0  0  0
    0.0302   -2.9703   -1.3369 C   0  0  0  0  0  0  0  0  0  0  0  0
    0.3627   -1.5520   -0.8573 C   0  0  0  0  0  0  0  0  0  0  0  0
    1.5586   -0.9010   -0.7801 C   0  0  0  0  0  0  0  0  0  0  0  0
    2.9429   -1.3778   -1.1768 C   0  0  0  0  0  0  0  0  0  0  0  0
    3.9448   -1.2381   -0.0319 C   0  0  0  0  0  0  0  0  0  0  0  0
    5.0622   -0.4493   -0.0047 C   0  0  0  0  0  0  0  0  0  0  0  0
    5.4921    0.4831   -1.1306 C   0  0  0  0  0  0  0  0  0  0  0  0
    6.7875    1.3330   -1.0763 C   0  0  0  0  0  0  0  0  0  0  0  0
    7.8200    1.4503   -0.1886 C   0  0  0  0  0  0  0  0  0  0  0  0
    7.9568    0.6981    1.0975 C   0  0  0  0  0  0  0  0  0  0  0  0
    9.1804    0.8820    2.0001 C   0  0  0  0  0  0  0  0  0  0  0  0
   10.3432    1.5965    1.9762 C   0  0  0  0  0  0  0  0  0  0  0  0
   10.9485    2.5659    0.9678 C   0  0  0  0  0  0  0  0  0  0  0  0
   12.3443    3.0033    1.5210 C   0  0  0  0  0  2  0  0  0  0  0  0
   13.3420    3.7413    0.5951 C   0  0  0  0  0  0  0  0  0  0  0  0
   13.1705    5.2474    0.5572 C   0  0  0  0  0  0  0  0  0  0  0  0
   12.0902    5.6825    0.1919 O   0  0  0  0  0  0  0  0  0  0  0  0
   14.1706    6.1552    0.8181 O   0  0  0  0  0  0  0  0  0  0  0  0
   15.4661    5.9956    1.3157 C   0  0  0  0  0  0  0  0  0  0  0  0
   16.2309    7.3613    1.2229 C   0  0  2  0  0  0  0  0  0  0  0  0
   15.5303    8.4786    2.0320 C   0  0  0  0  0  0  0  0  0  0  0  0
   14.1729    8.6066    1.7686 O   0  0  0  0  0  0  0  0  0  0  0  0
   13.6160    9.5852    1.0106 C   0  0  0  0  0  0  0  0  0  0  0  0
   14.2826   10.1586    0.1595 O   0  0  0  0  0  0  0  0  0  0  0  0
   12.1788   10.0035    1.2279 C   0  0  0  0  0  0  0  0  0  0  0  0
   11.3038    9.6962    0.0000 C   0  0  0  0  0  0  0  0  0  0  0  0
   10.0048   10.4462    0.0000 C   0  0  0  0  0  0  0  0  0  0  0  0
    8.7058   11.1962    0.0000 C   0  0  0  0  0  0  0  0  0  0  0  0
    7.4067   11.9462    0.0000 C   0  0  0  0  0  0  0  0  0  0  0  0
    6.1077   12.6962    0.0000 C   0  0  0  0  0  0  0  0  0  0  0  0
    4.8087   13.4462    0.0000 C   0  0  0  0  0  0  0  0  0  0  0  0
    3.4805   13.9908   -0.9135 C   0  0  0  0  0  0  0  0  0  0  0  0
    2.2090   14.9035   -0.2055 C   0  0  0  0  0  0  0  0  0  0  0  0
    0.9077   15.6896   -0.9923 C   0  0  0  0  0  0  0  0  0  0  0  0
   -0.3874   16.4861   -0.2060 C   0  0  0  0  0  0  0  0  0  0  0  0
   -1.6644   17.3894   -0.9163 C   0  0  0  0  0  0  0  0  0  0  0  0
   -2.9856   17.9462    0.0000 C   0  0  0  0  0  0  0  0  0  0  0  0
   -4.2846   18.6962    0.0000 C   0  0  0  0  0  0  0  0  0  0  0  0
   -5.5836   19.4462    0.0000 C   0  0  0  0  0  0  0  0  0  0  0  0
   -6.8827   20.1962    0.0000 C   0  0  0  0  0  0  0  0  0  0  0  0
   -8.1817   20.9462    0.0000 C   0  0  0  0  0  0  0  0  0  0  0  0
   17.5494    7.3023    1.7063 O   0  0  0  0  0  0  0  0  0  0  0  0
   18.7121    7.3229    0.9740 C   0  0  0  0  0  0  0  0  0  0  0  0
   18.8462    6.5377    0.0495 O   0  0  0  0  0  0  0  0  0  0  0  0
   19.8530    8.3214    1.2927 C   0  0  0  0  0  0  0  0  0  0  0  0
   20.2500    9.0933    0.0000 C   0  0  0  0  0  0  0  0  0  0  0  0
   21.0000   10.3923    0.0000 C   0  0  0  0  0  0  0  0  0  0  0  0
   21.7500   11.6913    0.0000 C   0  0  0  0  0  0  0  0  0  0  0  0
   22.9481   11.6468   -0.9377 C   0  0  0  0  0  0  0  0  0  0  0  0
   24.2421   11.7997   -0.5778 C   0  0  0  0  0  0  0  0  0  0  0  0
   24.6905   12.0408    0.8505 C   0  0  0  0  0  0  0  0  0  0  0  0
   26.1653   12.2322    1.2157 C   0  0  0  0  0  0  0  0  0  0  0  0
   27.3125   12.2146    0.4915 C   0  0  0  0  0  0  0  0  0  0  0  0
   27.4240   11.9831   -0.9880 C   0  0  0  0  0  0  0  0  0  0  0  0
   28.7659   11.9836   -1.7112 C   0  0  0  0  0  0  0  0  0  0  0  0
   30.0695   11.8858   -1.3459 C   0  0  0  0  0  0  0  0  0  0  0  0
   30.7500   11.6913    0.0000 C   0  0  0  0  0  0  0  0  0  0  0  0
   31.5000   10.3923    0.0000 C   0  0  0  0  0  0  0  0  0  0  0  0
   32.2500    9.0933    0.0000 C   0  0  0  0  0  0  0  0  0  0  0  0
   31.7186    8.1379    1.0841 C   0  0  0  0  0  0  0  0  0  0  0  0
   32.4443    6.7958    1.0406 C   0  0  0  0  0  0  0  0  0  0  0  0
   -4.1476   -6.3890   -1.0329 H   0  0  0  0  0  0  0  0  0  0  0  0
   -4.5125   -6.2037    0.7582 H   0  0  0  0  0  0  0  0  0  0  0  0
   -4.2850   -7.4218    0.0000 H   0  0  0  0  0  0  0  0  0  0  0  0
   -2.6059   -5.1112    1.0389 H   0  0  0  0  0  0  0  0  0  0  0  0
   -3.7256   -4.3589   -0.1422 H   0  0  0  0  0  0  0  0  0  0  0  0
   -2.1082   -4.8836   -1.9785 H   0  0  0  0  0  0  0  0  0  0  0  0
   -1.0100   -5.7150   -0.8018 H   0  0  0  0  0  0  0  0  0  0  0  0
   -1.9752   -2.7906   -0.5506 H   0  0  0  0  0  0  0  0  0  0  0  0
   -0.8199   -3.6058    0.5622 H   0  0  0  0  0  0  0  0  0  0  0  0
    0.9172   -3.6360   -1.3232 H   0  0  0  0  0  0  0  0  0  0  0  0
   -0.3362   -2.8859   -2.3820 H   0  0  0  0  0  0  0  0  0  0  0  0
   -0.4986   -0.9488   -0.5788 H   0  0  0  0  0  0  0  0  0  0  0  0
    1.5181    0.1284   -0.4320 H   0  0  0  0  0  0  0  0  0  0  0  0
    2.9168   -2.4316   -1.5193 H   0  0  0  0  0  0  0  0  0  0  0  0
    3.2643   -0.7518   -2.0334 H   0  0  0  0  0  0  0  0  0  0  0  0
    3.7450   -1.8446    0.8469 H   0  0  0  0  0  0  0  0  0  0  0  0
    5.6514   -0.5070    0.8939 H   0  0  0  0  0  0  0  0  0  0  0  0
    4.6557    1.2023   -1.2688 H   0  0  0  0  0  0  0  0  0  0  0  0
    5.5741   -0.1291   -2.0526 H   0  0  0  0  0  0  0  0  0  0  0  0
    6.8903    1.9651   -1.9546 H   0  0  0  0  0  0  0  0  0  0  0  0
    8.6108    2.1454   -0.4451 H   0  0  0  0  0  0  0  0  0  0  0  0
    7.9232   -0.3839    0.8483 H   0  0  0  0  0  0  0  0  0  0  0  0
    7.0787    0.9647    1.7212 H   0  0  0  0  0  0  0  0  0  0  0  0
    9.0795    0.2641    2.8900 H   0  0  0  0  0  0  0  0  0  0  0  0
   10.9644    1.4221    2.8539 H   0  0  0  0  0  0  0  0  0  0  0  0
   10.2944    3.4514    0.8287 H   0  0  0  0  0  0  0  0  0  0  0  0
   11.0821    2.0377    0.0004 H   0  0  0  0  0  0  0  0  0  0  0  0
   13.2431    3.3297   -0.4319 H   0  0  0  0  0  0  0  0  0  0  0  0
   14.3657    3.5068    0.9487 H   0  0  0  0  0  0  0  0  0  0  0  0
   16.0126    5.2516    0.6973 H   0  0  0  0  0  0  0  0  0  0  0  0
   15.4242    5.6375    2.3664 H   0  0  0  0  0  0  0  0  0  0  0  0
   16.2353    7.6513    0.1462 H   0  0  0  0  0  0  0  0  0  0  0  0
   16.0643    9.4373    1.8412 H   0  0  0  0  0  0  0  0  0  0  0  0
   15.6343    8.2652    3.1174 H   0  0  0  0  0  0  0  0  0  0  0  0
   11.7465    9.4913    2.1143 H   0  0  0  0  0  0  0  0  0  0  0  0
   12.1888   11.0978    1.4268 H   0  0  0  0  0  0  0  0  0  0  0  0
   11.8578   10.0594   -0.8979 H   0  0  0  0  0  0  0  0  0  0  0  0
   11.1948    8.5865   -0.0987 H   0  0  0  0  0  0  0  0  0  0  0  0
    9.6483    9.8203    0.8608 H   0  0  0  0  0  0  0  0  0  0  0  0
    9.6962    9.9101   -0.9382 H   0  0  0  0  0  0  0  0  0  0  0  0
    9.0227   11.7605    0.9233 H   0  0  0  0  0  0  0  0  0  0  0  0
    9.0844   11.8522   -0.8359 H   0  0  0  0  0  0  0  0  0  0  0  0
    7.0937   11.4160   -0.9441 H   0  0  0  0  0  0  0  0  0  0  0  0
    7.0316   11.2448    0.8031 H   0  0  0  0  0  0  0  0  0  0  0  0
    6.4813   13.3751   -0.8106 H   0  0  0  0  0  0  0  0  0  0  0  0
    6.4035   13.1280    1.0016 H   0  0  0  0  0  0  0  0  0  0  0  0
    5.0716   14.4751    0.3746 H   0  0  0  0  0  0  0  0  0  0  0  0
    4.2673   12.9444    0.8352 H   0  0  0  0  0  0  0  0  0  0  0  0
    3.9075   14.6225   -1.7208 H   0  0  0  0  0  0  0  0  0  0  0  0
    3.0157   13.1076   -1.3988 H   0  0  0  0  0  0  0  0  0  0  0  0
    1.7460   14.2206    0.5367 H   0  0  0  0  0  0  0  0  0  0  0  0
    2.7091   15.7092    0.3711 H   0  0  0  0  0  0  0  0  0  0  0  0
    1.3770   16.4422   -1.6594 H   0  0  0  0  0  0  0  0  0  0  0  0
    0.4334   14.9282   -1.6457 H   0  0  0  0  0  0  0  0  0  0  0  0
   -0.8831   15.6883    0.3851 H   0  0  0  0  0  0  0  0  0  0  0  0
    0.0813   17.1789    0.5234 H   0  0  0  0  0  0  0  0  0  0  0  0
   -2.0975   16.7471   -1.7118 H   0  0  0  0  0  0  0  0  0  0  0  0
   -1.2034   18.2661   -1.4169 H   0  0  0  0  0  0  0  0  0  0  0  0
   -2.4379   18.4588    0.8244 H   0  0  0  0  0  0  0  0  0  0  0  0
   -3.2458   16.9226    0.3907 H   0  0  0  0  0  0  0  0  0  0  0  0
   -4.6654   18.0037   -0.7961 H   0  0  0  0  0  0  0  0  0  0  0  0
   -4.5722   18.2801    1.0108 H   0  0  0  0  0  0  0  0  0  0  0  0
   -5.2724   19.9587   -0.9573 H   0  0  0  0  0  0  0  0  0  0  0  0
   -5.1826   20.1665    0.7752 H   0  0  0  0  0  0  0  0  0  0  0  0
   -7.2265   19.4915   -0.8164 H   0  0  0  0  0  0  0  0  0  0  0  0
   -7.1541   19.7432    0.9928 H   0  0  0  0  0  0  0  0  0  0  0  0
   -8.0546   21.4218   -1.0008 H   0  0  0  0  0  0  0  0  0  0  0  0
   -8.9388   20.1109    0.0073 H   0  0  0  0  0  0  0  0  0  0  0  0
   -9.1083   21.4812    0.0000 H   0  0  0  0  0  0  0  0  0  0  0  0
   19.4757    9.0212    2.0684 H   0  0  0  0  0  0  0  0  0  0  0  0
   20.7512    7.8004    1.6869 H   0  0  0  0  0  0  0  0  0  0  0  0
   20.7378    8.3778   -0.7021 H   0  0  0  0  0  0  0  0  0  0  0  0
   19.2429    9.3215   -0.4509 H   0  0  0  0  0  0  0  0  0  0  0  0
   20.7641   10.5369   -1.0861 H   0  0  0  0  0  0  0  0  0  0  0  0
   20.2249   10.8421    0.6690 H   0  0  0  0  0  0  0  0  0  0  0  0
   21.1038   12.5542   -0.2991 H   0  0  0  0  0  0  0  0  0  0  0  0
   22.0942   11.8873    1.0384 H   0  0  0  0  0  0  0  0  0  0  0  0
   22.7392   11.4845   -1.9922 H   0  0  0  0  0  0  0  0  0  0  0  0
   24.9414   11.7445   -1.3871 H   0  0  0  0  0  0  0  0  0  0  0  0
   24.1755   12.9627    1.1958 H   0  0  0  0  0  0  0  0  0  0  0  0
   24.3281   11.1859    1.4606 H   0  0  0  0  0  0  0  0  0  0  0  0
   26.3036   12.4253    2.2770 H   0  0  0  0  0  0  0  0  0  0  0  0
   28.1966   12.4189    1.0592 H   0  0  0  0  0  0  0  0  0  0  0  0
   26.8515   12.8167   -1.4472 H   0  0  0  0  0  0  0  0  0  0  0  0
   26.9561   11.0100   -1.2424 H   0  0  0  0  0  0  0  0  0  0  0  0
   28.6253   12.0531   -2.7879 H   0  0  0  0  0  0  0  0  0  0  0  0
   30.7698   11.9268   -2.1780 H   0  0  0  0  0  0  0  0  0  0  0  0
   30.0333   11.6389    0.8277 H   0  0  0  0  0  0  0  0  0  0  0  0
   31.4158   12.5734    0.1725 H   0  0  0  0  0  0  0  0  0  0  0  0
   32.1917   10.7691   -0.7949 H   0  0  0  0  0  0  0  0  0  0  0  0
   31.9173   10.6396    1.0084 H   0  0  0  0  0  0  0  0  0  0  0  0
   33.3522    9.2350    0.1449 H   0  0  0  0  0  0  0  0  0  0  0  0
   32.0939    8.5958   -0.9861 H   0  0  0  0  0  0  0  0  0  0  0  0
   31.8633    8.5855    2.0918 H   0  0  0  0  0  0  0  0  0  0  0  0
   30.6316    7.9636    0.9255 H   0  0  0  0  0  0  0  0  0  0  0  0
   32.0395    6.1281    1.8302 H   0  0  0  0  0  0  0  0  0  0  0  0
   32.2970    6.3088    0.0532 H   0  0  0  0  0  0  0  0  0  0  0  0
   33.5313    6.9394    1.2188 H   0  0  0  0  0  0  0  0  0  0  0  0
  1  2  1  0  0  0  0
  1 66  1  0  0  0  0
  1 67  1  0  0  0  0
  1 68  1  0  0  0  0
  2  3  1  0  0  0  0
  2 69  1  0  0  0  0
  2 70  1  0  0  0  0
  3  4  1  0  0  0  0
  3 71  1  0  0  0  0
  3 72  1  0  0  0  0
  4  5  1  0  0  0  0
  4 73  1  0  0  0  0
  4 74  1  0  0  0  0
  5  6  1  0  0  0  0
  5 75  1  0  0  0  0
  5 76  1  0  0  0  0
  6  7  2  0  0  0  0
  6 77  1  0  0  0  0
  7  8  1  0  0  0  0
  7 78  1  0  0  0  0
  8  9  1  0  0  0  0
  8 79  1  0  0  0  0
  8 80  1  0  0  0  0
  9 10  2  0  0  0  0
  9 81  1  0  0  0  0
 10 11  1  0  0  0  0
 10 82  1  0  0  0  0
 11 12  1  0  0  0  0
 11 83  1  0  0  0  0
 11 84  1  0  0  0  0
 12 13  2  0  0  0  0
 12 85  1  0  0  0  0
 13 14  1  0  0  0  0
 13 86  1  0  0  0  0
 14 15  1  0  0  0  0
 14 87  1  0  0  0  0
 14 88  1  0  0  0  0
 15 16  2  0  0  0  0
 15 89  1  0  0  0  0
 16 17  1  0  0  0  0
 16 90  1  0  0  0  0
 17 18  1  0  0  0  0
 17 91  1  0  0  0  0
 17 92  1  0  0  0  0
 18 19  1  0  0  0  0
 19 20  1  0  0  0  0
 19 93  1  0  0  0  0
 19 94  1  0  0  0  0
 20 21  2  0  0  0  0
 20 22  1  0  0  0  0
 22 23  1  0  0  0  0
 23 95  1  0  0  0  0
 23 96  1  0  0  0  0
 24 23  1  0  0  0  0
 24 25  1  0  0  0  0
 24 46  1  0  0  0  0
 24 97  1  1  0  0  0
 25 26  1  0  0  0  0
 25 98  1  0  0  0  0
 25 99  1  0  0  0  0
 26 27  1  0  0  0  0
 27 28  2  0  0  0  0
 27 29  1  0  0  0  0
 29 30  1  0  0  0  0
 29100  1  0  0  0  0
 29101  1  0  0  0  0
 30 31  1  0  0  0  0
 30102  1  0  0  0  0
 30103  1  0  0  0  0
 31 32  1  0  0  0  0
 31104  1  0  0  0  0
 31105  1  0  0  0  0
 32 33  1  0  0  0  0
 32106  1  0  0  0  0
 32107  1  0  0  0  0
 33 34  1  0  0  0  0
 33108  1  0  0  0  0
 33109  1  0  0  0  0
 34 35  1  0  0  0  0
 34110  1  0  0  0  0
 34111  1  0  0  0  0
 35 36  1  0  0  0  0
 35112  1  0  0  0  0
 35113  1  0  0  0  0
 36 37  1  0  0  0  0
 36114  1  0  0  0  0
 36115  1  0  0  0  0
 37 38  1  0  0  0  0
 37116  1  0  0  0  0
 37117  1  0  0  0  0
 38 39  1  0  0  0  0
 38118  1  0  0  0  0
 38119  1  0  0  0  0
 39 40  1  0  0  0  0
 39120  1  0  0  0  0
 39121  1  0  0  0  0
 40 41  1  0  0  0  0
 40122  1  0  0  0  0
 40123  1  0  0  0  0
 41 42  1  0  0  0  0
 41124  1  0  0  0  0
 41125  1  0  0  0  0
 42 43  1  0  0  0  0
 42126  1  0  0  0  0
 42127  1  0  0  0  0
 43 44  1  0  0  0  0
 43128  1  0  0  0  0
 43129  1  0  0  0  0
 44 45  1  0  0  0  0
 44130  1  0  0  0  0
 44131  1  0  0  0  0
 45132  1  0  0  0  0
 45133  1  0  0  0  0
 45134  1  0  0  0  0
 46 47  1  0  0  0  0
 47 48  2  0  0  0  0
 47 49  1  0  0  0  0
 49 50  1  0  0  0  0
 49135  1  0  0  0  0
 49136  1  0  0  0  0
 50 51  1  0  0  0  0
 50137  1  0  0  0  0
 50138  1  0  0  0  0
 51 52  1  0  0  0  0
 51139  1  0  0  0  0
 51140  1  0  0  0  0
 52 53  1  0  0  0  0
 52141  1  0  0  0  0
 52142  1  0  0  0  0
 53 54  2  0  0  0  0
 53143  1  0  0  0  0
 54 55  1  0  0  0  0
 54144  1  0  0  0  0
 55 56  1  0  0  0  0
 55145  1  0  0  0  0
 55146  1  0  0  0  0
 56 57  2  0  0  0  0
 56147  1  0  0  0  0
 57 58  1  0  0  0  0
 57148  1  0  0  0  0
 58 59  1  0  0  0  0
 58149  1  0  0  0  0
 58150  1  0  0  0  0
 59 60  2  0  0  0  0
 59151  1  0  0  0  0
 60 61  1  0  0  0  0
 60152  1  0  0  0  0
 61 62  1  0  0  0  0
 61153  1  0  0  0  0
 61154  1  0  0  0  0
 62 63  1  0  0  0  0
 62155  1  0  0  0  0
 62156  1  0  0  0  0
 63 64  1  0  0  0  0
 63157  1  0  0  0  0
 63158  1  0  0  0  0
 64 65  1  0  0  0  0
 64159  1  0  0  0  0
 64160  1  0  0  0  0
 65161  1  0  0  0  0
 65162  1  0  0  0  0
 65163  1  0  0  0  0
M  END
>  <IDENTIFIER>
CNP0564269.1

>  <Energy>
5895.82

$$$$
