
 OpenBabel09092509283D

 87 93  0  0  0  0  0  0  0  0999 V2000
   -4.0078   -2.8503    2.4425 C   0  0  0  0  0  0  0  0  0  0  0  0
   -2.8355   -1.9025    2.1914 C   0  0  0  0  0  0  0  0  0  0  0  0
   -2.8209   -1.4142    0.7914 N   0  0  0  0  0  0  0  0  0  0  0  0
   -3.8842   -0.4132    0.5475 C   0  0  0  0  0  0  0  0  0  0  0  0
   -3.7769    0.2876   -0.8437 C   0  0  2  0  0  0  0  0  0  0  0  0
   -4.7377    1.5242   -0.8463 C   0  0  0  0  0  0  0  0  0  0  0  0
   -6.0774    1.0890   -0.6965 O   0  0  0  0  0  0  0  0  0  0  0  0
   -6.9472    2.1964   -0.7604 C   0  0  0  0  0  0  0  0  0  0  0  0
   -4.3018   -0.6442   -2.0039 C   0  0  0  0  0  0  0  0  0  0  0  0
   -3.2158   -1.2419   -2.8870 C   0  0  0  0  0  0  0  0  0  0  0  0
   -2.0712   -1.8063   -2.0637 C   0  0  2  0  0  0  0  0  0  0  0  0
   -2.4013   -2.9898   -1.3662 O   0  0  0  0  0  0  0  0  0  0  0  0
   -1.4201   -0.6905   -1.1370 C   0  0  1  0  0  0  0  0  0  0  0  0
    0.0949   -0.5506   -1.5652 C   0  0  2  0  0  0  0  0  0  0  0  0
    0.8416   -1.9151   -1.5265 C   0  0  0  0  0  0  0  0  0  0  0  0
    2.1438   -1.6781   -0.7739 C   0  0  1  0  0  0  0  0  0  0  0  0
    2.4207   -0.2338   -1.1720 C   0  0  2  0  0  0  0  0  0  0  0  0
    3.5664    0.2451   -0.5639 O   0  0  0  0  0  0  0  0  0  0  0  0
    4.6875    0.6368   -1.2368 C   0  0  0  0  0  0  0  0  0  0  0  0
    4.6646    0.7765   -2.4527 O   0  0  0  0  0  0  0  0  0  0  0  0
    5.9644    0.8262   -0.5086 C   0  0  0  0  0  0  0  0  0  0  0  0
    7.1459    1.1317   -1.2131 C   0  0  0  0  0  0  0  0  0  0  0  0
    8.3564    1.2867   -0.5316 C   0  0  0  0  0  0  0  0  0  0  0  0
    8.4017    1.1416    0.8553 C   0  0  0  0  0  0  0  0  0  0  0  0
    7.2360    0.8396    1.5650 C   0  0  0  0  0  0  0  0  0  0  0  0
    6.0224    0.6791    0.8885 C   0  0  0  0  0  0  0  0  0  0  0  0
    1.0482    0.4331   -0.8079 C   0  0  2  0  0  0  0  0  0  0  0  0
    0.6783    0.4607    0.7392 C   0  0  2  0  0  0  0  0  0  0  0  0
    0.9013    1.7193    1.3173 O   0  0  0  0  0  0  0  0  0  0  0  0
    1.9945    2.5191    1.4252 C   0  0  0  0  0  0  0  0  0  0  0  0
    1.9208    3.7323    2.2957 C   0  0  0  0  0  0  0  0  0  0  0  0
    3.0307    2.2780    0.8357 O   0  0  0  0  0  0  0  0  0  0  0  0
    1.5496   -0.5656    1.5133 C   0  0  0  0  0  0  0  0  0  0  0  0
    1.9711   -1.8614    0.7759 C   0  0  2  0  0  0  0  0  0  0  0  0
    3.2299   -2.2324    1.3280 O   0  0  0  0  0  0  0  0  0  0  0  0
    3.2982   -3.6155    1.5858 C   0  0  0  0  0  0  0  0  0  0  0  0
   -0.8852    0.2849    0.9454 C   0  0  1  0  0  0  0  0  0  0  0  0
   -1.5977    1.4142    0.1267 C   0  0  2  0  0  0  0  0  0  0  0  0
   -2.4930    2.1426    0.9498 O   0  0  0  0  0  0  0  0  0  0  0  0
   -2.1455    3.5066    1.0311 C   0  0  0  0  0  0  0  0  0  0  0  0
   -2.2540    0.6612   -1.0757 C   0  0  2  0  0  0  0  0  0  0  0  0
   -1.4408   -1.0339    0.3516 C   0  0  1  0  0  0  0  0  0  0  0  0
   -3.9593   -3.2282    3.4855 H   0  0  0  0  0  0  0  0  0  0  0  0
   -3.9479   -3.7146    1.7472 H   0  0  0  0  0  0  0  0  0  0  0  0
   -4.9835   -2.3423    2.3119 H   0  0  0  0  0  0  0  0  0  0  0  0
   -1.9161   -2.4893    2.4090 H   0  0  0  0  0  0  0  0  0  0  0  0
   -2.8671   -1.0547    2.9113 H   0  0  0  0  0  0  0  0  0  0  0  0
   -3.8419    0.3383    1.3581 H   0  0  0  0  0  0  0  0  0  0  0  0
   -4.8896   -0.8710    0.6486 H   0  0  0  0  0  0  0  0  0  0  0  0
   -4.6098    2.0518   -1.8205 H   0  0  0  0  0  0  0  0  0  0  0  0
   -4.5081    2.2419   -0.0413 H   0  0  0  0  0  0  0  0  0  0  0  0
   -7.9906    1.8221   -0.7155 H   0  0  0  0  0  0  0  0  0  0  0  0
   -6.8436    2.7453   -1.7228 H   0  0  0  0  0  0  0  0  0  0  0  0
   -6.7998    2.8697    0.1124 H   0  0  0  0  0  0  0  0  0  0  0  0
   -4.9284   -0.0814   -2.7335 H   0  0  0  0  0  0  0  0  0  0  0  0
   -4.9759   -1.4236   -1.5899 H   0  0  0  0  0  0  0  0  0  0  0  0
   -2.7913   -0.4297   -3.5203 H   0  0  0  0  0  0  0  0  0  0  0  0
   -3.6455   -2.0003   -3.5772 H   0  0  0  0  0  0  0  0  0  0  0  0
   -1.3587   -2.1258   -2.8543 H   0  0  0  0  0  0  0  0  0  0  0  0
   -3.3728   -3.0066   -1.1736 H   0  0  0  0  0  0  0  0  0  0  0  0
    0.1107   -0.2188   -2.6306 H   0  0  0  0  0  0  0  0  0  0  0  0
    1.1008   -2.1572   -2.5837 H   0  0  0  0  0  0  0  0  0  0  0  0
    0.2891   -2.8023   -1.1529 H   0  0  0  0  0  0  0  0  0  0  0  0
    2.8894   -2.4235   -1.1296 H   0  0  0  0  0  0  0  0  0  0  0  0
    2.5358   -0.1926   -2.2841 H   0  0  0  0  0  0  0  0  0  0  0  0
    7.1376    1.2431   -2.2902 H   0  0  0  0  0  0  0  0  0  0  0  0
    9.2596    1.5159   -1.0828 H   0  0  0  0  0  0  0  0  0  0  0  0
    9.3406    1.2608    1.3802 H   0  0  0  0  0  0  0  0  0  0  0  0
    7.2742    0.7260    2.6406 H   0  0  0  0  0  0  0  0  0  0  0  0
    5.1334    0.4393    1.4575 H   0  0  0  0  0  0  0  0  0  0  0  0
    0.9488    1.4533   -1.2321 H   0  0  0  0  0  0  0  0  0  0  0  0
    0.9187    3.8113    2.7666 H   0  0  0  0  0  0  0  0  0  0  0  0
    2.1093    4.6428    1.6905 H   0  0  0  0  0  0  0  0  0  0  0  0
    2.6832    3.6602    3.0997 H   0  0  0  0  0  0  0  0  0  0  0  0
    1.2040   -0.7487    2.5532 H   0  0  0  0  0  0  0  0  0  0  0  0
    2.5166   -0.0398    1.6483 H   0  0  0  0  0  0  0  0  0  0  0  0
    1.2035   -2.6489    0.9548 H   0  0  0  0  0  0  0  0  0  0  0  0
    4.3397   -3.8609    1.8804 H   0  0  0  0  0  0  0  0  0  0  0  0
    3.0682   -4.2121    0.6759 H   0  0  0  0  0  0  0  0  0  0  0  0
    2.6360   -3.8868    2.4362 H   0  0  0  0  0  0  0  0  0  0  0  0
   -1.0795    0.3497    2.0388 H   0  0  0  0  0  0  0  0  0  0  0  0
   -0.8513    2.0929   -0.3368 H   0  0  0  0  0  0  0  0  0  0  0  0
   -2.8731    4.0120    1.6989 H   0  0  0  0  0  0  0  0  0  0  0  0
   -2.2169    3.9939    0.0342 H   0  0  0  0  0  0  0  0  0  0  0  0
   -1.1394    3.6353    1.4821 H   0  0  0  0  0  0  0  0  0  0  0  0
   -2.1956    1.2535   -2.0155 H   0  0  0  0  0  0  0  0  0  0  0  0
   -0.7935   -1.8910    0.5931 H   0  0  0  0  0  0  0  0  0  0  0  0
  1  2  1  0  0  0  0
  1 43  1  0  0  0  0
  1 44  1  0  0  0  0
  1 45  1  0  0  0  0
  2  3  1  0  0  0  0
  2 46  1  0  0  0  0
  2 47  1  0  0  0  0
  3  4  1  0  0  0  0
  4  5  1  0  0  0  0
  4 48  1  0  0  0  0
  4 49  1  0  0  0  0
  5  6  1  1  0  0  0
  5  9  1  0  0  0  0
  6  7  1  0  0  0  0
  6 50  1  0  0  0  0
  6 51  1  0  0  0  0
  7  8  1  0  0  0  0
  8 52  1  0  0  0  0
  8 53  1  0  0  0  0
  8 54  1  0  0  0  0
  9 10  1  0  0  0  0
  9 55  1  0  0  0  0
  9 56  1  0  0  0  0
 10 11  1  0  0  0  0
 10 57  1  0  0  0  0
 10 58  1  0  0  0  0
 11 12  1  0  0  0  0
 11 59  1  6  0  0  0
 12 60  1  0  0  0  0
 13 11  1  0  0  0  0
 13 14  1  0  0  0  0
 14 15  1  0  0  0  0
 14 61  1  0  0  0  0
 15 62  1  0  0  0  0
 15 63  1  0  0  0  0
 16 15  1  0  0  0  0
 16 17  1  0  0  0  0
 16 64  1  0  0  0  0
 17 18  1  0  0  0  0
 17 65  1  0  0  0  0
 18 19  1  0  0  0  0
 19 20  2  0  0  0  0
 19 21  1  0  0  0  0
 21 22  2  0  0  0  0
 22 23  1  0  0  0  0
 22 66  1  0  0  0  0
 23 24  2  0  0  0  0
 23 67  1  0  0  0  0
 24 25  1  0  0  0  0
 24 68  1  0  0  0  0
 25 26  2  0  0  0  0
 25 69  1  0  0  0  0
 26 21  1  0  0  0  0
 26 70  1  0  0  0  0
 27 17  1  0  0  0  0
 27 28  1  0  0  0  0
 27 14  1  0  0  0  0
 27 71  1  0  0  0  0
 28 29  1  0  0  0  0
 28 33  1  0  0  0  0
 28 37  1  0  0  0  0
 29 30  1  0  0  0  0
 30 31  1  0  0  0  0
 30 32  2  0  0  0  0
 31 72  1  0  0  0  0
 31 73  1  0  0  0  0
 31 74  1  0  0  0  0
 33 34  1  0  0  0  0
 33 75  1  0  0  0  0
 33 76  1  0  0  0  0
 34 35  1  0  0  0  0
 34 16  1  0  0  0  0
 34 77  1  0  0  0  0
 35 36  1  0  0  0  0
 36 78  1  0  0  0  0
 36 79  1  0  0  0  0
 36 80  1  0  0  0  0
 37 38  1  0  0  0  0
 37 42  1  0  0  0  0
 37 81  1  0  0  0  0
 38 39  1  0  0  0  0
 38 41  1  0  0  0  0
 38 82  1  0  0  0  0
 39 40  1  0  0  0  0
 40 83  1  0  0  0  0
 40 84  1  0  0  0  0
 40 85  1  0  0  0  0
 41  5  1  0  0  0  0
 41 13  1  0  0  0  0
 41 86  1  0  0  0  0
 42  3  1  0  0  0  0
 42 13  1  0  0  0  0
 42 87  1  0  0  0  0
M  END
>  <IDENTIFIER>
CNP0372319.1

>  <Energy>
1501.6

$$$$
