
 OpenBabel09052509323D

 74 78  0  0  0  0  0  0  0  0999 V2000
   -0.9225   -1.7349    1.3050 C   0  0  0  0  0  0  0  0  0  0  0  0
   -1.7401   -0.5095    0.8621 C   0  0  1  0  0  0  0  0  0  0  0  0
   -1.3508   -0.0421   -0.5649 C   0  0  2  0  0  0  0  0  0  0  0  0
   -0.0319    0.3698   -0.5547 O   0  0  0  0  0  0  0  0  0  0  0  0
    1.0244   -0.2233   -1.1633 C   0  0  0  0  0  0  0  0  0  0  0  0
    0.9569   -1.3775   -1.5624 O   0  0  0  0  0  0  0  0  0  0  0  0
    2.2885    0.5859   -1.2990 C   0  0  0  0  0  0  0  0  0  0  0  0
    3.5174   -0.1946   -1.7970 C   0  0  0  0  0  0  0  0  0  0  0  0
    4.0161   -1.2117   -0.7931 C   0  0  0  0  0  0  0  0  0  0  0  0
    3.3928   -1.4061    0.2424 O   0  0  0  0  0  0  0  0  0  0  0  0
    5.1745   -1.8847   -1.0337 N   0  0  0  0  0  0  0  0  0  0  0  0
    5.7572   -2.8244   -0.0879 C   0  0  0  0  0  0  0  0  0  0  0  0
    6.1729   -2.1253    1.2226 C   0  0  0  0  0  0  0  0  0  0  0  0
    7.1950   -1.0387    0.9861 C   0  0  0  0  0  0  0  0  0  0  0  0
    8.4766   -1.3633    0.5149 C   0  0  0  0  0  0  0  0  0  0  0  0
    9.4271   -0.3617    0.3056 C   0  0  0  0  0  0  0  0  0  0  0  0
    9.1095    0.9808    0.5579 C   0  0  0  0  0  0  0  0  0  0  0  0
   10.0294    1.9471    0.3546 O   0  0  0  0  0  0  0  0  0  0  0  0
    7.8256    1.3159    1.0265 C   0  0  0  0  0  0  0  0  0  0  0  0
    7.4836    2.5980    1.2751 O   0  0  0  0  0  0  0  0  0  0  0  0
    6.8787    0.3066    1.2424 C   0  0  0  0  0  0  0  0  0  0  0  0
   -2.1110    1.0892   -0.9520 O   0  0  0  0  0  0  0  0  0  0  0  0
   -3.5049    0.8384   -0.9490 C   0  0  2  0  0  0  0  0  0  0  0  0
   -4.1310    1.9583   -1.4958 O   0  0  0  0  0  0  0  0  0  0  0  0
   -4.5112    2.8964   -0.5148 C   0  0  1  0  0  0  0  0  0  0  0  0
   -4.2838    4.2748   -1.1431 C   0  0  0  0  0  0  0  0  0  0  0  0
   -6.0262    2.7127   -0.2498 C   0  0  0  0  0  0  0  0  0  0  0  0
   -6.3304    1.6353    0.7811 C   0  0  0  0  0  0  0  0  0  0  0  0
   -5.5437    0.2996    0.6942 C   0  0  1  0  0  0  0  0  0  0  0  0
   -6.0499   -0.8365   -0.2316 C   0  0  2  0  0  0  0  0  0  0  0  0
   -7.5619   -1.0744   -0.0924 C   0  0  0  0  0  0  0  0  0  0  0  0
   -5.3015   -2.1338    0.1869 C   0  0  0  0  0  0  0  0  0  0  0  0
   -3.7696   -1.9894    0.1333 C   0  0  0  0  0  0  0  0  0  0  0  0
   -3.2703   -0.7543    0.9590 C   0  0  2  0  0  0  0  0  0  0  0  0
   -4.0074    0.5375    0.5018 C   0  0  1  0  0  0  0  0  0  0  0  0
   -3.6698    1.6490    1.3218 O   0  0  0  0  0  0  0  0  0  0  0  0
   -3.6780    2.8345    0.6625 O   0  0  0  0  0  0  0  0  0  0  0  0
    0.1608   -1.4934    1.3180 H   0  0  0  0  0  0  0  0  0  0  0  0
   -1.0716   -2.5910    0.6149 H   0  0  0  0  0  0  0  0  0  0  0  0
   -1.2176   -2.0400    2.3314 H   0  0  0  0  0  0  0  0  0  0  0  0
   -1.4964    0.3183    1.5652 H   0  0  0  0  0  0  0  0  0  0  0  0
   -1.4930   -0.8634   -1.3033 H   0  0  0  0  0  0  0  0  0  0  0  0
    2.5419    1.0283   -0.3107 H   0  0  0  0  0  0  0  0  0  0  0  0
    2.0728    1.4229   -1.9971 H   0  0  0  0  0  0  0  0  0  0  0  0
    4.3350    0.5440   -1.9445 H   0  0  0  0  0  0  0  0  0  0  0  0
    3.3070   -0.6800   -2.7742 H   0  0  0  0  0  0  0  0  0  0  0  0
    5.6728   -1.7194   -1.9223 H   0  0  0  0  0  0  0  0  0  0  0  0
    6.6546   -3.2933   -0.5451 H   0  0  0  0  0  0  0  0  0  0  0  0
    5.0276   -3.6343    0.1285 H   0  0  0  0  0  0  0  0  0  0  0  0
    6.5979   -2.8718    1.9273 H   0  0  0  0  0  0  0  0  0  0  0  0
    5.2745   -1.7025    1.7161 H   0  0  0  0  0  0  0  0  0  0  0  0
    8.7434   -2.3940    0.3183 H   0  0  0  0  0  0  0  0  0  0  0  0
   10.4127   -0.6312   -0.0526 H   0  0  0  0  0  0  0  0  0  0  0  0
   10.9229    1.7499    0.0388 H   0  0  0  0  0  0  0  0  0  0  0  0
    8.0926    3.3376    1.1392 H   0  0  0  0  0  0  0  0  0  0  0  0
    5.8934    0.5756    1.6039 H   0  0  0  0  0  0  0  0  0  0  0  0
   -3.7286    0.0230   -1.6604 H   0  0  0  0  0  0  0  0  0  0  0  0
   -4.8732    4.3870   -2.0784 H   0  0  0  0  0  0  0  0  0  0  0  0
   -3.2070    4.4059   -1.3866 H   0  0  0  0  0  0  0  0  0  0  0  0
   -4.5782    5.0774   -0.4329 H   0  0  0  0  0  0  0  0  0  0  0  0
   -6.5367    2.4977   -1.2146 H   0  0  0  0  0  0  0  0  0  0  0  0
   -6.4684    3.6500    0.1574 H   0  0  0  0  0  0  0  0  0  0  0  0
   -7.4230    1.4841    0.8930 H   0  0  0  0  0  0  0  0  0  0  0  0
   -6.0213    2.0967    1.7478 H   0  0  0  0  0  0  0  0  0  0  0  0
   -5.7038   -0.0896    1.7287 H   0  0  0  0  0  0  0  0  0  0  0  0
   -5.8539   -0.5905   -1.2957 H   0  0  0  0  0  0  0  0  0  0  0  0
   -7.8321   -1.3012    0.9617 H   0  0  0  0  0  0  0  0  0  0  0  0
   -7.8732   -1.9278   -0.7316 H   0  0  0  0  0  0  0  0  0  0  0  0
   -8.1333   -0.1864   -0.4318 H   0  0  0  0  0  0  0  0  0  0  0  0
   -5.6118   -2.9855   -0.4571 H   0  0  0  0  0  0  0  0  0  0  0  0
   -5.5806   -2.3869    1.2347 H   0  0  0  0  0  0  0  0  0  0  0  0
   -3.4709   -1.9301   -0.9284 H   0  0  0  0  0  0  0  0  0  0  0  0
   -3.3226   -2.9250    0.5286 H   0  0  0  0  0  0  0  0  0  0  0  0
   -3.5221   -0.9512    2.0260 H   0  0  0  0  0  0  0  0  0  0  0  0
  1 38  1  0  0  0  0
  1 39  1  0  0  0  0
  1 40  1  0  0  0  0
  2  1  1  0  0  0  0
  2  3  1  0  0  0  0
  2 41  1  1  0  0  0
  3  4  1  0  0  0  0
  3 22  1  0  0  0  0
  3 42  1  6  0  0  0
  4  5  1  0  0  0  0
  5  6  2  0  0  0  0
  5  7  1  0  0  0  0
  7  8  1  0  0  0  0
  7 43  1  0  0  0  0
  7 44  1  0  0  0  0
  8  9  1  0  0  0  0
  8 45  1  0  0  0  0
  8 46  1  0  0  0  0
  9 10  2  0  0  0  0
  9 11  1  0  0  0  0
 11 12  1  0  0  0  0
 11 47  1  0  0  0  0
 12 13  1  0  0  0  0
 12 48  1  0  0  0  0
 12 49  1  0  0  0  0
 13 14  1  0  0  0  0
 13 50  1  0  0  0  0
 13 51  1  0  0  0  0
 14 15  2  0  0  0  0
 15 16  1  0  0  0  0
 15 52  1  0  0  0  0
 16 17  2  0  0  0  0
 16 53  1  0  0  0  0
 17 18  1  0  0  0  0
 17 19  1  0  0  0  0
 18 54  1  0  0  0  0
 19 20  1  0  0  0  0
 19 21  2  0  0  0  0
 20 55  1  0  0  0  0
 21 14  1  0  0  0  0
 21 56  1  0  0  0  0
 23 22  1  0  0  0  0
 23 24  1  0  0  0  0
 23 57  1  6  0  0  0
 24 25  1  0  0  0  0
 25 26  1  6  0  0  0
 25 27  1  0  0  0  0
 26 58  1  0  0  0  0
 26 59  1  0  0  0  0
 26 60  1  0  0  0  0
 27 28  1  0  0  0  0
 27 61  1  0  0  0  0
 27 62  1  0  0  0  0
 28 63  1  0  0  0  0
 28 64  1  0  0  0  0
 29 28  1  0  0  0  0
 29 30  1  0  0  0  0
 29 65  1  1  0  0  0
 30 31  1  0  0  0  0
 30 32  1  0  0  0  0
 30 66  1  6  0  0  0
 31 67  1  0  0  0  0
 31 68  1  0  0  0  0
 31 69  1  0  0  0  0
 32 33  1  0  0  0  0
 32 70  1  0  0  0  0
 32 71  1  0  0  0  0
 33 72  1  0  0  0  0
 33 73  1  0  0  0  0
 34 33  1  0  0  0  0
 34 35  1  0  0  0  0
 34  2  1  0  0  0  0
 34 74  1  1  0  0  0
 35 36  1  1  0  0  0
 35 23  1  0  0  0  0
 35 29  1  0  0  0  0
 36 37  1  0  0  0  0
 37 25  1  0  0  0  0
M  END
>  <IDENTIFIER>
CNP0247374.3

>  <Energy>
659.326

$$$$
