
 OpenBabel09112518062D

205204  0  0  0  0  0  0  0  0999 V2000
   27.2798   15.7500    0.0000 C   0  0  0  0  0  0  0  0  0  0  0  0
   25.9808   15.0000    0.0000 C   0  0  0  0  0  0  0  0  0  0  0  0
   24.3299   14.6884    0.0234 C   0  0  0  0  0  0  0  0  0  0  0  0
   23.7283   13.0970   -0.0148 C   0  0  0  0  0  0  0  0  0  0  0  0
   22.0836   12.7500    0.0000 C   0  0  0  0  0  0  0  0  0  0  0  0
   20.7846   12.0000    0.0000 C   0  0  0  0  0  2  0  0  0  0  0  0
   19.4856   11.2500    0.0000 C   0  0  0  0  0  0  0  0  0  0  0  0
   18.1865   10.5000    0.0000 C   0  0  0  0  0  0  0  0  0  0  0  0
   16.8875    9.7500    0.0000 C   0  0  0  0  0  2  0  0  0  0  0  0
   15.5885    9.0000    0.0000 C   0  0  0  0  0  0  0  0  0  0  0  0
   13.9447    8.6525    0.0483 C   0  0  0  0  0  0  0  0  0  0  0  0
   13.3410    7.0643   -0.0460 C   0  0  0  0  0  0  0  0  0  0  0  0
   11.6913    6.7500    0.0000 C   0  0  0  0  0  0  0  0  0  0  0  0
   10.3923    6.0000    0.0000 C   0  0  0  0  0  0  0  0  0  0  0  0
    9.0933    5.2500    0.0000 C   0  0  0  0  0  0  0  0  0  0  0  0
    7.7942    4.5000    0.0000 C   0  0  0  0  0  0  0  0  0  0  0  0
    6.4952    3.7500    0.0000 C   0  0  0  0  0  0  0  0  0  0  0  0
    5.1962    3.0000    0.0000 C   0  0  0  0  0  0  0  0  0  0  0  0
    3.5684    2.7591   -0.0308 C   0  0  0  0  0  0  0  0  0  0  0  0
    3.0201    1.2033    0.2380 C   0  0  0  0  0  0  0  0  0  0  0  0
    1.4279    0.7929    0.0968 C   0  0  0  0  0  0  0  0  0  0  0  0
    0.7518   -0.5919    0.6365 C   0  0  0  0  0  0  0  0  0  0  0  0
    0.8170   -0.8084    1.8330 O   0  0  0  0  0  0  0  0  0  0  0  0
   -0.0373   -1.4791   -0.1583 O   0  0  0  0  0  0  0  0  0  0  0  0
   -1.2990   -2.2500    0.0000 C   0  0  1  0  0  0  0  0  0  0  0  0
   -2.0490   -0.9510   -0.0000 C   0  0  0  0  0  0  0  0  0  0  0  0
   -2.8441   -0.0412    0.8450 O   0  0  0  0  0  0  0  0  0  0  0  0
   -3.8349    0.8809    0.2711 C   0  0  0  0  0  0  0  0  0  0  0  0
   -4.0106    0.8034   -0.9343 O   0  0  0  0  0  0  0  0  0  0  0  0
   -4.7577    2.0519    0.9797 C   0  0  0  0  0  0  0  0  0  0  0  0
   -5.7990    2.9462    0.0000 C   0  0  0  0  0  0  0  0  0  0  0  0
   -6.5490    4.2452    0.0000 C   0  0  0  0  0  0  0  0  0  0  0  0
   -7.2990    5.5442    0.0000 C   0  0  0  0  0  0  0  0  0  0  0  0
   -8.0490    6.8433    0.0000 C   0  0  0  0  0  0  0  0  0  0  0  0
   -8.7990    8.1423    0.0000 C   0  0  0  0  0  0  0  0  0  0  0  0
   -9.5490    9.4413    0.0000 C   0  0  0  0  0  0  0  0  0  0  0  0
   -9.9251   11.0617    0.2392 C   0  0  0  0  0  0  0  0  0  0  0  0
  -11.4217   11.7188   -0.2415 C   0  0  0  0  0  0  0  0  0  0  0  0
  -11.7990   13.3385    0.0000 C   0  0  0  0  0  0  0  0  0  0  0  0
  -12.5490   14.6375    0.0000 C   0  0  0  0  0  0  0  0  0  0  0  0
  -13.2990   15.9365    0.0000 C   0  0  0  0  0  0  0  0  0  0  0  0
  -14.0490   17.2356    0.0000 C   0  0  0  0  0  0  0  0  0  0  0  0
  -14.7990   18.5346    0.0000 C   0  0  0  0  0  2  0  0  0  0  0  0
  -15.5490   19.8336    0.0000 C   0  0  0  0  0  0  0  0  0  0  0  0
  -16.0258   21.4086    0.3447 C   0  0  0  0  0  0  0  0  0  0  0  0
  -17.3175   22.1856   -0.4513 C   0  0  0  0  0  0  0  0  0  0  0  0
  -17.7990   23.7308    0.0000 C   0  0  0  0  0  0  0  0  0  0  0  0
  -18.5490   25.0298    0.0000 C   0  0  0  0  0  0  0  0  0  0  0  0
  -19.2990   26.3288    0.0000 C   0  0  0  0  0  0  0  0  0  0  0  0
  -20.0490   27.6279    0.0000 C   0  0  0  0  0  0  0  0  0  0  0  0
  -20.7990   28.9269    0.0000 C   0  0  0  0  0  0  0  0  0  0  0  0
  -21.3481   26.8779    0.0000 C   0  0  0  0  0  0  0  0  0  0  0  0
   -0.5490   -3.5490    0.0000 C   0  0  0  0  0  0  0  0  0  0  0  0
    0.6422   -4.1116   -0.6677 O   0  0  0  0  0  0  0  0  0  0  0  0
    1.4105   -5.2325   -0.1453 C   0  0  0  0  0  0  0  0  0  0  0  0
    1.2386   -5.5015    1.0342 O   0  0  0  0  0  0  0  0  0  0  0  0
    2.4747   -6.2435   -0.9155 C   0  0  0  0  0  0  0  0  0  0  0  0
    3.2010   -7.4462    0.0000 C   0  0  0  0  0  0  0  0  0  0  0  0
    3.9510   -8.7452    0.0000 C   0  0  0  0  0  0  0  0  0  0  0  0
    4.7010  -10.0442    0.0000 C   0  0  0  0  0  0  0  0  0  0  0  0
    5.4510  -11.3433    0.0000 C   0  0  0  0  0  0  0  0  0  0  0  0
    6.2010  -12.6423    0.0000 C   0  0  0  0  0  0  0  0  0  0  0  0
    6.9510  -13.9413    0.0000 C   0  0  0  0  0  0  0  0  0  0  0  0
    7.2943  -15.5742   -0.1949 C   0  0  0  0  0  0  0  0  0  0  0  0
    8.8379  -16.2039    0.1472 C   0  0  0  0  0  0  0  0  0  0  0  0
    9.2010  -17.8385    0.0000 C   0  0  0  0  0  0  0  0  0  0  0  0
    9.9510  -19.1375    0.0000 C   0  0  0  0  0  2  0  0  0  0  0  0
   10.7010  -20.4365    0.0000 C   0  0  0  0  0  0  0  0  0  0  0  0
   11.4510  -21.7356    0.0000 C   0  0  0  0  0  0  0  0  0  0  0  0
   12.2010  -23.0346    0.0000 C   0  0  0  0  0  2  0  0  0  0  0  0
   12.9510  -24.3336    0.0000 C   0  0  0  0  0  0  0  0  0  0  0  0
   13.3634  -25.9369    0.2888 C   0  0  0  0  0  0  0  0  0  0  0  0
   14.7456  -26.6598   -0.3899 C   0  0  0  0  0  0  0  0  0  0  0  0
   15.2010  -28.2308    0.0000 C   0  0  0  0  0  0  0  0  0  0  0  0
   15.9510  -29.5298    0.0000 C   0  0  0  0  0  0  0  0  0  0  0  0
   16.7010  -30.8288    0.0000 C   0  0  0  0  0  0  0  0  0  0  0  0
   17.2500  -28.7798    0.0000 C   0  0  0  0  0  0  0  0  0  0  0  0
   27.9855   14.8905   -0.1333 H   0  0  0  0  0  0  0  0  0  0  0  0
   27.0949   16.3012   -0.9495 H   0  0  0  0  0  0  0  0  0  0  0  0
   28.2064   16.2850    0.0000 H   0  0  0  0  0  0  0  0  0  0  0  0
   26.1960   14.3680    0.8925 H   0  0  0  0  0  0  0  0  0  0  0  0
   26.1395   14.3704   -0.9129 H   0  0  0  0  0  0  0  0  0  0  0  0
   23.8896   15.2170   -0.8484 H   0  0  0  0  0  0  0  0  0  0  0  0
   23.9212   15.1674    0.9380 H   0  0  0  0  0  0  0  0  0  0  0  0
   24.1428   12.6236   -0.9295 H   0  0  0  0  0  0  0  0  0  0  0  0
   24.1718   12.5698    0.8559 H   0  0  0  0  0  0  0  0  0  0  0  0
   21.8513   13.3457    0.9074 H   0  0  0  0  0  0  0  0  0  0  0  0
   21.8225   13.3986   -0.8621 H   0  0  0  0  0  0  0  0  0  0  0  0
   19.8547   10.6943   -0.8960 H   0  0  0  0  0  0  0  0  0  0  0  0
   19.8547   10.6944    0.8960 H   0  0  0  0  0  0  0  0  0  0  0  0
   17.8174   11.0557    0.8959 H   0  0  0  0  0  0  0  0  0  0  0  0
   17.8174   11.0556   -0.8960 H   0  0  0  0  0  0  0  0  0  0  0  0
   15.7929    8.4504   -0.9425 H   0  0  0  0  0  0  0  0  0  0  0  0
   15.8747    8.3093    0.8205 H   0  0  0  0  0  0  0  0  0  0  0  0
   13.5576    9.0817    0.9964 H   0  0  0  0  0  0  0  0  0  0  0  0
   13.4762    9.2195   -0.7829 H   0  0  0  0  0  0  0  0  0  0  0  0
   13.8016    6.4955    0.7888 H   0  0  0  0  0  0  0  0  0  0  0  0
   13.7253    6.6293   -0.9925 H   0  0  0  0  0  0  0  0  0  0  0  0
   11.4426    7.4664   -0.8216 H   0  0  0  0  0  0  0  0  0  0  0  0
   11.5121    7.3621    0.9222 H   0  0  0  0  0  0  0  0  0  0  0  0
   10.6535    5.5599   -0.9996 H   0  0  0  0  0  0  0  0  0  0  0  0
   10.8942    5.4209    0.8436 H   0  0  0  0  0  0  0  0  0  0  0  0
    8.8853    5.6455    1.0396 H   0  0  0  0  0  0  0  0  0  0  0  0
    9.5774    4.2216    0.1259 H   0  0  0  0  0  0  0  0  0  0  0  0
    7.3154    5.5251   -0.1566 H   0  0  0  0  0  0  0  0  0  0  0  0
    8.0118    4.0844   -1.0330 H   0  0  0  0  0  0  0  0  0  0  0  0
    6.0238    4.2732   -0.8950 H   0  0  0  0  0  0  0  0  0  0  0  0
    6.1924    4.2578    0.9566 H   0  0  0  0  0  0  0  0  0  0  0  0
    5.4293    2.2871   -0.8313 H   0  0  0  0  0  0  0  0  0  0  0  0
    5.3793    2.3777    0.9117 H   0  0  0  0  0  0  0  0  0  0  0  0
    3.1980    3.1031   -1.0192 H   0  0  0  0  0  0  0  0  0  0  0  0
    3.1053    3.4028    0.7464 H   0  0  0  0  0  0  0  0  0  0  0  0
    3.3234    0.9566    1.2771 H   0  0  0  0  0  0  0  0  0  0  0  0
    3.5762    0.5210   -0.4378 H   0  0  0  0  0  0  0  0  0  0  0  0
    1.1558    0.9173   -0.9740 H   0  0  0  0  0  0  0  0  0  0  0  0
    0.8888    1.5892    0.6542 H   0  0  0  0  0  0  0  0  0  0  0  0
   -1.5347   -2.5268   -1.0680 H   0  0  0  0  0  0  0  0  0  0  0  0
   -2.9589   -1.3581   -0.5170 H   0  0  0  0  0  0  0  0  0  0  0  0
   -1.6796   -0.2752   -0.8235 H   0  0  0  0  0  0  0  0  0  0  0  0
   -4.0541    2.7649    1.4579 H   0  0  0  0  0  0  0  0  0  0  0  0
   -5.3720    1.5903    1.7833 H   0  0  0  0  0  0  0  0  0  0  0  0
   -6.4715    2.1715   -0.4501 H   0  0  0  0  0  0  0  0  0  0  0  0
   -5.0968    3.1645   -0.8380 H   0  0  0  0  0  0  0  0  0  0  0  0
   -7.2337    3.6824    0.7120 H   0  0  0  0  0  0  0  0  0  0  0  0
   -5.6867    4.7252    0.5297 H   0  0  0  0  0  0  0  0  0  0  0  0
   -8.1661    5.0213   -0.4988 H   0  0  0  0  0  0  0  0  0  0  0  0
   -7.4998    5.5369    1.1280 H   0  0  0  0  0  0  0  0  0  0  0  0
   -7.0768    7.2967    0.4051 H   0  0  0  0  0  0  0  0  0  0  0  0
   -7.9880    6.8968   -1.1260 H   0  0  0  0  0  0  0  0  0  0  0  0
   -7.9673    8.7946   -0.4238 H   0  0  0  0  0  0  0  0  0  0  0  0
   -8.7899    8.1481    1.1240 H   0  0  0  0  0  0  0  0  0  0  0  0
   -9.8126    9.4471   -1.0882 H   0  0  0  0  0  0  0  0  0  0  0  0
  -10.4941    9.0702    0.4706 H   0  0  0  0  0  0  0  0  0  0  0  0
   -9.8284   11.2534    1.3288 H   0  0  0  0  0  0  0  0  0  0  0  0
   -9.1355   11.6534   -0.2693 H   0  0  0  0  0  0  0  0  0  0  0  0
  -12.2116   11.1265    0.2664 H   0  0  0  0  0  0  0  0  0  0  0  0
  -11.5176   11.5276   -1.3309 H   0  0  0  0  0  0  0  0  0  0  0  0
  -10.8461   13.7091   -0.4562 H   0  0  0  0  0  0  0  0  0  0  0  0
  -11.5526   13.3293    1.0911 H   0  0  0  0  0  0  0  0  0  0  0  0
  -12.5252   14.6460   -1.1244 H   0  0  0  0  0  0  0  0  0  0  0  0
  -13.4011   13.9904    0.3841 H   0  0  0  0  0  0  0  0  0  0  0  0
  -13.4132   15.8666    1.1196 H   0  0  0  0  0  0  0  0  0  0  0  0
  -14.2380   15.5247   -0.4954 H   0  0  0  0  0  0  0  0  0  0  0  0
  -13.8194   17.4239   -1.0807 H   0  0  0  0  0  0  0  0  0  0  0  0
  -13.2383   17.7796    0.5500 H   0  0  0  0  0  0  0  0  0  0  0  0
  -15.4920   19.9735   -1.0996 H   0  0  0  0  0  0  0  0  0  0  0  0
  -16.5401   19.3735    0.1956 H   0  0  0  0  0  0  0  0  0  0  0  0
  -16.2466   21.4395    1.4319 H   0  0  0  0  0  0  0  0  0  0  0  0
  -15.1348   22.0497    0.1751 H   0  0  0  0  0  0  0  0  0  0  0  0
  -18.2096   21.5296   -0.3607 H   0  0  0  0  0  0  0  0  0  0  0  0
  -17.0466   22.2224   -1.5274 H   0  0  0  0  0  0  0  0  0  0  0  0
  -16.7110   24.0481    0.0403 H   0  0  0  0  0  0  0  0  0  0  0  0
  -18.0778   23.4098    1.0341 H   0  0  0  0  0  0  0  0  0  0  0  0
  -17.8708   25.4515    0.8239 H   0  0  0  0  0  0  0  0  0  0  0  0
  -17.9509   25.2710   -0.9383 H   0  0  0  0  0  0  0  0  0  0  0  0
  -19.7320   25.8375    0.9706 H   0  0  0  0  0  0  0  0  0  0  0  0
  -19.6604   26.0431   -1.0587 H   0  0  0  0  0  0  0  0  0  0  0  0
  -19.5246   27.8334    0.9771 H   0  0  0  0  0  0  0  0  0  0  0  0
  -19.9113   29.5706   -0.2000 H   0  0  0  0  0  0  0  0  0  0  0  0
  -21.1079   29.0545    1.0779 H   0  0  0  0  0  0  0  0  0  0  0  0
  -21.3340   29.8535    0.0000 H   0  0  0  0  0  0  0  0  0  0  0  0
  -21.7580   27.0884   -1.0292 H   0  0  0  0  0  0  0  0  0  0  0  0
  -21.8086   27.0852    1.0061 H   0  0  0  0  0  0  0  0  0  0  0  0
  -22.2748   26.3429    0.0000 H   0  0  0  0  0  0  0  0  0  0  0  0
   -0.2932   -3.5894    1.0825 H   0  0  0  0  0  0  0  0  0  0  0  0
   -1.3223   -4.3543   -0.0533 H   0  0  0  0  0  0  0  0  0  0  0  0
    1.8960   -6.7410   -1.7218 H   0  0  0  0  0  0  0  0  0  0  0  0
    3.2768   -5.6421   -1.3921 H   0  0  0  0  0  0  0  0  0  0  0  0
    3.7821   -6.8267    0.7224 H   0  0  0  0  0  0  0  0  0  0  0  0
    2.2473   -7.7179    0.5345 H   0  0  0  0  0  0  0  0  0  0  0  0
    3.1380   -9.1985   -0.6303 H   0  0  0  0  0  0  0  0  0  0  0  0
    3.7279   -8.9372    1.0912 H   0  0  0  0  0  0  0  0  0  0  0  0
    4.9854   -9.8921   -1.0834 H   0  0  0  0  0  0  0  0  0  0  0  0
    5.5724   -9.5185    0.4966 H   0  0  0  0  0  0  0  0  0  0  0  0
    5.3671  -11.3958    1.1250 H   0  0  0  0  0  0  0  0  0  0  0  0
    4.4935  -11.7642   -0.4518 H   0  0  0  0  0  0  0  0  0  0  0  0
    5.3697  -13.2804    0.4397 H   0  0  0  0  0  0  0  0  0  0  0  0
    6.1674  -12.6658   -1.1244 H   0  0  0  0  0  0  0  0  0  0  0  0
    7.2785  -13.9008    1.0681 H   0  0  0  0  0  0  0  0  0  0  0  0
    7.8685  -13.6010   -0.5448 H   0  0  0  0  0  0  0  0  0  0  0  0
    7.0748  -15.8285   -1.2525 H   0  0  0  0  0  0  0  0  0  0  0  0
    6.5687  -16.1306    0.4354 H   0  0  0  0  0  0  0  0  0  0  0  0
    9.5487  -15.6606   -0.5099 H   0  0  0  0  0  0  0  0  0  0  0  0
    9.0768  -15.9194    1.1934 H   0  0  0  0  0  0  0  0  0  0  0  0
    8.3829  -18.1966    0.6592 H   0  0  0  0  0  0  0  0  0  0  0  0
    8.8215  -17.9460   -1.0375 H   0  0  0  0  0  0  0  0  0  0  0  0
   11.2566  -20.0674   -0.8960 H   0  0  0  0  0  0  0  0  0  0  0  0
   11.2566  -20.0674    0.8960 H   0  0  0  0  0  0  0  0  0  0  0  0
   10.8952  -22.1047    0.8959 H   0  0  0  0  0  0  0  0  0  0  0  0
   10.8954  -22.1047   -0.8960 H   0  0  0  0  0  0  0  0  0  0  0  0
   13.0343  -24.3939   -1.1052 H   0  0  0  0  0  0  0  0  0  0  0  0
   13.9108  -23.9001    0.3509 H   0  0  0  0  0  0  0  0  0  0  0  0
   13.4426  -26.0482    1.3902 H   0  0  0  0  0  0  0  0  0  0  0  0
   12.5009  -26.5542   -0.0412 H   0  0  0  0  0  0  0  0  0  0  0  0
   15.6085  -26.0129   -0.1248 H   0  0  0  0  0  0  0  0  0  0  0  0
   14.6259  -26.6114   -1.4923 H   0  0  0  0  0  0  0  0  0  0  0  0
   14.1798  -28.6588   -0.1540 H   0  0  0  0  0  0  0  0  0  0  0  0
   15.1919  -28.0510    1.1048 H   0  0  0  0  0  0  0  0  0  0  0  0
   15.7090  -29.6872   -1.0877 H   0  0  0  0  0  0  0  0  0  0  0  0
   15.8067  -31.4928   -0.0952 H   0  0  0  0  0  0  0  0  0  0  0  0
   16.9489  -30.8564    1.0937 H   0  0  0  0  0  0  0  0  0  0  0  0
   17.2360  -31.7554    0.0000 H   0  0  0  0  0  0  0  0  0  0  0  0
   17.3205  -28.4156    1.0610 H   0  0  0  0  0  0  0  0  0  0  0  0
   17.2612  -28.1675   -0.9518 H   0  0  0  0  0  0  0  0  0  0  0  0
   18.1766  -28.2448    0.0000 H   0  0  0  0  0  0  0  0  0  0  0  0
  1  2  1  0  0  0  0
  1 78  1  0  0  0  0
  1 79  1  0  0  0  0
  1 80  1  0  0  0  0
  2  3  1  0  0  0  0
  2 81  1  0  0  0  0
  2 82  1  0  0  0  0
  3  4  1  0  0  0  0
  3 83  1  0  0  0  0
  3 84  1  0  0  0  0
  4  5  1  0  0  0  0
  4 85  1  0  0  0  0
  4 86  1  0  0  0  0
  5  6  1  0  0  0  0
  5 87  1  0  0  0  0
  5 88  1  0  0  0  0
  6  7  1  0  0  0  0
  7  8  1  0  0  0  0
  7 89  1  0  0  0  0
  7 90  1  0  0  0  0
  8  9  1  0  0  0  0
  8 91  1  0  0  0  0
  8 92  1  0  0  0  0
  9 10  1  0  0  0  0
 10 11  1  0  0  0  0
 10 93  1  0  0  0  0
 10 94  1  0  0  0  0
 11 12  1  0  0  0  0
 11 95  1  0  0  0  0
 11 96  1  0  0  0  0
 12 13  1  0  0  0  0
 12 97  1  0  0  0  0
 12 98  1  0  0  0  0
 13 14  1  0  0  0  0
 13 99  1  0  0  0  0
 13100  1  0  0  0  0
 14 15  1  0  0  0  0
 14101  1  0  0  0  0
 14102  1  0  0  0  0
 15 16  1  0  0  0  0
 15103  1  0  0  0  0
 15104  1  0  0  0  0
 16 17  1  0  0  0  0
 16105  1  0  0  0  0
 16106  1  0  0  0  0
 17 18  1  0  0  0  0
 17107  1  0  0  0  0
 17108  1  0  0  0  0
 18 19  1  0  0  0  0
 18109  1  0  0  0  0
 18110  1  0  0  0  0
 19 20  1  0  0  0  0
 19111  1  0  0  0  0
 19112  1  0  0  0  0
 20 21  1  0  0  0  0
 20113  1  0  0  0  0
 20114  1  0  0  0  0
 21 22  1  0  0  0  0
 21115  1  0  0  0  0
 21116  1  0  0  0  0
 22 23  2  0  0  0  0
 22 24  1  0  0  0  0
 24 25  1  0  0  0  0
 25 26  1  0  0  0  0
 25 53  1  0  0  0  0
 25117  1  1  0  0  0
 26 27  1  0  0  0  0
 26118  1  0  0  0  0
 26119  1  0  0  0  0
 27 28  1  0  0  0  0
 28 29  2  0  0  0  0
 28 30  1  0  0  0  0
 30 31  1  0  0  0  0
 30120  1  0  0  0  0
 30121  1  0  0  0  0
 31 32  1  0  0  0  0
 31122  1  0  0  0  0
 31123  1  0  0  0  0
 32 33  1  0  0  0  0
 32124  1  0  0  0  0
 32125  1  0  0  0  0
 33 34  1  0  0  0  0
 33126  1  0  0  0  0
 33127  1  0  0  0  0
 34 35  1  0  0  0  0
 34128  1  0  0  0  0
 34129  1  0  0  0  0
 35 36  1  0  0  0  0
 35130  1  0  0  0  0
 35131  1  0  0  0  0
 36 37  1  0  0  0  0
 36132  1  0  0  0  0
 36133  1  0  0  0  0
 37 38  1  0  0  0  0
 37134  1  0  0  0  0
 37135  1  0  0  0  0
 38 39  1  0  0  0  0
 38136  1  0  0  0  0
 38137  1  0  0  0  0
 39 40  1  0  0  0  0
 39138  1  0  0  0  0
 39139  1  0  0  0  0
 40 41  1  0  0  0  0
 40140  1  0  0  0  0
 40141  1  0  0  0  0
 41 42  1  0  0  0  0
 41142  1  0  0  0  0
 41143  1  0  0  0  0
 42 43  1  0  0  0  0
 42144  1  0  0  0  0
 42145  1  0  0  0  0
 43 44  1  0  0  0  0
 44 45  1  0  0  0  0
 44146  1  0  0  0  0
 44147  1  0  0  0  0
 45 46  1  0  0  0  0
 45148  1  0  0  0  0
 45149  1  0  0  0  0
 46 47  1  0  0  0  0
 46150  1  0  0  0  0
 46151  1  0  0  0  0
 47 48  1  0  0  0  0
 47152  1  0  0  0  0
 47153  1  0  0  0  0
 48 49  1  0  0  0  0
 48154  1  0  0  0  0
 48155  1  0  0  0  0
 49 50  1  0  0  0  0
 49156  1  0  0  0  0
 49157  1  0  0  0  0
 50 51  1  0  0  0  0
 50 52  1  0  0  0  0
 50158  1  0  0  0  0
 51159  1  0  0  0  0
 51160  1  0  0  0  0
 51161  1  0  0  0  0
 52162  1  0  0  0  0
 52163  1  0  0  0  0
 52164  1  0  0  0  0
 53 54  1  0  0  0  0
 53165  1  0  0  0  0
 53166  1  0  0  0  0
 54 55  1  0  0  0  0
 55 56  2  0  0  0  0
 55 57  1  0  0  0  0
 57 58  1  0  0  0  0
 57167  1  0  0  0  0
 57168  1  0  0  0  0
 58 59  1  0  0  0  0
 58169  1  0  0  0  0
 58170  1  0  0  0  0
 59 60  1  0  0  0  0
 59171  1  0  0  0  0
 59172  1  0  0  0  0
 60 61  1  0  0  0  0
 60173  1  0  0  0  0
 60174  1  0  0  0  0
 61 62  1  0  0  0  0
 61175  1  0  0  0  0
 61176  1  0  0  0  0
 62 63  1  0  0  0  0
 62177  1  0  0  0  0
 62178  1  0  0  0  0
 63 64  1  0  0  0  0
 63179  1  0  0  0  0
 63180  1  0  0  0  0
 64 65  1  0  0  0  0
 64181  1  0  0  0  0
 64182  1  0  0  0  0
 65 66  1  0  0  0  0
 65183  1  0  0  0  0
 65184  1  0  0  0  0
 66 67  1  0  0  0  0
 66185  1  0  0  0  0
 66186  1  0  0  0  0
 67 68  1  0  0  0  0
 68 69  1  0  0  0  0
 68187  1  0  0  0  0
 68188  1  0  0  0  0
 69 70  1  0  0  0  0
 69189  1  0  0  0  0
 69190  1  0  0  0  0
 70 71  1  0  0  0  0
 71 72  1  0  0  0  0
 71191  1  0  0  0  0
 71192  1  0  0  0  0
 72 73  1  0  0  0  0
 72193  1  0  0  0  0
 72194  1  0  0  0  0
 73 74  1  0  0  0  0
 73195  1  0  0  0  0
 73196  1  0  0  0  0
 74 75  1  0  0  0  0
 74197  1  0  0  0  0
 74198  1  0  0  0  0
 75 76  1  0  0  0  0
 75 77  1  0  0  0  0
 75199  1  0  0  0  0
 76200  1  0  0  0  0
 76201  1  0  0  0  0
 76202  1  0  0  0  0
 77203  1  0  0  0  0
 77204  1  0  0  0  0
 77205  1  0  0  0  0
M  END
>  <IDENTIFIER>
CNP0584379.2

>  <Energy>
18935.5

$$$$
