
 OpenBabel09112500193D

132144  0  0  0  0  0  0  0  0999 V2000
    1.3712   -3.6233   -1.1054 C   0  0  0  0  0  0  0  0  0  0  0  0
    0.8850   -2.3791   -1.4457 O   0  0  0  0  0  0  0  0  0  0  0  0
   -0.3635   -1.9767   -1.1073 C   0  0  0  0  0  0  0  0  0  0  0  0
   -0.5418   -1.2127    0.0611 C   0  0  0  0  0  0  0  0  0  0  0  0
    0.7179   -0.6180    0.6404 C   0  0  0  0  0  0  0  0  0  0  0  0
    1.6211   -0.7943    1.6504 C   0  0  0  0  0  0  0  0  0  0  0  0
    1.8272   -1.7453    2.8297 C   0  0  2  0  0  0  0  0  0  0  0  0
    2.6083   -2.9866    2.5060 C   0  0  0  0  0  0  0  0  0  0  0  0
    3.8465   -3.0131    2.0058 C   0  0  0  0  0  0  0  0  0  0  0  0
    4.7963   -1.9594    1.5822 C   0  0  0  0  0  0  0  0  0  0  0  0
    6.0518   -2.3272    1.2058 C   0  0  0  0  0  0  0  0  0  0  0  0
    7.0458   -1.2917    0.7070 C   0  0  0  0  0  0  0  0  0  0  0  0
    8.3169   -1.2170    1.5847 C   0  0  0  0  0  0  0  0  0  0  0  0
    9.5109   -0.4005    0.9913 C   0  0  0  0  0  0  0  0  0  0  0  0
   10.5991   -0.5325    1.8807 O   0  0  0  0  0  0  0  0  0  0  0  0
    9.1829    1.1255    0.7732 C   0  0  0  0  0  0  0  0  0  0  0  0
   10.0508    1.8073   -0.3278 C   0  0  0  0  0  0  0  0  0  0  0  0
   11.4306    1.1642   -0.3965 C   0  0  0  0  0  0  0  0  0  0  0  0
   11.2989   -0.3193   -0.8282 C   0  0  0  0  0  0  0  0  0  0  0  0
    9.9746   -0.9815   -0.3596 C   0  0  0  0  0  0  0  0  0  0  0  0
    6.4793   -3.7818    1.2431 C   0  0  0  0  0  0  0  0  0  0  0  0
    5.6425   -4.7768    1.6117 C   0  0  0  0  0  0  0  0  0  0  0  0
    4.2449   -4.4031    1.9541 C   0  3  0  0  0  0  0  0  0  0  0  0
    3.1949   -5.2034    2.5103 N   0  0  0  0  0  0  0  0  0  0  0  0
    2.2422   -4.3897    2.8081 C   0  0  0  0  0  0  0  0  0  0  0  0
    0.6603   -2.0216    3.5950 O   0  0  0  0  0  0  0  0  0  0  0  0
    0.3723   -0.9576    4.5033 C   0  0  0  0  0  0  0  0  0  0  0  0
   -0.5737   -0.0014    3.8080 C   0  0  1  0  0  0  0  0  0  0  0  0
   -1.7647   -0.7241    3.5157 O   0  0  0  0  0  0  0  0  0  0  0  0
   -2.6051   -0.0089    2.6289 C   0  0  2  0  0  0  0  0  0  0  0  0
   -1.9637    0.2139    1.3956 O   0  0  0  0  0  0  0  0  0  0  0  0
   -1.8335   -0.6566    0.3442 C   0  0  0  0  0  0  0  0  0  0  0  0
   -2.9162   -0.8516   -0.6071 C   0  0  0  0  0  0  0  0  0  0  0  0
   -4.1462   -0.1378   -0.5077 C   0  0  0  0  0  0  0  0  0  0  0  0
   -4.3502    0.5891    0.5773 O   0  0  0  0  0  0  0  0  0  0  0  0
   -5.1110   -0.1175   -1.5560 C   0  0  0  0  0  0  0  0  0  0  0  0
   -6.1887    0.9714   -1.6539 C   0  0  0  0  0  0  0  0  0  0  0  0
   -6.5265    1.2731   -2.7867 O   0  0  0  0  0  0  0  0  0  0  0  0
   -6.6089    2.0476   -0.6629 C   0  0  0  0  0  0  0  0  0  0  0  0
   -5.8122    3.2531   -0.8565 N   0  0  0  0  0  0  0  0  0  0  0  0
   -4.4581    3.4331   -0.3658 C   0  0  0  0  0  0  0  0  0  0  0  0
   -4.1029    4.8159   -0.8131 C   0  0  0  0  0  0  0  0  0  0  0  0
   -2.9147    5.5431   -0.6117 C   0  0  0  0  0  0  0  0  0  0  0  0
   -2.8401    6.8302   -1.1885 C   0  0  0  0  0  0  0  0  0  0  0  0
   -3.9236    7.3604   -1.9189 C   0  0  0  0  0  0  0  0  0  0  0  0
   -5.1044    6.6191   -2.0808 C   0  0  0  0  0  0  0  0  0  0  0  0
   -5.1607    5.3513   -1.5128 C   0  0  0  0  0  0  0  0  0  0  0  0
   -6.2184    4.3643   -1.5106 C   0  0  0  0  0  0  0  0  0  0  0  0
   -7.3148    4.4962   -2.0335 O   0  0  0  0  0  0  0  0  0  0  0  0
   -1.7278    4.9735    0.1358 C   0  0  0  0  0  0  0  0  0  0  0  0
   -1.9884    4.5834    1.5390 C   0  0  0  0  0  0  0  0  0  0  0  0
   -2.0106    4.1963    2.6930 C   0  0  0  0  0  0  0  0  0  0  0  0
   -1.9833    3.5151    3.8823 O   0  0  0  0  0  0  0  0  0  0  0  0
   -1.7307    2.1505    3.5325 C   0  0  1  0  0  0  0  0  0  0  0  0
   -0.8187    1.3699    4.5074 C   0  0  2  0  0  0  0  0  0  0  0  0
    0.3916    2.0584    4.7170 O   0  0  0  0  0  0  0  0  0  0  0  0
   -3.0359    1.3372    3.3124 C   0  0  1  0  0  0  0  0  0  0  0  0
   -3.8671    2.0619    2.4604 O   0  0  0  0  0  0  0  0  0  0  0  0
   -3.8324    1.0406    4.6235 C   0  0  0  0  0  0  0  0  0  0  0  0
   -5.0223    0.3527    4.3362 O   0  0  0  0  0  0  0  0  0  0  0  0
   -4.9590   -1.0515   -2.6249 C   0  0  0  0  0  0  0  0  0  0  0  0
   -3.7527   -1.8139   -2.7182 C   0  0  0  0  0  0  0  0  0  0  0  0
   -3.5444   -2.7515   -3.8860 C   0  0  0  0  0  0  0  0  0  0  0  0
   -4.5426   -3.0419   -4.7392 C   0  0  0  0  0  0  0  0  0  0  0  0
   -5.9086   -2.5838   -4.3989 C   0  0  2  0  0  0  0  0  0  0  0  0
   -6.9374   -2.5042   -5.5115 C   0  0  0  0  0  0  0  0  0  0  0  0
   -8.0885   -1.7281   -4.8507 C   0  0  0  0  0  0  0  0  0  0  0  0
   -7.5038   -1.1973   -3.5279 C   0  0  0  0  0  0  0  0  0  0  0  0
   -5.9703   -1.1862   -3.7882 C   0  0  1  0  0  0  0  0  0  0  0  0
   -2.2554   -3.5034   -4.0334 C   0  0  0  0  0  0  0  0  0  0  0  0
   -1.1125   -2.7685   -3.3728 C   0  0  0  0  0  0  0  0  0  0  0  0
   -1.4327   -2.2156   -1.9962 C   0  0  0  0  0  0  0  0  0  0  0  0
   -2.7086   -1.6477   -1.7599 C   0  0  0  0  0  0  0  0  0  0  0  0
    2.4026   -3.7308   -1.4995 H   0  0  0  0  0  0  0  0  0  0  0  0
    0.7370   -4.4244   -1.5414 H   0  0  0  0  0  0  0  0  0  0  0  0
    1.3915   -3.7364   -0.0027 H   0  0  0  0  0  0  0  0  0  0  0  0
    0.9776    0.2429    0.0281 H   0  0  0  0  0  0  0  0  0  0  0  0
    2.3781   -0.0130    1.6579 H   0  0  0  0  0  0  0  0  0  0  0  0
    2.5877   -1.2484    3.4783 H   0  0  0  0  0  0  0  0  0  0  0  0
    4.4957   -0.9184    1.5687 H   0  0  0  0  0  0  0  0  0  0  0  0
    6.5776   -0.2862    0.6537 H   0  0  0  0  0  0  0  0  0  0  0  0
    7.3049   -1.6039   -0.3228 H   0  0  0  0  0  0  0  0  0  0  0  0
    8.7017   -2.2461    1.7416 H   0  0  0  0  0  0  0  0  0  0  0  0
    8.0365   -0.8125    2.5824 H   0  0  0  0  0  0  0  0  0  0  0  0
   10.3426   -0.1237    2.7487 H   0  0  0  0  0  0  0  0  0  0  0  0
    9.3077    1.6432    1.7488 H   0  0  0  0  0  0  0  0  0  0  0  0
    8.1353    1.2996    0.4578 H   0  0  0  0  0  0  0  0  0  0  0  0
   10.0976    2.9018   -0.1428 H   0  0  0  0  0  0  0  0  0  0  0  0
    9.5859    1.6573   -1.3279 H   0  0  0  0  0  0  0  0  0  0  0  0
   11.8704    1.2364    0.6219 H   0  0  0  0  0  0  0  0  0  0  0  0
   12.1210    1.6881   -1.0920 H   0  0  0  0  0  0  0  0  0  0  0  0
   12.1861   -0.8521   -0.4226 H   0  0  0  0  0  0  0  0  0  0  0  0
   11.3259   -0.4207   -1.9354 H   0  0  0  0  0  0  0  0  0  0  0  0
   10.1109   -2.0845   -0.3404 H   0  0  0  0  0  0  0  0  0  0  0  0
    9.1863   -0.7525   -1.1090 H   0  0  0  0  0  0  0  0  0  0  0  0
    7.4952   -4.0425    0.9656 H   0  0  0  0  0  0  0  0  0  0  0  0
    5.9747   -5.8092    1.6414 H   0  0  0  0  0  0  0  0  0  0  0  0
    1.3161   -4.7126    3.2638 H   0  0  0  0  0  0  0  0  0  0  0  0
    1.2768   -0.4246    4.8724 H   0  0  0  0  0  0  0  0  0  0  0  0
   -0.1132   -1.3711    5.4133 H   0  0  0  0  0  0  0  0  0  0  0  0
   -0.0764    0.2770    2.8821 H   0  0  0  0  0  0  0  0  0  0  0  0
   -3.5095   -0.6328    2.4623 H   0  0  0  0  0  0  0  0  0  0  0  0
   -5.2127    0.6325    0.9920 H   0  0  0  0  0  0  0  0  0  0  0  0
   -6.7180    1.7854    0.3993 H   0  0  0  0  0  0  0  0  0  0  0  0
   -7.6688    2.2718   -0.9186 H   0  0  0  0  0  0  0  0  0  0  0  0
   -3.7647    2.6868   -0.8060 H   0  0  0  0  0  0  0  0  0  0  0  0
   -4.4585    3.4118    0.7268 H   0  0  0  0  0  0  0  0  0  0  0  0
   -1.9391    7.4222   -1.0856 H   0  0  0  0  0  0  0  0  0  0  0  0
   -3.8438    8.3443   -2.3604 H   0  0  0  0  0  0  0  0  0  0  0  0
   -5.9413    7.0187   -2.6379 H   0  0  0  0  0  0  0  0  0  0  0  0
   -0.8772    5.6872    0.1286 H   0  0  0  0  0  0  0  0  0  0  0  0
   -1.3974    4.0615   -0.4083 H   0  0  0  0  0  0  0  0  0  0  0  0
   -1.1433    2.1227    2.5710 H   0  0  0  0  0  0  0  0  0  0  0  0
   -1.2884    1.2365    5.5006 H   0  0  0  0  0  0  0  0  0  0  0  0
    0.8490    2.1609    3.8416 H   0  0  0  0  0  0  0  0  0  0  0  0
   -4.2887    2.8024    2.9717 H   0  0  0  0  0  0  0  0  0  0  0  0
   -4.0624    1.9874    5.1646 H   0  0  0  0  0  0  0  0  0  0  0  0
   -3.2602    0.4107    5.3311 H   0  0  0  0  0  0  0  0  0  0  0  0
   -5.6919    1.0327    4.0631 H   0  0  0  0  0  0  0  0  0  0  0  0
   -4.4053   -3.7558   -5.5471 H   0  0  0  0  0  0  0  0  0  0  0  0
   -6.2550   -3.3326   -3.6439 H   0  0  0  0  0  0  0  0  0  0  0  0
   -7.2370   -3.4664   -5.9761 H   0  0  0  0  0  0  0  0  0  0  0  0
   -6.4976   -1.8544   -6.3050 H   0  0  0  0  0  0  0  0  0  0  0  0
   -8.9832   -2.3476   -4.6269 H   0  0  0  0  0  0  0  0  0  0  0  0
   -8.3774   -0.8981   -5.5346 H   0  0  0  0  0  0  0  0  0  0  0  0
   -7.6968   -1.9502   -2.7280 H   0  0  0  0  0  0  0  0  0  0  0  0
   -8.0617   -0.3029   -3.2007 H   0  0  0  0  0  0  0  0  0  0  0  0
   -5.7093   -0.4144   -4.5503 H   0  0  0  0  0  0  0  0  0  0  0  0
   -1.9943   -3.6509   -5.1058 H   0  0  0  0  0  0  0  0  0  0  0  0
   -2.3936   -4.5018   -3.5663 H   0  0  0  0  0  0  0  0  0  0  0  0
   -0.9144   -1.8713   -4.0016 H   0  0  0  0  0  0  0  0  0  0  0  0
   -0.1946   -3.3870   -3.4147 H   0  0  0  0  0  0  0  0  0  0  0  0
  1  2  1  0  0  0  0
  1 74  1  0  0  0  0
  1 75  1  0  0  0  0
  1 76  1  0  0  0  0
  2  3  1  0  0  0  0
  3  4  2  0  0  0  0
  4  5  1  0  0  0  0
  5  6  2  0  0  0  0
  5 77  1  0  0  0  0
  6  7  1  0  0  0  0
  6 78  1  0  0  0  0
  7  8  1  0  0  0  0
  7 26  1  0  0  0  0
  7 79  1  1  0  0  0
  8  9  2  0  0  0  0
  9 10  1  0  0  0  0
 10 11  2  0  0  0  0
 10 80  1  0  0  0  0
 11 12  1  0  0  0  0
 11 21  1  0  0  0  0
 12 13  1  0  0  0  0
 12 81  1  0  0  0  0
 12 82  1  0  0  0  0
 13 14  1  0  0  0  0
 13 83  1  0  0  0  0
 13 84  1  0  0  0  0
 14 15  1  0  0  0  0
 14 16  1  0  0  0  0
 15 85  1  0  0  0  0
 16 17  1  0  0  0  0
 16 86  1  0  0  0  0
 16 87  1  0  0  0  0
 17 18  1  0  0  0  0
 17 88  1  0  0  0  0
 17 89  1  0  0  0  0
 18 19  1  0  0  0  0
 18 90  1  0  0  0  0
 18 91  1  0  0  0  0
 19 20  1  0  0  0  0
 19 92  1  0  0  0  0
 19 93  1  0  0  0  0
 20 14  1  0  0  0  0
 20 94  1  0  0  0  0
 20 95  1  0  0  0  0
 21 22  2  0  0  0  0
 21 96  1  0  0  0  0
 22 23  1  0  0  0  0
 22 97  1  0  0  0  0
 23 24  1  0  0  0  0
 23  9  1  0  0  0  0
 24 25  2  0  0  0  0
 25  8  1  0  0  0  0
 25 98  1  0  0  0  0
 26 27  1  0  0  0  0
 27 99  1  0  0  0  0
 27100  1  0  0  0  0
 28 27  1  0  0  0  0
 28 29  1  0  0  0  0
 28101  1  6  0  0  0
 30 29  1  0  0  0  0
 30 31  1  0  0  0  0
 30102  1  6  0  0  0
 31 32  1  0  0  0  0
 32 33  2  0  0  0  0
 32  4  1  0  0  0  0
 33 34  1  0  0  0  0
 34 35  1  0  0  0  0
 34 36  2  0  0  0  0
 35103  1  0  0  0  0
 36 37  1  0  0  0  0
 36 61  1  0  0  0  0
 37 38  2  0  0  0  0
 37 39  1  0  0  0  0
 39 40  1  0  0  0  0
 39104  1  0  0  0  0
 39105  1  0  0  0  0
 40 41  1  0  0  0  0
 41 42  1  0  0  0  0
 41106  1  0  0  0  0
 41107  1  0  0  0  0
 42 43  2  0  0  0  0
 43 44  1  0  0  0  0
 43 50  1  0  0  0  0
 44 45  2  0  0  0  0
 44108  1  0  0  0  0
 45 46  1  0  0  0  0
 45109  1  0  0  0  0
 46 47  2  0  0  0  0
 46110  1  0  0  0  0
 47 48  1  0  0  0  0
 47 42  1  0  0  0  0
 48 49  2  0  0  0  0
 48 40  1  0  0  0  0
 50 51  1  0  0  0  0
 50111  1  0  0  0  0
 50112  1  0  0  0  0
 51 52  3  0  0  0  0
 52 53  1  0  0  0  0
 54 53  1  0  0  0  0
 54 55  1  0  0  0  0
 54 57  1  0  0  0  0
 54113  1  6  0  0  0
 55 56  1  0  0  0  0
 55 28  1  0  0  0  0
 55114  1  1  0  0  0
 56115  1  0  0  0  0
 57 58  1  6  0  0  0
 57 59  1  0  0  0  0
 57 30  1  0  0  0  0
 58116  1  0  0  0  0
 59 60  1  0  0  0  0
 59117  1  0  0  0  0
 59118  1  0  0  0  0
 60119  1  0  0  0  0
 61 62  2  0  0  0  0
 62 63  1  0  0  0  0
 63 64  2  0  0  0  0
 63 70  1  0  0  0  0
 64 65  1  0  0  0  0
 64120  1  0  0  0  0
 65 66  1  0  0  0  0
 65121  1  1  0  0  0
 66 67  1  0  0  0  0
 66122  1  0  0  0  0
 66123  1  0  0  0  0
 67 68  1  0  0  0  0
 67124  1  0  0  0  0
 67125  1  0  0  0  0
 68126  1  0  0  0  0
 68127  1  0  0  0  0
 69 68  1  0  0  0  0
 69 61  1  0  0  0  0
 69 65  1  0  0  0  0
 69128  1  6  0  0  0
 70 71  1  0  0  0  0
 70129  1  0  0  0  0
 70130  1  0  0  0  0
 71 72  1  0  0  0  0
 71131  1  0  0  0  0
 71132  1  0  0  0  0
 72 73  2  0  0  0  0
 72  3  1  0  0  0  0
 73 33  1  0  0  0  0
 73 62  1  0  0  0  0
M  CHG  1  23   1
M  END
>  <IDENTIFIER>
CNP0021809.1

>  <Energy>
2561.36

$$$$
