
 OpenBabel09102515103D

111117  0  0  0  0  0  0  0  0999 V2000
    2.6444   -4.4362   -1.6096 C   0  0  0  0  0  0  0  0  0  0  0  0
    2.2167   -3.2517   -1.1350 C   0  0  0  0  0  0  0  0  0  0  0  0
    0.7482   -2.9250   -1.1563 C   0  0  0  0  0  0  0  0  0  0  0  0
    0.3320   -1.8644   -2.1950 C   0  0  0  0  0  0  0  0  0  0  0  0
   -0.6929   -0.8586   -1.6179 C   0  0  0  0  0  0  0  0  0  0  0  0
   -1.9427   -1.4007   -0.9219 C   0  0  0  0  0  0  0  0  0  0  0  0
   -2.0915   -2.6853   -0.9686 N   0  0  0  0  0  0  0  0  0  0  0  0
   -3.0497   -3.5446   -0.3161 C   0  0  0  0  0  0  0  0  0  0  0  0
   -2.8831   -3.5576    1.2165 C   0  0  1  0  0  0  0  0  0  0  0  0
   -1.4561   -3.9658    1.6227 C   0  0  0  0  0  0  0  0  0  0  0  0
   -3.3748   -2.2473    1.8958 C   0  0  1  0  0  0  0  0  0  0  0  0
   -3.2643   -2.3559    3.4314 C   0  0  0  0  0  0  0  0  0  0  0  0
   -2.7172   -0.9049    1.4267 C   0  0  0  0  0  0  0  0  0  0  0  0
   -2.8615   -0.4468   -0.0857 C   0  0  2  0  0  0  0  0  0  0  0  0
   -4.3590   -0.5756   -0.5462 C   0  0  0  0  0  0  0  0  0  0  0  0
   -5.1833    0.6312   -0.0915 C   0  0  0  0  0  0  0  0  0  0  0  0
   -4.7542    1.7900   -0.9658 C   0  0  0  0  0  0  0  0  0  0  0  0
   -5.8981    2.5863   -1.6179 C   0  0  1  0  0  0  0  0  0  0  0  0
   -5.5147    3.7995   -2.1461 O   0  0  0  0  0  0  0  0  0  0  0  0
   -5.8754    3.8584   -3.4400 C   0  0  0  0  0  0  0  0  0  0  0  0
   -5.6633    4.8245   -4.1537 O   0  0  0  0  0  0  0  0  0  0  0  0
   -6.5443    2.6541   -3.8510 C   0  0  0  0  0  0  0  0  0  0  0  0
   -6.5776    1.8762   -2.7818 C   0  0  0  0  0  0  0  0  0  0  0  0
   -7.2446    0.5305   -2.7514 C   0  0  0  0  0  0  0  0  0  0  0  0
   -3.4022    1.9674   -1.1181 C   0  0  0  0  0  0  0  0  0  0  0  0
   -2.7430    2.9346   -2.0840 C   0  0  0  0  0  0  0  0  0  0  0  0
   -2.4402    1.1318   -0.2565 C   0  0  1  0  0  0  0  0  0  0  0  0
   -2.3008    1.9265    1.0413 C   0  0  0  0  0  0  0  0  0  0  0  0
   -1.2743    2.7511    1.4025 C   0  0  0  0  0  0  0  0  0  0  0  0
   -1.4305    3.4948    2.7168 C   0  0  0  0  0  0  0  0  0  0  0  0
   -0.0960    3.1228    0.4792 C   0  0  0  0  0  0  0  0  0  0  0  0
    1.1470    3.7061    1.1750 C   0  0  0  0  0  0  0  0  0  0  0  0
    2.2187    2.7195    1.6744 C   0  0  1  0  0  0  0  0  0  0  0  0
    1.8006    1.4374    2.3433 C   0  0  0  0  0  0  0  0  0  0  0  0
    3.1734    0.7963    2.4842 C   0  0  0  0  0  0  0  0  0  0  0  0
    3.9603    1.3649    1.2597 C   0  0  1  0  0  0  0  0  0  0  0  0
    5.2076    2.2375    1.6528 C   0  0  0  0  0  0  0  0  0  0  0  0
    6.4994    1.4547    1.8885 C   0  0  1  0  0  0  0  0  0  0  0  0
    7.1864    1.9092    3.0272 O   0  0  0  0  0  0  0  0  0  0  0  0
    6.2012   -0.0279    1.9456 C   0  0  0  0  0  0  0  0  0  0  0  0
    5.4587   -0.4833    0.6458 C   0  0  2  0  0  0  0  0  0  0  0  0
    5.1091   -1.8435    0.9054 O   0  0  0  0  0  0  0  0  0  0  0  0
    4.5721   -2.5867   -0.1876 C   0  0  2  0  0  0  0  0  0  0  0  0
    5.4656   -2.5333   -1.4448 C   0  0  0  0  0  0  0  0  0  0  0  0
    5.7848   -1.0860   -1.8051 C   0  0  0  0  0  0  0  0  0  0  0  0
    6.4200   -0.3964   -0.5916 C   0  0  2  0  0  0  0  0  0  0  0  0
    7.6935   -0.9475   -0.3328 O   0  0  0  0  0  0  0  0  0  0  0  0
    3.0960   -2.2212   -0.4305 C   0  0  0  0  0  0  0  0  0  0  0  0
    4.2796    0.3063    0.3491 O   0  0  0  0  0  0  0  0  0  0  0  0
    3.0574    2.2705    0.6326 O   0  0  0  0  0  0  0  0  0  0  0  0
    1.9438   -5.1363   -2.0544 H   0  0  0  0  0  0  0  0  0  0  0  0
    3.6791   -4.7482   -1.5692 H   0  0  0  0  0  0  0  0  0  0  0  0
    0.5515   -2.5389   -0.1419 H   0  0  0  0  0  0  0  0  0  0  0  0
    0.1150   -3.8308   -1.2772 H   0  0  0  0  0  0  0  0  0  0  0  0
   -0.0290   -2.3715   -3.1153 H   0  0  0  0  0  0  0  0  0  0  0  0
    1.2100   -1.2465   -2.4852 H   0  0  0  0  0  0  0  0  0  0  0  0
   -0.9779   -0.1397   -2.4156 H   0  0  0  0  0  0  0  0  0  0  0  0
   -0.1059   -0.3344   -0.8314 H   0  0  0  0  0  0  0  0  0  0  0  0
   -2.8404   -4.5751   -0.6758 H   0  0  0  0  0  0  0  0  0  0  0  0
   -4.0823   -3.3434   -0.6446 H   0  0  0  0  0  0  0  0  0  0  0  0
   -3.5487   -4.3732    1.5801 H   0  0  0  0  0  0  0  0  0  0  0  0
   -0.7423   -3.1575    1.4082 H   0  0  0  0  0  0  0  0  0  0  0  0
   -1.1509   -4.8928    1.0914 H   0  0  0  0  0  0  0  0  0  0  0  0
   -1.3983   -4.1864    2.7074 H   0  0  0  0  0  0  0  0  0  0  0  0
   -4.4644   -2.1862    1.7114 H   0  0  0  0  0  0  0  0  0  0  0  0
   -2.2050   -2.3693    3.7623 H   0  0  0  0  0  0  0  0  0  0  0  0
   -3.7728   -3.2751    3.7935 H   0  0  0  0  0  0  0  0  0  0  0  0
   -3.7548   -1.4860    3.9179 H   0  0  0  0  0  0  0  0  0  0  0  0
   -1.6411   -0.8843    1.7093 H   0  0  0  0  0  0  0  0  0  0  0  0
   -3.2365   -0.1726    2.0635 H   0  0  0  0  0  0  0  0  0  0  0  0
   -4.8598   -1.4802   -0.1959 H   0  0  0  0  0  0  0  0  0  0  0  0
   -4.4049   -0.6277   -1.6571 H   0  0  0  0  0  0  0  0  0  0  0  0
   -5.0221    0.8250    0.9871 H   0  0  0  0  0  0  0  0  0  0  0  0
   -6.2683    0.4388   -0.2138 H   0  0  0  0  0  0  0  0  0  0  0  0
   -6.6434    2.7966   -0.8222 H   0  0  0  0  0  0  0  0  0  0  0  0
   -6.9582    2.4329   -4.8272 H   0  0  0  0  0  0  0  0  0  0  0  0
   -7.6958    0.2885   -3.7383 H   0  0  0  0  0  0  0  0  0  0  0  0
   -8.0479    0.5328   -1.9866 H   0  0  0  0  0  0  0  0  0  0  0  0
   -6.5096   -0.2611   -2.5117 H   0  0  0  0  0  0  0  0  0  0  0  0
   -3.3975    3.4607   -2.7822 H   0  0  0  0  0  0  0  0  0  0  0  0
   -2.0399    2.3682   -2.7300 H   0  0  0  0  0  0  0  0  0  0  0  0
   -2.1755    3.6969   -1.5222 H   0  0  0  0  0  0  0  0  0  0  0  0
   -1.4677    1.2428   -0.7134 H   0  0  0  0  0  0  0  0  0  0  0  0
   -3.1434    1.8813    1.7187 H   0  0  0  0  0  0  0  0  0  0  0  0
   -2.3540    3.2203    3.2699 H   0  0  0  0  0  0  0  0  0  0  0  0
   -1.4808    4.5868    2.5164 H   0  0  0  0  0  0  0  0  0  0  0  0
   -0.5758    3.2778    3.3880 H   0  0  0  0  0  0  0  0  0  0  0  0
   -0.5020    3.9790   -0.0982 H   0  0  0  0  0  0  0  0  0  0  0  0
    0.2163    2.3662   -0.2637 H   0  0  0  0  0  0  0  0  0  0  0  0
    0.8354    4.3832    1.9940 H   0  0  0  0  0  0  0  0  0  0  0  0
    1.6798    4.3714    0.4587 H   0  0  0  0  0  0  0  0  0  0  0  0
    2.8260    3.3453    2.3705 H   0  0  0  0  0  0  0  0  0  0  0  0
    1.1985    0.8559    1.6071 H   0  0  0  0  0  0  0  0  0  0  0  0
    1.2374    1.5305    3.2951 H   0  0  0  0  0  0  0  0  0  0  0  0
    3.1151   -0.3122    2.5516 H   0  0  0  0  0  0  0  0  0  0  0  0
    3.6251    1.1882    3.4212 H   0  0  0  0  0  0  0  0  0  0  0  0
    4.9612    2.8541    2.5435 H   0  0  0  0  0  0  0  0  0  0  0  0
    5.4299    2.9694    0.8451 H   0  0  0  0  0  0  0  0  0  0  0  0
    7.1736    1.6190    1.0234 H   0  0  0  0  0  0  0  0  0  0  0  0
    6.6294    1.6930    3.8200 H   0  0  0  0  0  0  0  0  0  0  0  0
    5.5683   -0.2356    2.8338 H   0  0  0  0  0  0  0  0  0  0  0  0
    7.1394   -0.6010    2.1004 H   0  0  0  0  0  0  0  0  0  0  0  0
    4.5667   -3.6382    0.1697 H   0  0  0  0  0  0  0  0  0  0  0  0
    4.9974   -3.0502   -2.3066 H   0  0  0  0  0  0  0  0  0  0  0  0
    6.4149   -3.0671   -1.2285 H   0  0  0  0  0  0  0  0  0  0  0  0
    4.8535   -0.5562   -2.0955 H   0  0  0  0  0  0  0  0  0  0  0  0
    6.4774   -1.0514   -2.6737 H   0  0  0  0  0  0  0  0  0  0  0  0
    6.5799    0.6677   -0.8623 H   0  0  0  0  0  0  0  0  0  0  0  0
    7.5843   -1.7981    0.1645 H   0  0  0  0  0  0  0  0  0  0  0  0
    3.0013   -1.2460   -0.9428 H   0  0  0  0  0  0  0  0  0  0  0  0
    2.6538   -2.1107    0.5844 H   0  0  0  0  0  0  0  0  0  0  0  0
  1  2  2  0  0  0  0
  1 51  1  0  0  0  0
  1 52  1  0  0  0  0
  2  3  1  0  0  0  0
  3  4  1  0  0  0  0
  3 53  1  0  0  0  0
  3 54  1  0  0  0  0
  4  5  1  0  0  0  0
  4 55  1  0  0  0  0
  4 56  1  0  0  0  0
  5  6  1  0  0  0  0
  5 57  1  0  0  0  0
  5 58  1  0  0  0  0
  6  7  2  0  0  0  0
  7  8  1  0  0  0  0
  8  9  1  0  0  0  0
  8 59  1  0  0  0  0
  8 60  1  0  0  0  0
  9 10  1  0  0  0  0
  9 11  1  0  0  0  0
  9 61  1  1  0  0  0
 10 62  1  0  0  0  0
 10 63  1  0  0  0  0
 10 64  1  0  0  0  0
 11 12  1  0  0  0  0
 11 13  1  0  0  0  0
 11 65  1  6  0  0  0
 12 66  1  0  0  0  0
 12 67  1  0  0  0  0
 12 68  1  0  0  0  0
 13 69  1  0  0  0  0
 13 70  1  0  0  0  0
 14 13  1  0  0  0  0
 14 15  1  0  0  0  0
 14  6  1  6  0  0  0
 15 16  1  0  0  0  0
 15 71  1  0  0  0  0
 15 72  1  0  0  0  0
 16 17  1  0  0  0  0
 16 73  1  0  0  0  0
 16 74  1  0  0  0  0
 17 25  2  0  0  0  0
 18 17  1  0  0  0  0
 18 19  1  0  0  0  0
 18 75  1  1  0  0  0
 19 20  1  0  0  0  0
 20 21  2  0  0  0  0
 20 22  1  0  0  0  0
 22 23  2  0  0  0  0
 22 76  1  0  0  0  0
 23 24  1  0  0  0  0
 23 18  1  0  0  0  0
 24 77  1  0  0  0  0
 24 78  1  0  0  0  0
 24 79  1  0  0  0  0
 25 26  1  0  0  0  0
 26 80  1  0  0  0  0
 26 81  1  0  0  0  0
 26 82  1  0  0  0  0
 27 25  1  0  0  0  0
 27 28  1  0  0  0  0
 27 14  1  0  0  0  0
 27 83  1  6  0  0  0
 28 29  2  0  0  0  0
 28 84  1  0  0  0  0
 29 30  1  0  0  0  0
 29 31  1  0  0  0  0
 30 85  1  0  0  0  0
 30 86  1  0  0  0  0
 30 87  1  0  0  0  0
 31 32  1  0  0  0  0
 31 88  1  0  0  0  0
 31 89  1  0  0  0  0
 32 90  1  0  0  0  0
 32 91  1  0  0  0  0
 33 32  1  0  0  0  0
 33 34  1  0  0  0  0
 33 92  1  1  0  0  0
 34 35  1  0  0  0  0
 34 93  1  0  0  0  0
 34 94  1  0  0  0  0
 35 95  1  0  0  0  0
 35 96  1  0  0  0  0
 36 35  1  0  0  0  0
 36 37  1  0  0  0  0
 36 50  1  6  0  0  0
 37 38  1  0  0  0  0
 37 97  1  0  0  0  0
 37 98  1  0  0  0  0
 38 39  1  0  0  0  0
 38 40  1  0  0  0  0
 38 99  1  6  0  0  0
 39100  1  0  0  0  0
 40101  1  0  0  0  0
 40102  1  0  0  0  0
 41 40  1  0  0  0  0
 41 42  1  1  0  0  0
 41 49  1  0  0  0  0
 42 43  1  0  0  0  0
 43 44  1  0  0  0  0
 43 48  1  0  0  0  0
 43103  1  1  0  0  0
 44 45  1  0  0  0  0
 44104  1  0  0  0  0
 44105  1  0  0  0  0
 45 46  1  0  0  0  0
 45106  1  0  0  0  0
 45107  1  0  0  0  0
 46 47  1  0  0  0  0
 46 41  1  0  0  0  0
 46108  1  6  0  0  0
 47109  1  0  0  0  0
 48  2  1  0  0  0  0
 48110  1  0  0  0  0
 48111  1  0  0  0  0
 49 36  1  0  0  0  0
 50 33  1  0  0  0  0
M  END
>  <IDENTIFIER>
CNP0249281.1

>  <Energy>
1562.27

$$$$
