
 OpenBabel09062512423D

 82 86  0  0  0  0  0  0  0  0999 V2000
   -4.1938    2.9959   -0.6950 C   0  0  0  0  0  0  0  0  0  0  0  0
   -4.6294    1.7993   -1.1325 C   0  0  0  0  0  0  0  0  0  0  0  0
   -5.7115    1.7604   -2.1831 C   0  0  0  0  0  0  0  0  0  0  0  0
   -4.0998    0.4610   -0.6131 C   0  0  2  0  0  0  0  0  0  0  0  0
   -5.2108   -0.3414    0.1377 C   0  0  0  0  0  0  0  0  0  0  0  0
   -4.5459   -0.9295    1.4142 C   0  0  0  0  0  0  0  0  0  0  0  0
   -3.0584   -0.9839    1.0752 C   0  0  2  0  0  0  0  0  0  0  0  0
   -2.8017   -2.2024    0.1288 C   0  0  0  0  0  0  0  0  0  0  0  0
   -1.9827   -3.0633    0.4290 O   0  0  0  0  0  0  0  0  0  0  0  0
   -3.4707   -2.3385   -1.0458 O   0  0  0  0  0  0  0  0  0  0  0  0
   -3.2052   -3.3187   -1.9786 C   0  0  0  0  0  0  0  0  0  0  0  0
   -2.0549   -1.0843    2.3058 C   0  0  0  0  0  0  0  0  0  0  0  0
   -1.3591    0.2510    2.6378 C   0  0  0  0  0  0  0  0  0  0  0  0
   -0.6710    0.9682    1.3835 C   0  0  2  0  0  0  0  0  0  0  0  0
   -0.8694    2.5029    1.7252 C   0  0  0  0  0  0  0  0  0  0  0  0
   -1.4669    0.6703    0.0660 C   0  0  2  0  0  0  0  0  0  0  0  0
   -1.0400    1.6373   -1.0745 C   0  0  0  0  0  0  0  0  0  0  0  0
    0.5202    1.8070   -1.1507 C   0  0  0  0  0  0  0  0  0  0  0  0
    1.2412    0.6078   -0.4772 C   0  0  1  0  0  0  0  0  0  0  0  0
    2.7257    0.2750   -0.9418 C   0  0  1  0  0  0  0  0  0  0  0  0
    2.6960    0.0509   -2.4941 C   0  0  0  0  0  0  0  0  0  0  0  0
    3.7339    1.3972   -0.6246 C   0  0  0  0  0  0  0  0  0  0  0  0
    5.1118    1.1394   -1.2254 C   0  0  0  0  0  0  0  0  0  0  0  0
    5.6007   -0.2733   -1.0264 C   0  0  0  0  0  0  0  0  0  0  0  0
    6.7555   -0.5011   -1.3607 O   0  0  0  0  0  0  0  0  0  0  0  0
    4.7481   -1.4413   -0.4932 C   0  0  0  0  0  0  0  0  0  0  0  0
    4.8064   -2.5998   -1.5222 C   0  0  0  0  0  0  0  0  0  0  0  0
    5.4811   -1.9523    0.7800 C   0  0  0  0  0  0  0  0  0  0  0  0
    3.1981   -1.0689   -0.2420 C   0  0  1  0  0  0  0  0  0  0  0  0
    2.7734   -1.1818    1.2574 C   0  0  0  0  0  0  0  0  0  0  0  0
    1.2809   -0.8607    1.5195 C   0  0  0  0  0  0  0  0  0  0  0  0
    0.9075    0.5891    1.1065 C   0  0  2  0  0  0  0  0  0  0  0  0
    1.7529    1.5603    2.0019 C   0  0  0  0  0  0  0  0  0  0  0  0
   -2.9510    0.4384    0.4042 C   0  0  1  0  0  0  0  0  0  0  0  0
   -4.6073    3.9189   -1.0897 H   0  0  0  0  0  0  0  0  0  0  0  0
   -3.4349    3.1029    0.0636 H   0  0  0  0  0  0  0  0  0  0  0  0
   -6.0359    2.7776   -2.4930 H   0  0  0  0  0  0  0  0  0  0  0  0
   -6.6017    1.2256   -1.7912 H   0  0  0  0  0  0  0  0  0  0  0  0
   -5.3362    1.2278   -3.0807 H   0  0  0  0  0  0  0  0  0  0  0  0
   -3.7438   -0.1067   -1.4925 H   0  0  0  0  0  0  0  0  0  0  0  0
   -5.5797   -1.1347   -0.5471 H   0  0  0  0  0  0  0  0  0  0  0  0
   -6.0859    0.2660    0.4577 H   0  0  0  0  0  0  0  0  0  0  0  0
   -5.0065   -1.8697    1.7846 H   0  0  0  0  0  0  0  0  0  0  0  0
   -4.6653   -0.1738    2.2246 H   0  0  0  0  0  0  0  0  0  0  0  0
   -3.8801   -3.1866   -2.8487 H   0  0  0  0  0  0  0  0  0  0  0  0
   -3.3734   -4.3256   -1.5381 H   0  0  0  0  0  0  0  0  0  0  0  0
   -2.1545   -3.2340   -2.3292 H   0  0  0  0  0  0  0  0  0  0  0  0
   -1.2044   -1.7465    2.0906 H   0  0  0  0  0  0  0  0  0  0  0  0
   -2.5602   -1.5340    3.1867 H   0  0  0  0  0  0  0  0  0  0  0  0
   -0.6608    0.1781    3.4974 H   0  0  0  0  0  0  0  0  0  0  0  0
   -2.2036    0.8645    3.0231 H   0  0  0  0  0  0  0  0  0  0  0  0
   -1.9354    2.7816    1.8261 H   0  0  0  0  0  0  0  0  0  0  0  0
   -0.4509    3.2003    0.9823 H   0  0  0  0  0  0  0  0  0  0  0  0
   -0.4232    2.7673    2.7059 H   0  0  0  0  0  0  0  0  0  0  0  0
   -1.1721   -0.3235   -0.3109 H   0  0  0  0  0  0  0  0  0  0  0  0
   -1.4909    2.6460   -1.0206 H   0  0  0  0  0  0  0  0  0  0  0  0
   -1.4102    1.1690   -2.0134 H   0  0  0  0  0  0  0  0  0  0  0  0
    0.8733    2.7202   -0.6353 H   0  0  0  0  0  0  0  0  0  0  0  0
    0.7567    1.9649   -2.2182 H   0  0  0  0  0  0  0  0  0  0  0  0
    0.7381   -0.2696   -0.9279 H   0  0  0  0  0  0  0  0  0  0  0  0
    2.4456    0.9756   -3.0464 H   0  0  0  0  0  0  0  0  0  0  0  0
    1.9623   -0.7369   -2.7711 H   0  0  0  0  0  0  0  0  0  0  0  0
    3.6648   -0.2774   -2.9071 H   0  0  0  0  0  0  0  0  0  0  0  0
    3.9074    1.4676    0.4473 H   0  0  0  0  0  0  0  0  0  0  0  0
    3.3738    2.3850   -0.9850 H   0  0  0  0  0  0  0  0  0  0  0  0
    5.8215    1.8607   -0.7644 H   0  0  0  0  0  0  0  0  0  0  0  0
    5.1099    1.3452   -2.3174 H   0  0  0  0  0  0  0  0  0  0  0  0
    5.8556   -2.9120   -1.7182 H   0  0  0  0  0  0  0  0  0  0  0  0
    4.3496   -2.3261   -2.4913 H   0  0  0  0  0  0  0  0  0  0  0  0
    4.2658   -3.4887   -1.1294 H   0  0  0  0  0  0  0  0  0  0  0  0
    6.5308   -2.2374    0.5497 H   0  0  0  0  0  0  0  0  0  0  0  0
    4.9976   -2.8541    1.2069 H   0  0  0  0  0  0  0  0  0  0  0  0
    5.5356   -1.1567    1.5535 H   0  0  0  0  0  0  0  0  0  0  0  0
    2.5655   -1.8738   -0.6846 H   0  0  0  0  0  0  0  0  0  0  0  0
    3.4220   -0.5631    1.8939 H   0  0  0  0  0  0  0  0  0  0  0  0
    2.9227   -2.2283    1.5967 H   0  0  0  0  0  0  0  0  0  0  0  0
    1.0848   -1.0230    2.5999 H   0  0  0  0  0  0  0  0  0  0  0  0
    0.6704   -1.5899    0.9452 H   0  0  0  0  0  0  0  0  0  0  0  0
    1.3998    1.4925    3.0529 H   0  0  0  0  0  0  0  0  0  0  0  0
    1.6833    2.6091    1.6518 H   0  0  0  0  0  0  0  0  0  0  0  0
    2.8170    1.3723    2.1156 H   0  0  0  0  0  0  0  0  0  0  0  0
   -3.2611    1.2115    1.1344 H   0  0  0  0  0  0  0  0  0  0  0  0
  1  2  2  0  0  0  0
  1 35  1  0  0  0  0
  1 36  1  0  0  0  0
  2  3  1  0  0  0  0
  3 37  1  0  0  0  0
  3 38  1  0  0  0  0
  3 39  1  0  0  0  0
  4  2  1  0  0  0  0
  4  5  1  0  0  0  0
  4 40  1  6  0  0  0
  5  6  1  0  0  0  0
  5 41  1  0  0  0  0
  5 42  1  0  0  0  0
  6  7  1  0  0  0  0
  6 43  1  0  0  0  0
  6 44  1  0  0  0  0
  7  8  1  6  0  0  0
  7 12  1  0  0  0  0
  8  9  2  0  0  0  0
  8 10  1  0  0  0  0
 10 11  1  0  0  0  0
 11 45  1  0  0  0  0
 11 46  1  0  0  0  0
 11 47  1  0  0  0  0
 12 13  1  0  0  0  0
 12 48  1  0  0  0  0
 12 49  1  0  0  0  0
 13 14  1  0  0  0  0
 13 50  1  0  0  0  0
 13 51  1  0  0  0  0
 14 15  1  1  0  0  0
 14 16  1  0  0  0  0
 15 52  1  0  0  0  0
 15 53  1  0  0  0  0
 15 54  1  0  0  0  0
 16 17  1  0  0  0  0
 16 34  1  0  0  0  0
 16 55  1  6  0  0  0
 17 18  1  0  0  0  0
 17 56  1  0  0  0  0
 17 57  1  0  0  0  0
 18 58  1  0  0  0  0
 18 59  1  0  0  0  0
 19 18  1  0  0  0  0
 19 20  1  0  0  0  0
 19 60  1  6  0  0  0
 20 21  1  6  0  0  0
 20 22  1  0  0  0  0
 21 61  1  0  0  0  0
 21 62  1  0  0  0  0
 21 63  1  0  0  0  0
 22 23  1  0  0  0  0
 22 64  1  0  0  0  0
 22 65  1  0  0  0  0
 23 24  1  0  0  0  0
 23 66  1  0  0  0  0
 23 67  1  0  0  0  0
 24 25  2  0  0  0  0
 24 26  1  0  0  0  0
 26 27  1  0  0  0  0
 26 28  1  0  0  0  0
 26 29  1  0  0  0  0
 27 68  1  0  0  0  0
 27 69  1  0  0  0  0
 27 70  1  0  0  0  0
 28 71  1  0  0  0  0
 28 72  1  0  0  0  0
 28 73  1  0  0  0  0
 29 30  1  0  0  0  0
 29 20  1  0  0  0  0
 29 74  1  6  0  0  0
 30 31  1  0  0  0  0
 30 75  1  0  0  0  0
 30 76  1  0  0  0  0
 31 32  1  0  0  0  0
 31 77  1  0  0  0  0
 31 78  1  0  0  0  0
 32 33  1  1  0  0  0
 32 14  1  0  0  0  0
 32 19  1  0  0  0  0
 33 79  1  0  0  0  0
 33 80  1  0  0  0  0
 33 81  1  0  0  0  0
 34  4  1  0  0  0  0
 34  7  1  0  0  0  0
 34 82  1  1  0  0  0
M  END
>  <IDENTIFIER>
CNP0237295.9

>  <Energy>
1307.39

$$$$
