
 OpenBabel09122515513D

 59 62  0  0  0  0  0  0  0  0999 V2000
    9.3362   -0.1673   -1.5315 C   0  0  0  0  0  0  0  0  0  0  0  0
    7.9225    0.3065   -1.3637 C   0  0  0  0  0  0  0  0  0  0  0  0
    6.9050   -0.1403   -2.2233 C   0  0  0  0  0  0  0  0  0  0  0  0
    5.5899    0.3050   -2.0499 C   0  0  0  0  0  0  0  0  0  0  0  0
    5.2808    1.2002   -1.0192 C   0  0  0  0  0  0  0  0  0  0  0  0
    3.5923    1.7524   -0.7683 S   0  0  0  0  0  0  0  0  0  0  0  0
    3.5576    3.2412   -0.3909 O   0  0  0  0  0  0  0  0  0  0  0  0
    2.7673    1.7485   -2.0677 O   0  0  0  0  0  0  0  0  0  0  0  0
    2.6975    0.9495    0.4820 O   0  0  0  0  0  0  0  0  0  0  0  0
    1.4235    0.5535    0.0366 C   0  0  0  0  0  0  0  0  0  0  0  0
    0.8635   -0.4048    1.0774 C   0  0  0  0  0  0  0  0  0  0  0  0
   -0.4336   -0.7838    0.7809 O   0  0  0  0  0  0  0  0  0  0  0  0
   -1.1756   -1.6294    1.5503 C   0  0  0  0  0  0  0  0  0  0  0  0
   -0.5953   -2.3510    2.6230 C   0  0  0  0  0  0  0  0  0  0  0  0
   -1.3681   -3.1960    3.4168 C   0  0  0  0  0  0  0  0  0  0  0  0
   -2.7288   -3.3324    3.1685 C   0  0  0  0  0  0  0  0  0  0  0  0
   -3.3209   -2.6268    2.1235 C   0  0  0  0  0  0  0  0  0  0  0  0
   -2.5589   -1.7796    1.3001 C   0  0  0  0  0  0  0  0  0  0  0  0
   -3.4139   -0.8436   -0.0525 P   0  0  0  0  0  0  0  0  0  0  0  0
   -3.2327   -1.7370   -1.3095 O   0  0  0  0  0  0  0  0  0  0  0  0
   -5.2490   -0.7589    0.1403 C   0  0  0  0  0  0  0  0  0  0  0  0
   -5.8831    0.4774    0.3325 C   0  0  0  0  0  0  0  0  0  0  0  0
   -7.2706    0.5380    0.4996 C   0  0  0  0  0  0  0  0  0  0  0  0
   -8.0326   -0.6334    0.4664 C   0  0  0  0  0  0  0  0  0  0  0  0
   -7.4078   -1.8669    0.2630 C   0  0  0  0  0  0  0  0  0  0  0  0
   -6.0208   -1.9301    0.1013 C   0  0  0  0  0  0  0  0  0  0  0  0
   -2.6335    0.7605   -0.5297 C   0  0  0  0  0  0  0  0  0  0  0  0
   -2.1764    0.9692   -1.8415 C   0  0  0  0  0  0  0  0  0  0  0  0
   -1.5994    2.1904   -2.2000 C   0  0  0  0  0  0  0  0  0  0  0  0
   -1.4667    3.2063   -1.2506 C   0  0  0  0  0  0  0  0  0  0  0  0
   -1.9147    3.0024    0.0581 C   0  0  0  0  0  0  0  0  0  0  0  0
   -2.5001    1.7832    0.4179 C   0  0  0  0  0  0  0  0  0  0  0  0
    6.2938    1.6475   -0.1613 C   0  0  0  0  0  0  0  0  0  0  0  0
    7.6080    1.2041   -0.3327 C   0  0  0  0  0  0  0  0  0  0  0  0
    9.4314   -0.8729   -2.3839 H   0  0  0  0  0  0  0  0  0  0  0  0
    9.6672   -0.6870   -0.6075 H   0  0  0  0  0  0  0  0  0  0  0  0
   10.0022    0.7016   -1.7172 H   0  0  0  0  0  0  0  0  0  0  0  0
    7.1267   -0.8345   -3.0240 H   0  0  0  0  0  0  0  0  0  0  0  0
    4.8131   -0.0516   -2.7141 H   0  0  0  0  0  0  0  0  0  0  0  0
    1.4725    0.0038   -0.9294 H   0  0  0  0  0  0  0  0  0  0  0  0
    0.7629    1.4438   -0.0419 H   0  0  0  0  0  0  0  0  0  0  0  0
    0.8712    0.1033    2.0678 H   0  0  0  0  0  0  0  0  0  0  0  0
    1.5262   -1.2976    1.1139 H   0  0  0  0  0  0  0  0  0  0  0  0
    0.4561   -2.2692    2.8573 H   0  0  0  0  0  0  0  0  0  0  0  0
   -0.9106   -3.7414    4.2319 H   0  0  0  0  0  0  0  0  0  0  0  0
   -3.3298   -3.9830    3.7910 H   0  0  0  0  0  0  0  0  0  0  0  0
   -4.3793   -2.7496    1.9689 H   0  0  0  0  0  0  0  0  0  0  0  0
   -5.3079    1.3921    0.3668 H   0  0  0  0  0  0  0  0  0  0  0  0
   -7.7553    1.4925    0.6589 H   0  0  0  0  0  0  0  0  0  0  0  0
   -9.1058   -0.5862    0.5964 H   0  0  0  0  0  0  0  0  0  0  0  0
   -7.9975   -2.7738    0.2328 H   0  0  0  0  0  0  0  0  0  0  0  0
   -5.5496   -2.8920   -0.0574 H   0  0  0  0  0  0  0  0  0  0  0  0
   -2.2739    0.1972   -2.5932 H   0  0  0  0  0  0  0  0  0  0  0  0
   -1.2563    2.3490   -3.2147 H   0  0  0  0  0  0  0  0  0  0  0  0
   -1.0181    4.1507   -1.5298 H   0  0  0  0  0  0  0  0  0  0  0  0
   -1.8091    3.7895    0.7929 H   0  0  0  0  0  0  0  0  0  0  0  0
   -2.8451    1.6340    1.4331 H   0  0  0  0  0  0  0  0  0  0  0  0
    6.0634    2.3348    0.6429 H   0  0  0  0  0  0  0  0  0  0  0  0
    8.3810    1.5560    0.3401 H   0  0  0  0  0  0  0  0  0  0  0  0
  1  2  1  0  0  0  0
  1 35  1  0  0  0  0
  1 36  1  0  0  0  0
  1 37  1  0  0  0  0
  2  3  2  0  0  0  0
  3  4  1  0  0  0  0
  3 38  1  0  0  0  0
  4  5  2  0  0  0  0
  4 39  1  0  0  0  0
  5  6  1  0  0  0  0
  5 33  1  0  0  0  0
  6  7  2  0  0  0  0
  6  8  2  0  0  0  0
  6  9  1  0  0  0  0
  9 10  1  0  0  0  0
 10 11  1  0  0  0  0
 10 40  1  0  0  0  0
 10 41  1  0  0  0  0
 11 12  1  0  0  0  0
 11 42  1  0  0  0  0
 11 43  1  0  0  0  0
 12 13  1  0  0  0  0
 13 14  2  0  0  0  0
 14 15  1  0  0  0  0
 14 44  1  0  0  0  0
 15 16  2  0  0  0  0
 15 45  1  0  0  0  0
 16 17  1  0  0  0  0
 16 46  1  0  0  0  0
 17 18  2  0  0  0  0
 17 47  1  0  0  0  0
 18 19  1  0  0  0  0
 18 13  1  0  0  0  0
 19 20  2  0  0  0  0
 19 21  1  0  0  0  0
 19 27  1  0  0  0  0
 21 22  2  0  0  0  0
 22 23  1  0  0  0  0
 22 48  1  0  0  0  0
 23 24  2  0  0  0  0
 23 49  1  0  0  0  0
 24 25  1  0  0  0  0
 24 50  1  0  0  0  0
 25 26  2  0  0  0  0
 25 51  1  0  0  0  0
 26 21  1  0  0  0  0
 26 52  1  0  0  0  0
 27 28  2  0  0  0  0
 28 29  1  0  0  0  0
 28 53  1  0  0  0  0
 29 30  2  0  0  0  0
 29 54  1  0  0  0  0
 30 31  1  0  0  0  0
 30 55  1  0  0  0  0
 31 32  2  0  0  0  0
 31 56  1  0  0  0  0
 32 27  1  0  0  0  0
 32 57  1  0  0  0  0
 33 34  2  0  0  0  0
 33 58  1  0  0  0  0
 34  2  1  0  0  0  0
 34 59  1  0  0  0  0
M  END
>  <IDENTIFIER>
CNP0027989.0

>  <Energy>
866.091

$$$$
