
 OpenBabel09072507143D

 48 50  0  0  0  0  0  0  0  0999 V2000
   -0.3491    0.7700   -2.0542 C   0  0  0  0  0  0  0  0  0  0  0  0
   -0.2552   -0.4346   -1.4663 C   0  0  0  0  0  0  0  0  0  0  0  0
   -1.3917   -1.2261   -0.8735 C   0  0  2  0  0  0  0  0  0  0  0  0
   -2.6813   -0.4540   -0.5075 C   0  0  1  0  0  0  0  0  0  0  0  0
   -3.7022   -1.2923   -0.0929 O   0  0  0  0  0  0  0  0  0  0  0  0
   -4.5182   -0.6481    0.7559 C   0  0  0  0  0  0  0  0  0  0  0  0
   -5.5753   -1.1135    1.1530 O   0  0  0  0  0  0  0  0  0  0  0  0
   -3.9534    0.6214    1.1641 C   0  0  0  0  0  0  0  0  0  0  0  0
   -4.5021    1.5100    1.9992 C   0  0  0  0  0  0  0  0  0  0  0  0
   -2.6005    0.7077    0.5297 C   0  0  1  0  0  0  0  0  0  0  0  0
   -1.4986    0.5764    1.6048 C   0  0  0  0  0  0  0  0  0  0  0  0
   -1.5430   -0.7427    2.4093 C   0  0  0  0  0  0  0  0  0  0  0  0
   -1.2953   -2.0297    1.6299 C   0  0  0  0  0  0  0  0  0  0  0  0
   -1.6013   -3.1904    2.2333 C   0  0  0  0  0  0  0  0  0  0  0  0
   -0.6867   -2.0649    0.2322 C   0  0  2  0  0  0  0  0  0  0  0  0
    0.7876   -1.6030    0.2404 C   0  0  0  0  0  0  0  0  0  0  0  0
    1.0294   -1.1488   -1.1859 C   0  0  2  0  0  0  0  0  0  0  0  0
    2.1256   -0.3099   -1.2575 O   0  0  0  0  0  0  0  0  0  0  0  0
    3.2045   -0.4443   -2.0602 C   0  0  0  0  0  0  0  0  0  0  0  0
    3.2897   -1.3983   -2.8202 O   0  0  0  0  0  0  0  0  0  0  0  0
    4.2942    0.5680   -2.0661 C   0  0  0  0  0  0  0  0  0  0  0  0
    4.4097    1.6904   -1.3031 C   0  0  0  0  0  0  0  0  0  0  0  0
    3.4348    2.1587   -0.2424 C   0  0  0  0  0  0  0  0  0  0  0  0
    5.6114    2.5822   -1.4992 C   0  0  0  0  0  0  0  0  0  0  0  0
   -1.3042    1.2606   -2.1942 H   0  0  0  0  0  0  0  0  0  0  0  0
    0.5368    1.2844   -2.4119 H   0  0  0  0  0  0  0  0  0  0  0  0
   -1.6953   -1.9458   -1.6686 H   0  0  0  0  0  0  0  0  0  0  0  0
   -3.0689   -0.0047   -1.4508 H   0  0  0  0  0  0  0  0  0  0  0  0
   -5.4831    1.3339    2.4282 H   0  0  0  0  0  0  0  0  0  0  0  0
   -3.9711    2.4207    2.2561 H   0  0  0  0  0  0  0  0  0  0  0  0
   -2.4563    1.6709   -0.0081 H   0  0  0  0  0  0  0  0  0  0  0  0
   -1.6185    1.4185    2.3207 H   0  0  0  0  0  0  0  0  0  0  0  0
   -0.5198    0.7412    1.1311 H   0  0  0  0  0  0  0  0  0  0  0  0
   -2.5473   -0.8004    2.8811 H   0  0  0  0  0  0  0  0  0  0  0  0
   -0.8039   -0.6990    3.2380 H   0  0  0  0  0  0  0  0  0  0  0  0
   -2.0231   -3.2031    3.2343 H   0  0  0  0  0  0  0  0  0  0  0  0
   -1.4387   -4.1448    1.7424 H   0  0  0  0  0  0  0  0  0  0  0  0
   -0.6528   -3.1111   -0.1551 H   0  0  0  0  0  0  0  0  0  0  0  0
    1.5012   -2.3696    0.6122 H   0  0  0  0  0  0  0  0  0  0  0  0
    0.9189   -0.7219    0.8927 H   0  0  0  0  0  0  0  0  0  0  0  0
    1.0998   -2.0396   -1.8519 H   0  0  0  0  0  0  0  0  0  0  0  0
    5.0859    0.3658   -2.7832 H   0  0  0  0  0  0  0  0  0  0  0  0
    2.5558    1.5268   -0.0685 H   0  0  0  0  0  0  0  0  0  0  0  0
    3.0585    3.1671   -0.5140 H   0  0  0  0  0  0  0  0  0  0  0  0
    3.9675    2.2326    0.7290 H   0  0  0  0  0  0  0  0  0  0  0  0
    6.3004    2.2080   -2.2859 H   0  0  0  0  0  0  0  0  0  0  0  0
    6.1796    2.6540   -0.5479 H   0  0  0  0  0  0  0  0  0  0  0  0
    5.2733    3.5984   -1.7931 H   0  0  0  0  0  0  0  0  0  0  0  0
  1  2  2  0  0  0  0
  1 25  1  0  0  0  0
  1 26  1  0  0  0  0
  3  2  1  0  0  0  0
  3  4  1  0  0  0  0
  3 27  1  6  0  0  0
  4  5  1  0  0  0  0
  4 28  1  6  0  0  0
  5  6  1  0  0  0  0
  6  7  2  0  0  0  0
  6  8  1  0  0  0  0
  8  9  2  0  0  0  0
  8 10  1  0  0  0  0
  9 29  1  0  0  0  0
  9 30  1  0  0  0  0
 10 11  1  0  0  0  0
 10  4  1  0  0  0  0
 10 31  1  6  0  0  0
 11 12  1  0  0  0  0
 11 32  1  0  0  0  0
 11 33  1  0  0  0  0
 12 13  1  0  0  0  0
 12 34  1  0  0  0  0
 12 35  1  0  0  0  0
 13 14  2  0  0  0  0
 13 15  1  0  0  0  0
 14 36  1  0  0  0  0
 14 37  1  0  0  0  0
 15 16  1  0  0  0  0
 15  3  1  0  0  0  0
 15 38  1  6  0  0  0
 16 17  1  0  0  0  0
 16 39  1  0  0  0  0
 16 40  1  0  0  0  0
 17 18  1  0  0  0  0
 17  2  1  0  0  0  0
 17 41  1  6  0  0  0
 18 19  1  0  0  0  0
 19 20  2  0  0  0  0
 19 21  1  0  0  0  0
 21 22  2  0  0  0  0
 21 42  1  0  0  0  0
 22 23  1  0  0  0  0
 22 24  1  0  0  0  0
 23 43  1  0  0  0  0
 23 44  1  0  0  0  0
 23 45  1  0  0  0  0
 24 46  1  0  0  0  0
 24 47  1  0  0  0  0
 24 48  1  0  0  0  0
M  END
>  <IDENTIFIER>
CNP0193253.4

>  <Energy>
573.247

$$$$
