
 OpenBabel09082522493D

 55 55  0  0  0  0  0  0  0  0999 V2000
    1.5791   -1.0662    1.4205 C   0  0  0  0  0  0  0  0  0  0  0  0
    1.6647   -0.5312    0.0021 C   0  0  0  0  0  0  0  0  0  0  0  0
    2.7630   -0.7093   -0.7877 C   0  0  0  0  0  0  0  0  0  0  0  0
    4.0114   -1.5026   -0.4571 C   0  0  0  0  0  0  0  0  0  0  0  0
    5.2323   -0.6123   -0.4029 C   0  0  0  0  0  0  0  0  0  0  0  0
    6.2683   -0.8251   -1.2406 C   0  0  0  0  0  0  0  0  0  0  0  0
    7.4878    0.0122   -1.1672 C   0  0  0  0  0  0  0  0  0  0  0  0
    8.4137   -0.2090   -1.9320 O   0  0  0  0  0  0  0  0  0  0  0  0
    7.5803    1.1030   -0.1562 C   0  0  0  0  0  0  0  0  0  0  0  0
    8.8120    1.9635   -0.0413 C   0  0  0  0  0  0  0  0  0  0  0  0
    6.5451    1.3201    0.6757 C   0  0  0  0  0  0  0  0  0  0  0  0
    5.3254    0.4848    0.6017 C   0  0  0  0  0  0  0  0  0  0  0  0
    4.4063    0.6965    1.3773 O   0  0  0  0  0  0  0  0  0  0  0  0
    0.5036    0.3077   -0.5492 C   0  0  0  0  0  0  0  0  0  0  0  0
   -0.7401   -0.4903   -1.0163 C   0  0  0  0  0  0  0  0  0  0  0  0
   -1.6498   -1.2125    0.0050 C   0  0  0  0  0  0  0  0  0  0  0  0
   -2.4619   -0.2991    0.9262 C   0  0  0  0  0  0  0  0  0  0  0  0
   -1.7501    0.5189    1.9724 C   0  0  0  0  0  0  0  0  0  0  0  0
   -3.8192   -0.1861    0.9203 C   0  0  0  0  0  0  0  0  0  0  0  0
   -4.8233   -0.8383    0.0297 C   0  0  0  0  0  0  0  0  0  0  0  0
   -4.5011   -1.5066   -0.9384 O   0  0  0  0  0  0  0  0  0  0  0  0
   -6.2941   -0.6439    0.3104 C   0  0  0  0  0  0  0  0  0  0  0  0
   -6.9998    0.1282   -0.8224 C   0  0  0  0  0  0  0  0  0  0  0  0
   -6.4216    1.5458   -0.9654 C   0  0  0  0  0  0  0  0  0  0  0  0
   -8.5055    0.2082   -0.5425 C   0  0  0  0  0  0  0  0  0  0  0  0
    2.4641   -1.6031    1.7857 H   0  0  0  0  0  0  0  0  0  0  0  0
    0.7426   -1.7640    1.5517 H   0  0  0  0  0  0  0  0  0  0  0  0
    1.4602   -0.2102    2.1140 H   0  0  0  0  0  0  0  0  0  0  0  0
    2.7708   -0.2581   -1.7763 H   0  0  0  0  0  0  0  0  0  0  0  0
    4.1195   -2.2869   -1.2376 H   0  0  0  0  0  0  0  0  0  0  0  0
    3.9707   -2.0416    0.4997 H   0  0  0  0  0  0  0  0  0  0  0  0
    6.2292   -1.6266   -1.9735 H   0  0  0  0  0  0  0  0  0  0  0  0
    9.5887    1.6711   -0.7777 H   0  0  0  0  0  0  0  0  0  0  0  0
    9.2446    1.8618    0.9768 H   0  0  0  0  0  0  0  0  0  0  0  0
    8.5456    3.0268   -0.2175 H   0  0  0  0  0  0  0  0  0  0  0  0
    6.5976    2.1117    1.4191 H   0  0  0  0  0  0  0  0  0  0  0  0
    0.8536    0.8135   -1.4757 H   0  0  0  0  0  0  0  0  0  0  0  0
    0.2492    1.1391    0.1360 H   0  0  0  0  0  0  0  0  0  0  0  0
   -0.3692   -1.2536   -1.7363 H   0  0  0  0  0  0  0  0  0  0  0  0
   -1.3971    0.2027   -1.5883 H   0  0  0  0  0  0  0  0  0  0  0  0
   -1.0936   -1.9481    0.6028 H   0  0  0  0  0  0  0  0  0  0  0  0
   -2.3136   -1.8377   -0.6049 H   0  0  0  0  0  0  0  0  0  0  0  0
   -0.6700    0.3361    1.9760 H   0  0  0  0  0  0  0  0  0  0  0  0
   -2.1257    0.2496    2.9825 H   0  0  0  0  0  0  0  0  0  0  0  0
   -1.9300    1.6009    1.7940 H   0  0  0  0  0  0  0  0  0  0  0  0
   -4.2536    0.4755    1.6670 H   0  0  0  0  0  0  0  0  0  0  0  0
   -6.4423   -0.0912    1.2644 H   0  0  0  0  0  0  0  0  0  0  0  0
   -6.7544   -1.6487    0.4322 H   0  0  0  0  0  0  0  0  0  0  0  0
   -6.8577   -0.4170   -1.7821 H   0  0  0  0  0  0  0  0  0  0  0  0
   -6.5515    2.1172   -0.0206 H   0  0  0  0  0  0  0  0  0  0  0  0
   -6.9356    2.0892   -1.7860 H   0  0  0  0  0  0  0  0  0  0  0  0
   -5.3392    1.5063   -1.2099 H   0  0  0  0  0  0  0  0  0  0  0  0
   -8.7010    0.7452    0.4109 H   0  0  0  0  0  0  0  0  0  0  0  0
   -8.9370   -0.8131   -0.4724 H   0  0  0  0  0  0  0  0  0  0  0  0
   -9.0208    0.7451   -1.3672 H   0  0  0  0  0  0  0  0  0  0  0  0
  1  2  1  0  0  0  0
  1 26  1  0  0  0  0
  1 27  1  0  0  0  0
  1 28  1  0  0  0  0
  2  3  2  3  0  0  0
  2 14  1  0  0  0  0
  3  4  1  0  0  0  0
  3 29  1  0  0  0  0
  4  5  1  0  0  0  0
  4 30  1  0  0  0  0
  4 31  1  0  0  0  0
  5  6  2  0  0  0  0
  6  7  1  0  0  0  0
  6 32  1  0  0  0  0
  7  8  2  0  0  0  0
  7  9  1  0  0  0  0
  9 10  1  0  0  0  0
  9 11  2  0  0  0  0
 10 33  1  0  0  0  0
 10 34  1  0  0  0  0
 10 35  1  0  0  0  0
 11 12  1  0  0  0  0
 11 36  1  0  0  0  0
 12 13  2  0  0  0  0
 12  5  1  0  0  0  0
 14 15  1  0  0  0  0
 14 37  1  0  0  0  0
 14 38  1  0  0  0  0
 15 16  1  0  0  0  0
 15 39  1  0  0  0  0
 15 40  1  0  0  0  0
 16 17  1  0  0  0  0
 16 41  1  0  0  0  0
 16 42  1  0  0  0  0
 17 18  1  0  0  0  0
 17 19  2  3  0  0  0
 18 43  1  0  0  0  0
 18 44  1  0  0  0  0
 18 45  1  0  0  0  0
 19 20  1  0  0  0  0
 19 46  1  0  0  0  0
 20 21  2  0  0  0  0
 20 22  1  0  0  0  0
 22 23  1  0  0  0  0
 22 47  1  0  0  0  0
 22 48  1  0  0  0  0
 23 24  1  0  0  0  0
 23 25  1  0  0  0  0
 23 49  1  0  0  0  0
 24 50  1  0  0  0  0
 24 51  1  0  0  0  0
 24 52  1  0  0  0  0
 25 53  1  0  0  0  0
 25 54  1  0  0  0  0
 25 55  1  0  0  0  0
M  END
>  <IDENTIFIER>
CNP0297066.0

>  <Energy>
242.841

$$$$
