
 OpenBabel09082511223D

 58 60  0  0  0  0  0  0  0  0999 V2000
    1.9424   -4.0508   -0.0421 C   0  0  0  0  0  0  0  0  0  0  0  0
    1.0516   -3.1093    0.3193 C   0  0  0  0  0  0  0  0  0  0  0  0
    0.3165   -3.2744    1.6378 C   0  0  0  0  0  0  0  0  0  0  0  0
    0.7930   -1.9153   -0.6148 C   0  0  1  0  0  0  0  0  0  0  0  0
   -0.6952   -1.9988   -1.0993 C   0  0  0  0  0  0  0  0  0  0  0  0
   -1.1538   -0.6797   -1.7140 C   0  0  0  0  0  0  0  0  0  0  0  0
   -1.0977    0.5143   -0.6833 C   0  0  2  0  0  0  0  0  0  0  0  0
   -0.5623    1.7295   -1.5327 C   0  0  0  0  0  0  0  0  0  0  0  0
   -0.1168    0.1597    0.5426 C   0  0  2  0  0  0  0  0  0  0  0  0
    0.0162    1.3571    1.5283 C   0  0  0  0  0  0  0  0  0  0  0  0
   -1.3760    1.7470    2.1059 C   0  0  0  0  0  0  0  0  0  0  0  0
   -2.3241    2.0648    0.9453 C   0  0  2  0  0  0  0  0  0  0  0  0
   -3.7254    2.5026    1.1857 C   0  0  0  0  0  0  0  0  0  0  0  0
   -4.4640    2.2109    0.0460 C   0  0  0  0  0  0  0  0  0  0  0  0
   -3.6216    1.4581   -0.9547 C   0  0  0  0  0  0  0  0  0  0  0  0
   -2.5078    0.8841   -0.0364 C   0  0  1  0  0  0  0  0  0  0  0  0
   -3.1619   -0.3604    0.6813 C   0  0  0  0  0  0  0  0  0  0  0  0
    1.1722   -0.4938   -0.0176 C   0  0  1  0  0  0  0  0  0  0  0  0
    2.4121   -0.4934    0.9231 C   0  0  0  0  0  0  0  0  0  0  0  0
    3.7153   -0.9226    0.2208 C   0  0  0  0  0  0  0  0  0  0  0  0
    4.0668    0.0061   -0.9097 C   0  0  0  0  0  0  0  0  0  0  0  0
    4.1531   -0.4299   -2.0496 O   0  0  0  0  0  0  0  0  0  0  0  0
    4.2711    1.3233   -0.6510 O   0  0  0  0  0  0  0  0  0  0  0  0
    4.5140    2.2687   -1.6243 C   0  0  0  0  0  0  0  0  0  0  0  0
    2.1444   -4.9097    0.5904 H   0  0  0  0  0  0  0  0  0  0  0  0
    2.4858   -3.9838   -0.9793 H   0  0  0  0  0  0  0  0  0  0  0  0
    0.6433   -4.1869    2.1808 H   0  0  0  0  0  0  0  0  0  0  0  0
   -0.7737   -3.3739    1.4756 H   0  0  0  0  0  0  0  0  0  0  0  0
    0.4950   -2.4127    2.3079 H   0  0  0  0  0  0  0  0  0  0  0  0
    1.4502   -2.0171   -1.5083 H   0  0  0  0  0  0  0  0  0  0  0  0
   -1.3834   -2.2052   -0.2629 H   0  0  0  0  0  0  0  0  0  0  0  0
   -0.7999   -2.8422   -1.8160 H   0  0  0  0  0  0  0  0  0  0  0  0
   -2.1570   -0.7452   -2.1850 H   0  0  0  0  0  0  0  0  0  0  0  0
   -0.4324   -0.5300   -2.5493 H   0  0  0  0  0  0  0  0  0  0  0  0
    0.4083    1.5213   -2.0210 H   0  0  0  0  0  0  0  0  0  0  0  0
   -0.3941    2.6606   -0.9693 H   0  0  0  0  0  0  0  0  0  0  0  0
   -1.2457    1.9576   -2.3734 H   0  0  0  0  0  0  0  0  0  0  0  0
   -0.5274   -0.6306    1.1894 H   0  0  0  0  0  0  0  0  0  0  0  0
    0.4866    2.2249    1.0235 H   0  0  0  0  0  0  0  0  0  0  0  0
    0.6611    1.0804    2.3886 H   0  0  0  0  0  0  0  0  0  0  0  0
   -1.2701    2.6331    2.7679 H   0  0  0  0  0  0  0  0  0  0  0  0
   -1.7814    0.9163    2.7196 H   0  0  0  0  0  0  0  0  0  0  0  0
   -1.8897    2.9490    0.4394 H   0  0  0  0  0  0  0  0  0  0  0  0
   -4.0882    3.0796    2.0257 H   0  0  0  0  0  0  0  0  0  0  0  0
   -5.4874    2.5234   -0.1101 H   0  0  0  0  0  0  0  0  0  0  0  0
   -3.2830    2.2147   -1.6884 H   0  0  0  0  0  0  0  0  0  0  0  0
   -4.1666    0.6508   -1.4896 H   0  0  0  0  0  0  0  0  0  0  0  0
   -3.3876   -1.1559   -0.0583 H   0  0  0  0  0  0  0  0  0  0  0  0
   -4.1300   -0.1131    1.1636 H   0  0  0  0  0  0  0  0  0  0  0  0
   -2.5617   -0.8121    1.4882 H   0  0  0  0  0  0  0  0  0  0  0  0
    1.4760    0.1611   -0.8480 H   0  0  0  0  0  0  0  0  0  0  0  0
    2.2402   -1.1392    1.8046 H   0  0  0  0  0  0  0  0  0  0  0  0
    2.5852    0.5357    1.3022 H   0  0  0  0  0  0  0  0  0  0  0  0
    3.6261   -1.9590   -0.1568 H   0  0  0  0  0  0  0  0  0  0  0  0
    4.5460   -0.9029    0.9577 H   0  0  0  0  0  0  0  0  0  0  0  0
    4.6637    3.2567   -1.1421 H   0  0  0  0  0  0  0  0  0  0  0  0
    3.6449    2.3362   -2.3135 H   0  0  0  0  0  0  0  0  0  0  0  0
    5.4292    2.0067   -2.1967 H   0  0  0  0  0  0  0  0  0  0  0  0
  1  2  2  0  0  0  0
  1 25  1  0  0  0  0
  1 26  1  0  0  0  0
  2  3  1  0  0  0  0
  3 27  1  0  0  0  0
  3 28  1  0  0  0  0
  3 29  1  0  0  0  0
  4  2  1  0  0  0  0
  4  5  1  0  0  0  0
  4 30  1  6  0  0  0
  5  6  1  0  0  0  0
  5 31  1  0  0  0  0
  5 32  1  0  0  0  0
  6  7  1  0  0  0  0
  6 33  1  0  0  0  0
  6 34  1  0  0  0  0
  7  8  1  6  0  0  0
  7  9  1  0  0  0  0
  8 35  1  0  0  0  0
  8 36  1  0  0  0  0
  8 37  1  0  0  0  0
  9 10  1  0  0  0  0
  9 18  1  0  0  0  0
  9 38  1  1  0  0  0
 10 11  1  0  0  0  0
 10 39  1  0  0  0  0
 10 40  1  0  0  0  0
 11 41  1  0  0  0  0
 11 42  1  0  0  0  0
 12 11  1  0  0  0  0
 12 13  1  0  0  0  0
 12 43  1  6  0  0  0
 13 14  2  0  0  0  0
 13 44  1  0  0  0  0
 14 15  1  0  0  0  0
 14 45  1  0  0  0  0
 15 16  1  0  0  0  0
 15 46  1  0  0  0  0
 15 47  1  0  0  0  0
 16 17  1  1  0  0  0
 16  7  1  0  0  0  0
 16 12  1  0  0  0  0
 17 48  1  0  0  0  0
 17 49  1  0  0  0  0
 17 50  1  0  0  0  0
 18 19  1  0  0  0  0
 18  4  1  0  0  0  0
 18 51  1  6  0  0  0
 19 20  1  0  0  0  0
 19 52  1  0  0  0  0
 19 53  1  0  0  0  0
 20 21  1  0  0  0  0
 20 54  1  0  0  0  0
 20 55  1  0  0  0  0
 21 22  2  0  0  0  0
 21 23  1  0  0  0  0
 23 24  1  0  0  0  0
 24 56  1  0  0  0  0
 24 57  1  0  0  0  0
 24 58  1  0  0  0  0
M  END
>  <IDENTIFIER>
CNP0600031.1

>  <Energy>
630.693

$$$$
