
 OpenBabel09112506333D

 42 43  0  0  0  0  0  0  0  0999 V2000
    1.3397    0.2547   -1.6896 C   0  0  0  0  0  0  0  0  0  0  0  0
    1.7489   -0.0629   -0.4494 C   0  0  0  0  0  0  0  0  0  0  0  0
    3.1496   -0.5806   -0.2891 C   0  0  0  0  0  0  0  0  0  0  0  0
    3.8457   -0.8002   -1.2725 O   0  0  0  0  0  0  0  0  0  0  0  0
    3.6601   -0.7718    0.9557 O   0  0  0  0  0  0  0  0  0  0  0  0
    4.9320   -1.2424    1.2042 C   0  0  0  0  0  0  0  0  0  0  0  0
    0.8928    0.1480    0.8227 C   0  0  2  0  0  0  0  0  0  0  0  0
    0.7979   -1.1663    1.6767 C   0  0  0  0  0  0  0  0  0  0  0  0
   -0.5747   -1.8669    1.6737 C   0  0  0  0  0  0  0  0  0  0  0  0
   -1.2685   -1.6848    0.3241 C   0  0  1  0  0  0  0  0  0  0  0  0
   -2.4894   -2.6132    0.2260 C   0  0  0  0  0  0  0  0  0  0  0  0
   -1.6640   -0.1806    0.1873 C   0  0  2  0  0  0  0  0  0  0  0  0
   -2.2065    0.1625   -1.2193 C   0  0  0  0  0  0  0  0  0  0  0  0
   -2.5811    1.6423   -1.2571 C   0  0  0  0  0  0  0  0  0  0  0  0
   -1.4116    2.5305   -0.8987 C   0  0  0  0  0  0  0  0  0  0  0  0
   -1.2618    3.8725   -1.5623 C   0  0  0  0  0  0  0  0  0  0  0  0
   -0.5160    2.1550    0.0385 C   0  0  0  0  0  0  0  0  0  0  0  0
   -0.5314    0.7934    0.7088 C   0  0  2  0  0  0  0  0  0  0  0  0
    1.9806    0.1149   -2.5544 H   0  0  0  0  0  0  0  0  0  0  0  0
    0.3910    0.6911   -1.8940 H   0  0  0  0  0  0  0  0  0  0  0  0
    5.0899   -1.3014    2.3006 H   0  0  0  0  0  0  0  0  0  0  0  0
    5.6872   -0.5531    0.7698 H   0  0  0  0  0  0  0  0  0  0  0  0
    5.0550   -2.2575    0.7698 H   0  0  0  0  0  0  0  0  0  0  0  0
    1.5238    0.8570    1.4055 H   0  0  0  0  0  0  0  0  0  0  0  0
    1.0468   -0.9643    2.7416 H   0  0  0  0  0  0  0  0  0  0  0  0
    1.5489   -1.8987    1.3189 H   0  0  0  0  0  0  0  0  0  0  0  0
   -1.2358   -1.4237    2.4526 H   0  0  0  0  0  0  0  0  0  0  0  0
   -0.4186   -2.9349    1.9430 H   0  0  0  0  0  0  0  0  0  0  0  0
   -0.5504   -1.9781   -0.4747 H   0  0  0  0  0  0  0  0  0  0  0  0
   -3.2363   -2.3664    1.0106 H   0  0  0  0  0  0  0  0  0  0  0  0
   -2.1715   -3.6695    0.3578 H   0  0  0  0  0  0  0  0  0  0  0  0
   -2.9703   -2.5411   -0.7697 H   0  0  0  0  0  0  0  0  0  0  0  0
   -2.5233    0.0150    0.8722 H   0  0  0  0  0  0  0  0  0  0  0  0
   -3.1243   -0.4231   -1.4314 H   0  0  0  0  0  0  0  0  0  0  0  0
   -1.4970   -0.0885   -2.0229 H   0  0  0  0  0  0  0  0  0  0  0  0
   -3.3713    1.8124   -0.4929 H   0  0  0  0  0  0  0  0  0  0  0  0
   -3.0142    1.9179   -2.2424 H   0  0  0  0  0  0  0  0  0  0  0  0
   -2.0771    4.0556   -2.2932 H   0  0  0  0  0  0  0  0  0  0  0  0
   -0.2913    3.9169   -2.1005 H   0  0  0  0  0  0  0  0  0  0  0  0
   -1.2919    4.6768   -0.7972 H   0  0  0  0  0  0  0  0  0  0  0  0
    0.2817    2.8407    0.3134 H   0  0  0  0  0  0  0  0  0  0  0  0
   -0.7716    0.9895    1.7797 H   0  0  0  0  0  0  0  0  0  0  0  0
  1  2  2  0  0  0  0
  1 19  1  0  0  0  0
  1 20  1  0  0  0  0
  2  3  1  0  0  0  0
  3  4  2  0  0  0  0
  3  5  1  0  0  0  0
  5  6  1  0  0  0  0
  6 21  1  0  0  0  0
  6 22  1  0  0  0  0
  6 23  1  0  0  0  0
  7  2  1  0  0  0  0
  7  8  1  0  0  0  0
  7 24  1  1  0  0  0
  8  9  1  0  0  0  0
  8 25  1  0  0  0  0
  8 26  1  0  0  0  0
  9 10  1  0  0  0  0
  9 27  1  0  0  0  0
  9 28  1  0  0  0  0
 10 11  1  0  0  0  0
 10 12  1  0  0  0  0
 10 29  1  6  0  0  0
 11 30  1  0  0  0  0
 11 31  1  0  0  0  0
 11 32  1  0  0  0  0
 12 13  1  0  0  0  0
 12 33  1  1  0  0  0
 13 14  1  0  0  0  0
 13 34  1  0  0  0  0
 13 35  1  0  0  0  0
 14 15  1  0  0  0  0
 14 36  1  0  0  0  0
 14 37  1  0  0  0  0
 15 16  1  0  0  0  0
 15 17  2  0  0  0  0
 16 38  1  0  0  0  0
 16 39  1  0  0  0  0
 16 40  1  0  0  0  0
 17 41  1  0  0  0  0
 18 17  1  0  0  0  0
 18  7  1  0  0  0  0
 18 12  1  0  0  0  0
 18 42  1  1  0  0  0
M  END
>  <IDENTIFIER>
CNP0220144.1

>  <Energy>
412.162

$$$$
