
 OpenBabel09072509263D

 15 16  0  0  0  0  0  0  0  0999 V2000
   -2.5986   -1.1762   -0.1168 O   0  0  0  0  0  0  0  0  0  0  0  0
   -1.4430   -0.4834   -0.0759 C   0  0  0  0  0  0  0  0  0  0  0  0
   -1.4544    0.9373    0.0454 C   0  0  0  0  0  0  0  0  0  0  0  0
   -0.2887    1.6557    0.0883 N   0  0  0  0  0  0  0  0  0  0  0  0
    0.8829    0.9841    0.0126 C   0  0  0  0  0  0  0  0  0  0  0  0
    2.1250    1.4887    0.0361 N   0  0  0  0  0  0  0  0  0  0  0  0
    2.9678    0.4593   -0.0649 N   0  0  0  0  0  0  0  0  0  0  0  0
    2.2801   -0.7111   -0.1538 C   0  0  0  0  0  0  0  0  0  0  0  0
    0.9397   -0.4254   -0.1084 C   0  0  0  0  0  0  0  0  0  0  0  0
   -0.2196   -1.1812   -0.1545 C   0  0  0  0  0  0  0  0  0  0  0  0
   -3.4608   -0.7396   -0.0661 H   0  0  0  0  0  0  0  0  0  0  0  0
   -2.4003    1.4610    0.1049 H   0  0  0  0  0  0  0  0  0  0  0  0
   -0.3053    2.6961    0.1772 H   0  0  0  0  0  0  0  0  0  0  0  0
    2.7337   -1.6889   -0.2442 H   0  0  0  0  0  0  0  0  0  0  0  0
   -0.1854   -2.2593   -0.2469 H   0  0  0  0  0  0  0  0  0  0  0  0
  1  2  1  0  0  0  0
  1 11  1  0  0  0  0
  2  3  2  0  0  0  0
  3  4  1  0  0  0  0
  3 12  1  0  0  0  0
  4  5  1  0  0  0  0
  4 13  1  0  0  0  0
  5  6  2  0  0  0  0
  6  7  1  0  0  0  0
  7  8  2  0  0  0  0
  8  9  1  0  0  0  0
  8 14  1  0  0  0  0
  9 10  2  0  0  0  0
  9  5  1  0  0  0  0
 10  2  1  0  0  0  0
 10 15  1  0  0  0  0
M  END
>  <IDENTIFIER>
CNP0407174.0

>  <Energy>
236.845

$$$$
