
 OpenBabel09122509403D

 61 62  0  0  0  0  0  0  0  0999 V2000
   -0.7606    1.2270   -2.6593 C   0  0  0  0  0  0  0  0  0  0  0  0
   -1.4253    1.8294   -1.6562 C   0  0  0  0  0  0  0  0  0  0  0  0
   -2.1941    3.0798   -1.9417 C   0  0  0  0  0  0  0  0  0  0  0  0
   -2.7988    3.6404   -1.0374 O   0  0  0  0  0  0  0  0  0  0  0  0
   -2.2293    3.5933   -3.1999 O   0  0  0  0  0  0  0  0  0  0  0  0
   -2.9495    4.7180   -3.5468 C   0  0  0  0  0  0  0  0  0  0  0  0
   -1.4713    1.2539   -0.2313 C   0  0  1  0  0  0  0  0  0  0  0  0
   -2.9021    0.6461    0.0375 C   0  0  1  0  0  0  0  0  0  0  0  0
   -3.4317   -0.0764   -1.0536 O   0  0  0  0  0  0  0  0  0  0  0  0
   -2.9193   -0.2337    1.3111 C   0  0  1  0  0  0  0  0  0  0  0  0
   -4.3515   -0.6381    1.6634 C   0  0  0  0  0  0  0  0  0  0  0  0
   -5.1826    0.2487    1.7931 O   0  0  0  0  0  0  0  0  0  0  0  0
   -4.8495   -2.0674    1.7289 C   0  0  0  0  0  0  0  0  0  0  0  0
   -3.7518   -3.1366    1.7519 C   0  0  0  0  0  0  0  0  0  0  0  0
   -2.5699   -2.7991    0.8229 C   0  0  1  0  0  0  0  0  0  0  0  0
   -2.9396   -2.8311   -0.5381 O   0  0  0  0  0  0  0  0  0  0  0  0
   -1.8953   -1.4430    1.2352 C   0  0  2  0  0  0  0  0  0  0  0  0
   -1.2854   -1.6010    2.6680 C   0  0  0  0  0  0  0  0  0  0  0  0
   -0.7134   -1.1569    0.2338 C   0  0  0  0  0  0  0  0  0  0  0  0
   -0.3062    0.3172    0.2667 C   0  0  1  0  0  0  0  0  0  0  0  0
    0.8842    0.5062   -0.4244 O   0  0  0  0  0  0  0  0  0  0  0  0
    2.1028    0.7538    0.1355 C   0  0  0  0  0  0  0  0  0  0  0  0
    2.1875    0.9264    1.3402 O   0  0  0  0  0  0  0  0  0  0  0  0
    3.3273    0.7408   -0.7364 C   0  0  0  0  0  0  0  0  0  0  0  0
    3.1424    0.5932   -2.2304 C   0  0  0  0  0  0  0  0  0  0  0  0
    4.6173    0.8269   -0.3064 C   0  0  0  0  0  0  0  0  0  0  0  0
    5.1451    0.9529    1.1099 C   0  0  0  0  0  0  0  0  0  0  0  0
    5.9205   -0.1445    1.4428 O   0  0  0  0  0  0  0  0  0  0  0  0
    7.1081   -0.4800    0.8719 C   0  0  0  0  0  0  0  0  0  0  0  0
    7.7928   -1.7434    1.2852 C   0  0  0  0  0  0  0  0  0  0  0  0
    7.6324    0.2418    0.0359 O   0  0  0  0  0  0  0  0  0  0  0  0
   -0.7539    1.6422   -3.6621 H   0  0  0  0  0  0  0  0  0  0  0  0
   -0.2310    0.2953   -2.5202 H   0  0  0  0  0  0  0  0  0  0  0  0
   -2.8074    4.9246   -4.6272 H   0  0  0  0  0  0  0  0  0  0  0  0
   -2.5971    5.5957   -2.9638 H   0  0  0  0  0  0  0  0  0  0  0  0
   -4.0314    4.5521   -3.3542 H   0  0  0  0  0  0  0  0  0  0  0  0
   -1.3166    2.1388    0.4274 H   0  0  0  0  0  0  0  0  0  0  0  0
   -3.5848    1.5126    0.1712 H   0  0  0  0  0  0  0  0  0  0  0  0
   -2.7050   -0.4243   -1.6243 H   0  0  0  0  0  0  0  0  0  0  0  0
   -2.5721    0.4647    2.1069 H   0  0  0  0  0  0  0  0  0  0  0  0
   -5.5044   -2.2108    0.8432 H   0  0  0  0  0  0  0  0  0  0  0  0
   -5.4849   -2.2209    2.6279 H   0  0  0  0  0  0  0  0  0  0  0  0
   -4.1901   -4.1283    1.5078 H   0  0  0  0  0  0  0  0  0  0  0  0
   -3.3781   -3.2328    2.7878 H   0  0  0  0  0  0  0  0  0  0  0  0
   -1.8207   -3.6116    0.9488 H   0  0  0  0  0  0  0  0  0  0  0  0
   -3.8562   -2.4760   -0.6465 H   0  0  0  0  0  0  0  0  0  0  0  0
   -0.5846   -2.4619    2.7086 H   0  0  0  0  0  0  0  0  0  0  0  0
   -2.0574   -1.7323    3.4502 H   0  0  0  0  0  0  0  0  0  0  0  0
   -0.7205   -0.7037    2.9877 H   0  0  0  0  0  0  0  0  0  0  0  0
   -0.9734   -1.3889   -0.8154 H   0  0  0  0  0  0  0  0  0  0  0  0
    0.1442   -1.8220    0.4795 H   0  0  0  0  0  0  0  0  0  0  0  0
   -0.1448    0.5399    1.3400 H   0  0  0  0  0  0  0  0  0  0  0  0
    2.0810    0.5235   -2.5288 H   0  0  0  0  0  0  0  0  0  0  0  0
    3.6533   -0.3284   -2.5829 H   0  0  0  0  0  0  0  0  0  0  0  0
    3.5808    1.4707   -2.7516 H   0  0  0  0  0  0  0  0  0  0  0  0
    5.3923    0.7909   -1.0679 H   0  0  0  0  0  0  0  0  0  0  0  0
    4.3588    1.0297    1.8709 H   0  0  0  0  0  0  0  0  0  0  0  0
    5.7501    1.8809    1.1951 H   0  0  0  0  0  0  0  0  0  0  0  0
    7.1907   -2.2759    2.0513 H   0  0  0  0  0  0  0  0  0  0  0  0
    8.7901   -1.5071    1.7117 H   0  0  0  0  0  0  0  0  0  0  0  0
    7.9191   -2.4061    0.4034 H   0  0  0  0  0  0  0  0  0  0  0  0
  1  2  2  0  0  0  0
  1 32  1  0  0  0  0
  1 33  1  0  0  0  0
  2  3  1  0  0  0  0
  3  4  2  0  0  0  0
  3  5  1  0  0  0  0
  5  6  1  0  0  0  0
  6 34  1  0  0  0  0
  6 35  1  0  0  0  0
  6 36  1  0  0  0  0
  7  2  1  0  0  0  0
  7  8  1  0  0  0  0
  7 37  1  1  0  0  0
  8  9  1  0  0  0  0
  8 10  1  0  0  0  0
  8 38  1  1  0  0  0
  9 39  1  0  0  0  0
 10 11  1  0  0  0  0
 10 40  1  1  0  0  0
 11 12  2  0  0  0  0
 11 13  1  0  0  0  0
 13 14  1  0  0  0  0
 13 41  1  0  0  0  0
 13 42  1  0  0  0  0
 14 15  1  0  0  0  0
 14 43  1  0  0  0  0
 14 44  1  0  0  0  0
 15 16  1  0  0  0  0
 15 17  1  0  0  0  0
 15 45  1  1  0  0  0
 16 46  1  0  0  0  0
 17 18  1  1  0  0  0
 17 19  1  0  0  0  0
 17 10  1  0  0  0  0
 18 47  1  0  0  0  0
 18 48  1  0  0  0  0
 18 49  1  0  0  0  0
 19 20  1  0  0  0  0
 19 50  1  0  0  0  0
 19 51  1  0  0  0  0
 20 21  1  0  0  0  0
 20  7  1  0  0  0  0
 20 52  1  1  0  0  0
 21 22  1  0  0  0  0
 22 23  2  0  0  0  0
 22 24  1  0  0  0  0
 24 25  1  0  0  0  0
 24 26  2  0  0  0  0
 25 53  1  0  0  0  0
 25 54  1  0  0  0  0
 25 55  1  0  0  0  0
 26 27  1  0  0  0  0
 26 56  1  0  0  0  0
 27 28  1  0  0  0  0
 27 57  1  0  0  0  0
 27 58  1  0  0  0  0
 28 29  1  0  0  0  0
 29 30  1  0  0  0  0
 29 31  2  0  0  0  0
 30 59  1  0  0  0  0
 30 60  1  0  0  0  0
 30 61  1  0  0  0  0
M  END
>  <IDENTIFIER>
CNP0055236.3

>  <Energy>
581.277

$$$$
