
 OpenBabel09082501082D

 68 72  0  0  0  0  0  0  0  0999 V2000
    1.0124    7.5058    0.0000 C   0  0  0  0  0  0  0  0  0  0  0  0
    0.0482    6.3567    0.0000 C   0  0  0  0  0  0  0  0  0  0  0  0
   -0.9160    5.2077    0.0000 C   0  0  2  0  0  0  0  0  0  0  0  0
   -2.0651    6.1719    0.0000 C   0  0  0  0  0  0  0  0  0  0  0  0
   -1.0439    4.1837   -1.3102 C   0  0  0  0  0  0  0  0  0  0  0  0
   -0.7566    4.6357   -2.4082 O   0  0  0  0  0  0  0  0  0  0  0  0
   -1.4227    2.8049   -1.2588 O   0  0  0  0  0  0  0  0  0  0  0  0
   -1.0018    1.6436   -2.0663 C   0  0  1  0  0  0  0  0  0  0  0  0
   -2.1540    0.8410   -2.7602 C   0  0  0  0  0  0  0  0  0  0  0  0
   -2.8172    1.4425   -3.5888 O   0  0  0  0  0  0  0  0  0  0  0  0
   -2.4780   -0.5150   -2.5260 O   0  0  0  0  0  0  0  0  0  0  0  0
   -2.1123   -1.3953   -1.4717 C   0  0  2  0  0  0  0  0  0  0  0  0
   -1.4061   -2.8345   -1.9301 C   0  0  0  0  0  0  0  0  0  0  0  0
   -0.5785   -3.9006   -0.9259 C   0  0  1  0  0  0  0  0  0  0  0  0
   -1.0323   -5.2500    0.0000 C   0  0  0  0  0  0  0  0  0  0  0  0
   -2.3313   -6.0000    0.0000 C   0  0  0  0  0  0  0  0  0  0  0  0
   -0.6089   -5.5502    1.2461 C   0  0  0  0  0  0  0  0  0  0  0  0
    0.3518   -4.8149    1.8840 C   0  0  0  0  0  0  0  0  0  0  0  0
    0.5492   -4.9135    3.0905 O   0  0  0  0  0  0  0  0  0  0  0  0
    1.1299   -4.0176    1.0015 C   0  0  2  0  0  0  0  0  0  0  0  0
    1.8893   -4.9124    0.2043 O   0  0  0  0  0  0  0  0  0  0  0  0
    0.2668   -3.0000    0.0000 C   0  0  1  0  0  0  0  0  0  0  0  0
    1.5658   -2.2500    0.0000 C   0  0  0  0  0  0  0  0  0  0  0  0
   -0.5670   -1.6833    0.5863 C   0  0  1  0  0  0  0  0  0  0  0  0
    0.1408   -0.7933    1.7398 C   0  0  1  0  0  0  0  0  0  0  0  0
    0.7464   -1.5633    2.7501 O   0  0  0  0  0  0  0  0  0  0  0  0
    1.0703    0.4233    1.1880 C   0  0  1  0  0  0  0  0  0  0  0  0
    2.4385    0.2285    0.9398 O   0  0  0  0  0  0  0  0  0  0  0  0
    0.3943    1.2135   -0.0000 C   0  0  2  0  0  0  0  0  0  0  0  0
    0.8578    2.6401    0.0000 C   0  0  0  0  0  0  0  0  0  0  0  0
   -0.8875    1.4383    0.6931 O   0  0  0  0  0  0  0  0  0  0  0  0
   -1.9170    0.4959    0.3236 C   0  0  0  0  0  0  0  0  0  0  0  0
   -1.1920   -0.5718   -0.4740 C   0  0  1  0  0  0  0  0  0  0  0  0
   -0.1872    0.5432   -1.2327 C   0  0  1  0  0  0  0  0  0  0  0  0
    1.9722    7.0190   -0.3399 H   0  0  0  0  0  0  0  0  0  0  0  0
    0.9759    7.6956    1.0980 H   0  0  0  0  0  0  0  0  0  0  0  0
    1.7002    8.3255    0.0000 H   0  0  0  0  0  0  0  0  0  0  0  0
    0.1451    6.3692   -1.1115 H   0  0  0  0  0  0  0  0  0  0  0  0
    0.7806    5.6677    0.4825 H   0  0  0  0  0  0  0  0  0  0  0  0
   -1.0249    4.6492    0.9620 H   0  0  0  0  0  0  0  0  0  0  0  0
   -1.9788    6.6961    0.9959 H   0  0  0  0  0  0  0  0  0  0  0  0
   -2.0118    6.6676   -1.0091 H   0  0  0  0  0  0  0  0  0  0  0  0
   -2.8848    6.8597    0.0000 H   0  0  0  0  0  0  0  0  0  0  0  0
   -0.3005    2.0295   -2.8373 H   0  0  0  0  0  0  0  0  0  0  0  0
   -3.0205   -1.6994   -0.9084 H   0  0  0  0  0  0  0  0  0  0  0  0
   -0.6024   -2.4664   -2.6051 H   0  0  0  0  0  0  0  0  0  0  0  0
   -2.1002   -3.4101   -2.5768 H   0  0  0  0  0  0  0  0  0  0  0  0
    0.1181   -4.4152   -1.6222 H   0  0  0  0  0  0  0  0  0  0  0  0
   -2.1959   -6.4147   -1.0211 H   0  0  0  0  0  0  0  0  0  0  0  0
   -2.9711   -5.0916   -0.0451 H   0  0  0  0  0  0  0  0  0  0  0  0
   -3.2579   -6.5350    0.0000 H   0  0  0  0  0  0  0  0  0  0  0  0
   -1.0604   -6.3186    1.8909 H   0  0  0  0  0  0  0  0  0  0  0  0
    1.8389   -3.6342    1.7983 H   0  0  0  0  0  0  0  0  0  0  0  0
    2.8062   -4.5413    0.1139 H   0  0  0  0  0  0  0  0  0  0  0  0
    1.9931   -1.9023    0.9429 H   0  0  0  0  0  0  0  0  0  0  0  0
    1.5712   -1.7566   -0.9989 H   0  0  0  0  0  0  0  0  0  0  0  0
    2.4924   -1.7150    0.0000 H   0  0  0  0  0  0  0  0  0  0  0  0
   -0.2905   -1.3771   -0.3125 H   0  0  0  0  0  0  0  0  0  0  0  0
   -0.7070   -0.3234    2.2752 H   0  0  0  0  0  0  0  0  0  0  0  0
    0.9833   -0.9449    3.4900 H   0  0  0  0  0  0  0  0  0  0  0  0
    1.0626    1.0533    2.1142 H   0  0  0  0  0  0  0  0  0  0  0  0
    2.9255    1.0610    1.1791 H   0  0  0  0  0  0  0  0  0  0  0  0
    0.9302    2.8659    1.0857 H   0  0  0  0  0  0  0  0  0  0  0  0
    1.8449    2.4340   -0.4646 H   0  0  0  0  0  0  0  0  0  0  0  0
    1.1884    3.6577   -0.0000 H   0  0  0  0  0  0  0  0  0  0  0  0
   -2.4835    0.0808    1.1840 H   0  0  0  0  0  0  0  0  0  0  0  0
   -2.6929    1.0262   -0.2611 H   0  0  0  0  0  0  0  0  0  0  0  0
    0.5527    0.0451   -1.8939 H   0  0  0  0  0  0  0  0  0  0  0  0
  1  2  1  0  0  0  0
  1 35  1  0  0  0  0
  1 36  1  0  0  0  0
  1 37  1  0  0  0  0
  2  3  1  0  0  0  0
  2 38  1  0  0  0  0
  2 39  1  0  0  0  0
  3  4  1  0  0  0  0
  3  5  1  0  0  0  0
  3 40  1  6  0  0  0
  4 41  1  0  0  0  0
  4 42  1  0  0  0  0
  4 43  1  0  0  0  0
  5  6  2  0  0  0  0
  5  7  1  0  0  0  0
  8  7  1  0  0  0  0
  8  9  1  0  0  0  0
  8 44  1  1  0  0  0
  9 10  2  0  0  0  0
  9 11  1  0  0  0  0
 11 12  1  0  0  0  0
 12 13  1  0  0  0  0
 12 45  1  6  0  0  0
 13 46  1  0  0  0  0
 13 47  1  0  0  0  0
 14 13  1  0  0  0  0
 14 15  1  0  0  0  0
 14 48  1  1  0  0  0
 15 16  1  0  0  0  0
 15 17  2  0  0  0  0
 16 49  1  0  0  0  0
 16 50  1  0  0  0  0
 16 51  1  0  0  0  0
 17 18  1  0  0  0  0
 17 52  1  0  0  0  0
 18 19  2  0  0  0  0
 18 20  1  0  0  0  0
 20 21  1  0  0  0  0
 20 22  1  0  0  0  0
 20 53  1  6  0  0  0
 21 54  1  0  0  0  0
 22 23  1  6  0  0  0
 22 24  1  0  0  0  0
 22 14  1  0  0  0  0
 23 55  1  0  0  0  0
 23 56  1  0  0  0  0
 23 57  1  0  0  0  0
 24 25  1  0  0  0  0
 24 58  1  1  0  0  0
 25 26  1  0  0  0  0
 25 27  1  0  0  0  0
 25 59  1  1  0  0  0
 26 60  1  0  0  0  0
 27 28  1  0  0  0  0
 27 29  1  0  0  0  0
 27 61  1  1  0  0  0
 28 62  1  0  0  0  0
 29 30  1  6  0  0  0
 29 31  1  0  0  0  0
 30 63  1  0  0  0  0
 30 64  1  0  0  0  0
 30 65  1  0  0  0  0
 31 32  1  0  0  0  0
 32 66  1  0  0  0  0
 32 67  1  0  0  0  0
 33 32  1  6  0  0  0
 33 34  1  0  0  0  0
 33 12  1  0  0  0  0
 33 24  1  0  0  0  0
 34  8  1  0  0  0  0
 34 29  1  0  0  0  0
 34 68  1  6  0  0  0
M  END
>  <IDENTIFIER>
CNP0255456.4

>  <Energy>
4907.38

$$$$
