
 OpenBabel09132502092D

 61 65  0  0  0  0  0  0  0  0999 V2000
   -3.4058    0.0351    5.0798 C   0  0  0  0  0  0  0  0  0  0  0  0
   -2.1755   -0.0922    4.5412 C   0  0  0  0  0  0  0  0  0  0  0  0
   -1.0836   -1.0158    5.0776 C   0  0  2  0  0  0  0  0  0  0  0  0
   -0.3843   -2.3685    4.6122 C   0  0  0  0  0  0  0  0  0  0  0  0
    0.4608   -2.2201    3.2999 C   0  0  0  0  0  0  0  0  0  0  0  0
   -0.0721   -1.0544    2.4152 C   0  0  1  0  0  0  0  0  0  0  0  0
    0.7321   -0.7491    1.0826 C   0  0  1  0  0  0  0  0  0  0  0  0
   -0.0109    0.5084    0.5108 C   0  0  0  0  0  0  0  0  0  0  0  0
    0.2049    1.6808    1.3084 O   0  0  0  0  0  0  0  0  0  0  0  0
    0.7267    1.3789    2.6016 C   0  0  1  0  0  0  0  0  0  0  0  0
    0.7205    2.5626    3.3627 O   0  0  0  0  0  0  0  0  0  0  0  0
    2.1914    0.8071    2.4575 C   0  0  2  0  0  0  0  0  0  0  0  0
    3.1402    1.8092    2.2107 O   0  0  0  0  0  0  0  0  0  0  0  0
    2.2387   -0.3207    1.3688 C   0  0  2  0  0  0  0  0  0  0  0  0
    3.0000    0.0000    0.0000 C   0  0  2  0  0  0  0  0  0  0  0  0
    4.4095    0.5130    0.0000 C   0  0  0  0  0  0  0  0  0  0  0  0
    2.5035    1.5080   -0.6451 C   0  0  0  0  0  0  0  0  0  0  0  0
    2.6169    2.8774   -0.0614 O   0  0  0  0  0  0  0  0  0  0  0  0
    3.6281    3.9186    0.0000 C   0  0  0  0  0  0  0  0  0  0  0  0
    3.3677    5.3958    0.0000 C   0  0  0  0  0  0  0  0  0  0  0  0
    4.7974    3.5760   -0.0773 O   0  0  0  0  0  0  0  0  0  0  0  0
    2.8475   -1.2137   -0.9767 C   0  0  0  0  0  0  0  0  0  0  0  0
    1.3928   -1.6034   -1.2405 C   0  0  0  0  0  0  0  0  0  0  0  0
    0.6744   -1.9414    0.0749 C   0  0  1  0  0  0  0  0  0  0  0  0
    1.2883   -3.0782    0.6251 O   0  0  0  0  0  0  0  0  0  0  0  0
   -0.2039    0.3024    3.2689 C   0  0  1  0  0  0  0  0  0  0  0  0
    0.0481    0.0103    4.7798 C   0  0  0  0  0  0  0  0  0  0  0  0
   -1.6811    0.7866    3.4158 C   0  0  2  0  0  0  0  0  0  0  0  0
   -2.4511    0.6440    2.2529 O   0  0  0  0  0  0  0  0  0  0  0  0
   -4.1149    0.7518    4.6773 H   0  0  0  0  0  0  0  0  0  0  0  0
   -3.7028   -0.5808    5.9222 H   0  0  0  0  0  0  0  0  0  0  0  0
   -1.7321   -1.4813    4.3034 H   0  0  0  0  0  0  0  0  0  0  0  0
   -1.0552   -3.2806    4.5499 H   0  0  0  0  0  0  0  0  0  0  0  0
    0.3316   -2.6871    5.4009 H   0  0  0  0  0  0  0  0  0  0  0  0
    1.5002   -1.9555    3.5818 H   0  0  0  0  0  0  0  0  0  0  0  0
    0.5111   -3.2085    2.8084 H   0  0  0  0  0  0  0  0  0  0  0  0
   -1.0911   -1.3836    2.1076 H   0  0  0  0  0  0  0  0  0  0  0  0
   -1.0907    0.2995    0.3936 H   0  0  0  0  0  0  0  0  0  0  0  0
    0.2639    0.7608   -0.5162 H   0  0  0  0  0  0  0  0  0  0  0  0
    1.2429    2.4030    4.1900 H   0  0  0  0  0  0  0  0  0  0  0  0
    2.4524    0.3356    3.4322 H   0  0  0  0  0  0  0  0  0  0  0  0
    3.3827    2.2175    3.0824 H   0  0  0  0  0  0  0  0  0  0  0  0
    2.7960   -1.1784    1.8033 H   0  0  0  0  0  0  0  0  0  0  0  0
    4.8502   -0.3698    0.5118 H   0  0  0  0  0  0  0  0  0  0  0  0
    4.6636    0.4678   -1.0858 H   0  0  0  0  0  0  0  0  0  0  0  0
    5.4150    0.8790    0.0000 H   0  0  0  0  0  0  0  0  0  0  0  0
    2.7534    1.5776   -1.7277 H   0  0  0  0  0  0  0  0  0  0  0  0
    2.7534    1.5776   -1.7277 H   0  0  0  0  0  0  0  0  0  0  0  0
    3.8056    5.5785    1.0051 H   0  0  0  0  0  0  0  0  0  0  0  0
    2.2628    5.3121    0.0654 H   0  0  0  0  0  0  0  0  0  0  0  0
    3.1819    6.4496    0.0000 H   0  0  0  0  0  0  0  0  0  0  0  0
    3.3815   -2.0863   -0.5404 H   0  0  0  0  0  0  0  0  0  0  0  0
    3.3128   -1.0012   -1.9638 H   0  0  0  0  0  0  0  0  0  0  0  0
    0.8835   -0.7911   -1.7918 H   0  0  0  0  0  0  0  0  0  0  0  0
    1.3666   -2.4898   -1.9120 H   0  0  0  0  0  0  0  0  0  0  0  0
   -0.3965   -2.1667   -0.1443 H   0  0  0  0  0  0  0  0  0  0  0  0
    0.9028   -3.8693    0.1649 H   0  0  0  0  0  0  0  0  0  0  0  0
   -0.0759    0.9288    5.4054 H   0  0  0  0  0  0  0  0  0  0  0  0
    1.0650   -0.3506    5.0401 H   0  0  0  0  0  0  0  0  0  0  0  0
   -1.7084    1.8418    3.7799 H   0  0  0  0  0  0  0  0  0  0  0  0
   -3.2391    1.2394    2.3510 H   0  0  0  0  0  0  0  0  0  0  0  0
  1  2  2  0  0  0  0
  1 30  1  0  0  0  0
  1 31  1  0  0  0  0
  2  3  1  0  0  0  0
  3  4  1  0  0  0  0
  3 32  1  6  0  0  0
  4  5  1  0  0  0  0
  4 33  1  0  0  0  0
  4 34  1  0  0  0  0
  5 35  1  0  0  0  0
  5 36  1  0  0  0  0
  6  5  1  0  0  0  0
  6  7  1  0  0  0  0
  6 37  1  1  0  0  0
  7  8  1  6  0  0  0
  8  9  1  0  0  0  0
  8 38  1  0  0  0  0
  8 39  1  0  0  0  0
  9 10  1  0  0  0  0
 10 11  1  6  0  0  0
 10 12  1  0  0  0  0
 10 26  1  0  0  0  0
 11 40  1  0  0  0  0
 12 13  1  0  0  0  0
 12 14  1  0  0  0  0
 12 41  1  1  0  0  0
 13 42  1  0  0  0  0
 14 15  1  0  0  0  0
 14  7  1  0  0  0  0
 14 43  1  1  0  0  0
 15 16  1  1  0  0  0
 15 17  1  0  0  0  0
 15 22  1  0  0  0  0
 16 44  1  0  0  0  0
 16 45  1  0  0  0  0
 16 46  1  0  0  0  0
 17 18  1  0  0  0  0
 17 47  1  0  0  0  0
 17 48  1  0  0  0  0
 18 19  1  0  0  0  0
 19 20  1  0  0  0  0
 19 21  2  0  0  0  0
 20 49  1  0  0  0  0
 20 50  1  0  0  0  0
 20 51  1  0  0  0  0
 22 23  1  0  0  0  0
 22 52  1  0  0  0  0
 22 53  1  0  0  0  0
 23 24  1  0  0  0  0
 23 54  1  0  0  0  0
 23 55  1  0  0  0  0
 24 25  1  0  0  0  0
 24  7  1  0  0  0  0
 24 56  1  6  0  0  0
 25 57  1  0  0  0  0
 26 27  1  6  0  0  0
 26 28  1  0  0  0  0
 26  6  1  0  0  0  0
 27  3  1  0  0  0  0
 27 58  1  0  0  0  0
 27 59  1  0  0  0  0
 28 29  1  0  0  0  0
 28  2  1  0  0  0  0
 28 60  1  6  0  0  0
 29 61  1  0  0  0  0
M  END
>  <IDENTIFIER>
CNP0145699.1

>  <Energy>
2541.72

$$$$
