
 OpenBabel09112502003D

 57 60  0  0  0  0  0  0  0  0999 V2000
   -6.7115   -2.5040    1.8855 C   0  0  0  0  0  0  0  0  0  0  0  0
   -5.6389   -2.1787    0.8966 C   0  0  0  0  0  0  0  0  0  0  0  0
   -4.7054   -2.9529    0.7390 O   0  0  0  0  0  0  0  0  0  0  0  0
   -5.7293   -1.0301    0.1752 O   0  0  0  0  0  0  0  0  0  0  0  0
   -4.7759   -0.5636   -0.7150 C   0  0  0  0  0  0  0  0  0  0  0  0
   -3.4665   -0.1587   -0.0017 C   0  0  1  0  0  0  0  0  0  0  0  0
   -2.5246    0.2286   -1.0123 O   0  0  0  0  0  0  0  0  0  0  0  0
   -1.4844    1.0196   -0.4742 C   0  0  1  0  0  0  0  0  0  0  0  0
   -0.2851    1.0570   -1.4226 C   0  0  0  0  0  0  0  0  0  0  0  0
   -0.3949    1.5536   -2.7486 C   0  0  0  0  0  0  0  0  0  0  0  0
   -1.5570    1.9999   -3.2726 O   0  0  0  0  0  0  0  0  0  0  0  0
    0.7243    1.5789   -3.5796 C   0  0  0  0  0  0  0  0  0  0  0  0
    1.9644    1.1039   -3.1467 C   0  0  0  0  0  0  0  0  0  0  0  0
    3.0163    1.1416   -3.9940 O   0  0  0  0  0  0  0  0  0  0  0  0
    2.1004    0.5822   -1.8392 C   0  0  0  0  0  0  0  0  0  0  0  0
    0.9749    0.5688   -0.9836 C   0  0  0  0  0  0  0  0  0  0  0  0
    1.0983    0.0880    0.2467 O   0  0  0  0  0  0  0  0  0  0  0  0
    2.2250   -0.4008    0.7402 C   0  0  0  0  0  0  0  0  0  0  0  0
    3.4060   -0.4551   -0.0268 C   0  0  0  0  0  0  0  0  0  0  0  0
    4.6687   -1.0546    0.5677 C   0  0  0  0  0  0  0  0  0  0  0  0
    5.7183   -1.5564   -0.2400 C   0  0  0  0  0  0  0  0  0  0  0  0
    6.8654   -2.1164    0.3259 C   0  0  0  0  0  0  0  0  0  0  0  0
    7.0086   -2.1944    1.7132 C   0  0  0  0  0  0  0  0  0  0  0  0
    8.1197   -2.7366    2.2545 O   0  0  0  0  0  0  0  0  0  0  0  0
    5.9867   -1.7072    2.5399 C   0  0  0  0  0  0  0  0  0  0  0  0
    6.0903   -1.7634    3.8851 O   0  0  0  0  0  0  0  0  0  0  0  0
    4.8344   -1.1500    1.9721 C   0  0  0  0  0  0  0  0  0  0  0  0
    3.3239    0.0642   -1.3466 C   0  0  0  0  0  0  0  0  0  0  0  0
    4.3107    0.0870   -2.0599 O   0  0  0  0  0  0  0  0  0  0  0  0
   -2.0156    2.4366   -0.0932 C   0  0  2  0  0  0  0  0  0  0  0  0
   -1.1252    3.0456    0.8111 O   0  0  0  0  0  0  0  0  0  0  0  0
   -3.4722    2.3449    0.4851 C   0  0  1  0  0  0  0  0  0  0  0  0
   -4.4498    2.6054   -0.4972 O   0  0  0  0  0  0  0  0  0  0  0  0
   -3.7173    0.9497    1.0961 C   0  0  2  0  0  0  0  0  0  0  0  0
   -2.8313    0.7747    2.1732 O   0  0  0  0  0  0  0  0  0  0  0  0
   -6.5003   -3.4700    2.3925 H   0  0  0  0  0  0  0  0  0  0  0  0
   -7.6875   -2.5778    1.3624 H   0  0  0  0  0  0  0  0  0  0  0  0
   -6.7651   -1.7010    2.6498 H   0  0  0  0  0  0  0  0  0  0  0  0
   -5.2038    0.3018   -1.2542 H   0  0  0  0  0  0  0  0  0  0  0  0
   -4.5665   -1.3492   -1.4742 H   0  0  0  0  0  0  0  0  0  0  0  0
   -3.0995   -1.0795    0.4988 H   0  0  0  0  0  0  0  0  0  0  0  0
   -1.1533    0.5283    0.4652 H   0  0  0  0  0  0  0  0  0  0  0  0
   -2.4086    1.9624   -2.8256 H   0  0  0  0  0  0  0  0  0  0  0  0
    0.6233    1.9649   -4.5871 H   0  0  0  0  0  0  0  0  0  0  0  0
    2.9477    1.4915   -4.8938 H   0  0  0  0  0  0  0  0  0  0  0  0
    2.1815   -0.7860    1.7455 H   0  0  0  0  0  0  0  0  0  0  0  0
    5.6751   -1.5575   -1.3151 H   0  0  0  0  0  0  0  0  0  0  0  0
    7.6451   -2.4970   -0.3224 H   0  0  0  0  0  0  0  0  0  0  0  0
    8.8415   -3.0838    1.7110 H   0  0  0  0  0  0  0  0  0  0  0  0
    6.8610   -2.1358    4.3360 H   0  0  0  0  0  0  0  0  0  0  0  0
    4.0876   -0.7797    2.6569 H   0  0  0  0  0  0  0  0  0  0  0  0
   -2.0685    3.1239   -0.9617 H   0  0  0  0  0  0  0  0  0  0  0  0
   -1.1771    2.5603    1.6736 H   0  0  0  0  0  0  0  0  0  0  0  0
   -3.6010    3.1455    1.2458 H   0  0  0  0  0  0  0  0  0  0  0  0
   -4.1350    2.2713   -1.3741 H   0  0  0  0  0  0  0  0  0  0  0  0
   -4.7511    0.8924    1.5091 H   0  0  0  0  0  0  0  0  0  0  0  0
   -3.1361   -0.0295    2.6695 H   0  0  0  0  0  0  0  0  0  0  0  0
  1  2  1  0  0  0  0
  1 36  1  0  0  0  0
  1 37  1  0  0  0  0
  1 38  1  0  0  0  0
  2  3  2  0  0  0  0
  2  4  1  0  0  0  0
  4  5  1  0  0  0  0
  5 39  1  0  0  0  0
  5 40  1  0  0  0  0
  6  5  1  0  0  0  0
  6  7  1  0  0  0  0
  6 41  1  1  0  0  0
  7  8  1  0  0  0  0
  8  9  1  0  0  0  0
  8 30  1  0  0  0  0
  8 42  1  1  0  0  0
  9 10  2  0  0  0  0
 10 11  1  0  0  0  0
 10 12  1  0  0  0  0
 11 43  1  0  0  0  0
 12 13  2  0  0  0  0
 12 44  1  0  0  0  0
 13 14  1  0  0  0  0
 13 15  1  0  0  0  0
 14 45  1  0  0  0  0
 15 16  2  0  0  0  0
 16 17  1  0  0  0  0
 16  9  1  0  0  0  0
 17 18  1  0  0  0  0
 18 19  2  0  0  0  0
 18 46  1  0  0  0  0
 19 20  1  0  0  0  0
 19 28  1  0  0  0  0
 20 21  2  0  0  0  0
 21 22  1  0  0  0  0
 21 47  1  0  0  0  0
 22 23  2  0  0  0  0
 22 48  1  0  0  0  0
 23 24  1  0  0  0  0
 23 25  1  0  0  0  0
 24 49  1  0  0  0  0
 25 26  1  0  0  0  0
 25 27  2  0  0  0  0
 26 50  1  0  0  0  0
 27 20  1  0  0  0  0
 27 51  1  0  0  0  0
 28 29  2  0  0  0  0
 28 15  1  0  0  0  0
 30 31  1  0  0  0  0
 30 32  1  0  0  0  0
 30 52  1  6  0  0  0
 31 53  1  0  0  0  0
 32 33  1  0  0  0  0
 32 34  1  0  0  0  0
 32 54  1  1  0  0  0
 33 55  1  0  0  0  0
 34 35  1  0  0  0  0
 34  6  1  0  0  0  0
 34 56  1  1  0  0  0
 35 57  1  0  0  0  0
M  END
>  <IDENTIFIER>
CNP0390167.3

>  <Energy>
598.418

$$$$
