
 OpenBabel09072504023D

 75 79  0  0  0  0  0  0  0  0999 V2000
   -2.3650   -3.4912   -1.7523 C   0  0  0  0  0  0  0  0  0  0  0  0
   -1.8296   -2.2916   -1.3290 O   0  0  0  0  0  0  0  0  0  0  0  0
   -2.5250   -1.2532   -0.7938 C   0  0  0  0  0  0  0  0  0  0  0  0
   -3.9145   -1.3000   -0.5987 C   0  0  0  0  0  0  0  0  0  0  0  0
   -4.5970   -0.2094   -0.0570 C   0  0  0  0  0  0  0  0  0  0  0  0
   -3.9016    0.9697    0.3143 C   0  0  0  0  0  0  0  0  0  0  0  0
   -2.4869    1.0163    0.1124 C   0  0  0  0  0  0  0  0  0  0  0  0
   -1.7158    2.0880    0.4138 O   0  0  0  0  0  0  0  0  0  0  0  0
   -1.8239   -0.0955   -0.4360 C   0  0  0  0  0  0  0  0  0  0  0  0
   -0.4892   -0.0315   -0.6480 O   0  0  0  0  0  0  0  0  0  0  0  0
    0.4668   -0.4780    0.2471 C   0  0  1  0  0  0  0  0  0  0  0  0
    1.2363   -1.5372   -0.3220 O   0  0  0  0  0  0  0  0  0  0  0  0
    2.0798   -1.1353   -1.4053 C   0  0  1  0  0  0  0  0  0  0  0  0
    1.3048   -0.9634   -2.7267 C   0  0  0  0  0  0  0  0  0  0  0  0
    3.0129    0.0527   -1.0400 C   0  0  2  0  0  0  0  0  0  0  0  0
    3.9403   -0.4039   -0.0613 O   0  0  0  0  0  0  0  0  0  0  0  0
    5.3015   -0.1151   -0.3521 C   0  0  1  0  0  0  0  0  0  0  0  0
    5.8041    0.7245    0.6772 O   0  0  0  0  0  0  0  0  0  0  0  0
    7.1629    1.0764    0.4315 C   0  0  1  0  0  0  0  0  0  0  0  0
    7.6036    2.0942    1.4932 C   0  0  0  0  0  0  0  0  0  0  0  0
    6.7864    3.2332    1.4493 O   0  0  0  0  0  0  0  0  0  0  0  0
    8.0604   -0.1872    0.4807 C   0  0  2  0  0  0  0  0  0  0  0  0
    9.4158    0.1272    0.2746 O   0  0  0  0  0  0  0  0  0  0  0  0
    7.5702   -1.1971   -0.5730 C   0  0  1  0  0  0  0  0  0  0  0  0
    8.3085   -2.3924   -0.5191 O   0  0  0  0  0  0  0  0  0  0  0  0
    6.0671   -1.4568   -0.3682 C   0  0  2  0  0  0  0  0  0  0  0  0
    5.5672   -2.3203   -1.3573 O   0  0  0  0  0  0  0  0  0  0  0  0
    2.2058    1.2259   -0.4540 C   0  0  1  0  0  0  0  0  0  0  0  0
    1.3871    1.7821   -1.4513 O   0  0  0  0  0  0  0  0  0  0  0  0
    1.3575    0.7009    0.7246 C   0  0  2  0  0  0  0  0  0  0  0  0
    2.1884    0.3415    1.8083 O   0  0  0  0  0  0  0  0  0  0  0  0
   -4.6819    2.0213    0.8575 C   0  0  0  0  0  0  0  0  0  0  0  0
   -4.1893    3.0750    1.2129 O   0  0  0  0  0  0  0  0  0  0  0  0
   -6.0619    1.8672    0.9934 C   0  0  0  0  0  0  0  0  0  0  0  0
   -6.6751    0.6701    0.5911 C   0  0  0  0  0  0  0  0  0  0  0  0
   -8.1508    0.4410    0.6847 C   0  0  0  0  0  0  0  0  0  0  0  0
   -9.0454    1.4074    1.1982 C   0  0  0  0  0  0  0  0  0  0  0  0
  -10.4184    1.1507    1.2557 C   0  0  0  0  0  0  0  0  0  0  0  0
  -10.9291   -0.0713    0.8034 C   0  0  0  0  0  0  0  0  0  0  0  0
  -12.2519   -0.3278    0.8517 O   0  0  0  0  0  0  0  0  0  0  0  0
  -10.0576   -1.0359    0.2949 C   0  0  0  0  0  0  0  0  0  0  0  0
   -8.6837   -0.7851    0.2354 C   0  0  0  0  0  0  0  0  0  0  0  0
   -5.9151   -0.3014    0.0931 O   0  0  0  0  0  0  0  0  0  0  0  0
   -1.5501   -4.1343   -2.1426 H   0  0  0  0  0  0  0  0  0  0  0  0
   -3.0989   -3.3165   -2.5682 H   0  0  0  0  0  0  0  0  0  0  0  0
   -2.8549   -4.0151   -0.9040 H   0  0  0  0  0  0  0  0  0  0  0  0
   -4.4819   -2.1804   -0.8708 H   0  0  0  0  0  0  0  0  0  0  0  0
   -1.9997    2.9237    0.7937 H   0  0  0  0  0  0  0  0  0  0  0  0
   -0.0452   -0.8820    1.1506 H   0  0  0  0  0  0  0  0  0  0  0  0
    2.7587   -1.9912   -1.6135 H   0  0  0  0  0  0  0  0  0  0  0  0
    0.5947   -0.1193   -2.7309 H   0  0  0  0  0  0  0  0  0  0  0  0
    0.7385   -1.8932   -2.9461 H   0  0  0  0  0  0  0  0  0  0  0  0
    2.0212   -0.7918   -3.5582 H   0  0  0  0  0  0  0  0  0  0  0  0
    3.5083    0.3828   -1.9805 H   0  0  0  0  0  0  0  0  0  0  0  0
    5.4503    0.3905   -1.3359 H   0  0  0  0  0  0  0  0  0  0  0  0
    7.2597    1.5776   -0.5603 H   0  0  0  0  0  0  0  0  0  0  0  0
    8.6688    2.3874    1.3499 H   0  0  0  0  0  0  0  0  0  0  0  0
    7.5231    1.6432    2.5055 H   0  0  0  0  0  0  0  0  0  0  0  0
    7.0978    3.7754    0.6779 H   0  0  0  0  0  0  0  0  0  0  0  0
    7.9604   -0.6446    1.4903 H   0  0  0  0  0  0  0  0  0  0  0  0
    9.4902    0.5690   -0.6118 H   0  0  0  0  0  0  0  0  0  0  0  0
    7.7129   -0.7492   -1.5822 H   0  0  0  0  0  0  0  0  0  0  0  0
    8.1685   -2.7918    0.3792 H   0  0  0  0  0  0  0  0  0  0  0  0
    5.9188   -1.9437    0.6219 H   0  0  0  0  0  0  0  0  0  0  0  0
    5.6470   -1.8547   -2.2315 H   0  0  0  0  0  0  0  0  0  0  0  0
    2.9101    2.0172   -0.1093 H   0  0  0  0  0  0  0  0  0  0  0  0
    0.9026    2.5453   -1.0412 H   0  0  0  0  0  0  0  0  0  0  0  0
    0.6997    1.5113    1.1018 H   0  0  0  0  0  0  0  0  0  0  0  0
    2.2989   -0.6441    1.8385 H   0  0  0  0  0  0  0  0  0  0  0  0
   -6.6254    2.6899    1.4048 H   0  0  0  0  0  0  0  0  0  0  0  0
   -8.7119    2.3666    1.5589 H   0  0  0  0  0  0  0  0  0  0  0  0
  -11.0856    1.9062    1.6518 H   0  0  0  0  0  0  0  0  0  0  0  0
  -12.8881    0.3164    1.1945 H   0  0  0  0  0  0  0  0  0  0  0  0
  -10.4451   -1.9837   -0.0577 H   0  0  0  0  0  0  0  0  0  0  0  0
   -8.0395   -1.5562   -0.1681 H   0  0  0  0  0  0  0  0  0  0  0  0
  1  2  1  0  0  0  0
  1 44  1  0  0  0  0
  1 45  1  0  0  0  0
  1 46  1  0  0  0  0
  2  3  1  0  0  0  0
  3  4  2  0  0  0  0
  4  5  1  0  0  0  0
  4 47  1  0  0  0  0
  5  6  2  0  0  0  0
  6  7  1  0  0  0  0
  6 32  1  0  0  0  0
  7  8  1  0  0  0  0
  7  9  2  0  0  0  0
  8 48  1  0  0  0  0
  9 10  1  0  0  0  0
  9  3  1  0  0  0  0
 11 10  1  0  0  0  0
 11 12  1  0  0  0  0
 11 49  1  1  0  0  0
 12 13  1  0  0  0  0
 13 14  1  0  0  0  0
 13 15  1  0  0  0  0
 13 50  1  6  0  0  0
 14 51  1  0  0  0  0
 14 52  1  0  0  0  0
 14 53  1  0  0  0  0
 15 16  1  0  0  0  0
 15 28  1  0  0  0  0
 15 54  1  6  0  0  0
 17 16  1  0  0  0  0
 17 18  1  0  0  0  0
 17 55  1  6  0  0  0
 18 19  1  0  0  0  0
 19 20  1  0  0  0  0
 19 22  1  0  0  0  0
 19 56  1  6  0  0  0
 20 21  1  0  0  0  0
 20 57  1  0  0  0  0
 20 58  1  0  0  0  0
 21 59  1  0  0  0  0
 22 23  1  0  0  0  0
 22 24  1  0  0  0  0
 22 60  1  1  0  0  0
 23 61  1  0  0  0  0
 24 25  1  0  0  0  0
 24 26  1  0  0  0  0
 24 62  1  6  0  0  0
 25 63  1  0  0  0  0
 26 27  1  0  0  0  0
 26 17  1  0  0  0  0
 26 64  1  1  0  0  0
 27 65  1  0  0  0  0
 28 29  1  0  0  0  0
 28 30  1  0  0  0  0
 28 66  1  1  0  0  0
 29 67  1  0  0  0  0
 30 31  1  0  0  0  0
 30 11  1  0  0  0  0
 30 68  1  1  0  0  0
 31 69  1  0  0  0  0
 32 33  2  0  0  0  0
 32 34  1  0  0  0  0
 34 35  2  0  0  0  0
 34 70  1  0  0  0  0
 35 36  1  0  0  0  0
 35 43  1  0  0  0  0
 36 37  2  0  0  0  0
 37 38  1  0  0  0  0
 37 71  1  0  0  0  0
 38 39  2  0  0  0  0
 38 72  1  0  0  0  0
 39 40  1  0  0  0  0
 39 41  1  0  0  0  0
 40 73  1  0  0  0  0
 41 42  2  0  0  0  0
 41 74  1  0  0  0  0
 42 36  1  0  0  0  0
 42 75  1  0  0  0  0
 43  5  1  0  0  0  0
M  END
>  <IDENTIFIER>
CNP0185742.1

>  <Energy>
726.477

$$$$
