
 OpenBabel09122518243D

 72 77  0  0  0  0  0  0  0  0999 V2000
    8.1352    0.7312    0.7416 C   0  0  0  0  0  0  0  0  0  0  0  0
    6.9460    0.8808   -0.2150 C   0  0  2  0  0  0  0  0  0  0  0  0
    5.8240    1.7735    0.3779 C   0  0  0  0  0  0  0  0  0  0  0  0
    4.6981    0.8994    0.9300 C   0  0  0  0  0  0  0  0  0  0  0  0
    4.1217    0.0633   -0.2697 C   0  0  2  0  0  0  0  0  0  0  0  0
    5.1318   -0.4333   -1.1658 O   0  0  0  0  0  0  0  0  0  0  0  0
    6.4007   -0.5251   -0.5610 C   0  0  0  0  0  0  0  0  0  0  0  0
    3.2970    0.9640   -1.0296 O   0  0  0  0  0  0  0  0  0  0  0  0
    2.0564    0.3196   -1.1354 C   0  0  2  0  0  0  0  0  0  0  0  0
    0.7643    1.1451   -1.1965 C   0  0  0  0  0  0  0  0  0  0  0  0
   -0.2363   -0.0211   -1.0220 C   0  0  2  0  0  0  0  0  0  0  0  0
   -1.7830    0.2334   -0.9650 C   0  0  2  0  0  0  0  0  0  0  0  0
   -2.2283    1.6788   -1.2311 C   0  0  0  0  0  0  0  0  0  0  0  0
   -3.7588    1.7310   -1.4168 C   0  0  0  0  0  0  0  0  0  0  0  0
   -4.5131    1.1475   -0.1968 C   0  0  1  0  0  0  0  0  0  0  0  0
   -6.0577    1.2337   -0.4179 C   0  0  0  0  0  0  0  0  0  0  0  0
   -6.8871    0.3589    0.5682 C   0  0  2  0  0  0  0  0  0  0  0  0
   -8.1487    0.9288    0.8027 O   0  0  0  0  0  0  0  0  0  0  0  0
   -6.1041    0.1267    1.8560 C   0  0  0  0  0  0  0  0  0  0  0  0
   -4.7694   -0.6311    1.5836 C   0  0  0  0  0  0  0  0  0  0  0  0
   -4.0614   -0.2907    0.2038 C   0  0  1  0  0  0  0  0  0  0  0  0
   -4.4770   -1.3474   -0.8700 C   0  0  0  0  0  0  0  0  0  0  0  0
   -2.5109   -0.2903    0.2815 C   0  0  0  0  0  0  0  0  0  0  0  0
   -1.8070   -0.7214    1.3579 C   0  0  0  0  0  0  0  0  0  0  0  0
   -0.3194   -0.5511    1.4362 C   0  0  0  0  0  0  0  0  0  0  0  0
    0.3734   -0.9168    0.1098 C   0  0  1  0  0  0  0  0  0  0  0  0
    0.1760   -2.4113   -0.2084 C   0  0  0  0  0  0  0  0  0  0  0  0
    1.8637   -0.4186    0.1418 C   0  0  1  0  0  0  0  0  0  0  0  0
    3.2049   -1.1117    0.2633 C   0  0  1  0  0  0  0  0  0  0  0  0
    3.3524   -2.3991   -0.5799 C   0  0  0  0  0  0  0  0  0  0  0  0
    8.5667    1.7282    0.9717 H   0  0  0  0  0  0  0  0  0  0  0  0
    8.9286    0.1123    0.2696 H   0  0  0  0  0  0  0  0  0  0  0  0
    7.8196    0.2494    1.6916 H   0  0  0  0  0  0  0  0  0  0  0  0
    7.3174    1.3901   -1.1320 H   0  0  0  0  0  0  0  0  0  0  0  0
    5.3742    2.3796   -0.4398 H   0  0  0  0  0  0  0  0  0  0  0  0
    6.2272    2.4947    1.1210 H   0  0  0  0  0  0  0  0  0  0  0  0
    3.9006    1.5093    1.4052 H   0  0  0  0  0  0  0  0  0  0  0  0
    5.1320    0.2445    1.7176 H   0  0  0  0  0  0  0  0  0  0  0  0
    7.1086   -1.0548   -1.2325 H   0  0  0  0  0  0  0  0  0  0  0  0
    6.3123   -1.1693    0.3451 H   0  0  0  0  0  0  0  0  0  0  0  0
    2.0945   -0.3498   -2.0276 H   0  0  0  0  0  0  0  0  0  0  0  0
    0.6500    1.6937   -2.1554 H   0  0  0  0  0  0  0  0  0  0  0  0
    0.6934    1.8625   -0.3478 H   0  0  0  0  0  0  0  0  0  0  0  0
   -0.0847   -0.5722   -1.9861 H   0  0  0  0  0  0  0  0  0  0  0  0
   -2.1521   -0.3718   -1.8144 H   0  0  0  0  0  0  0  0  0  0  0  0
   -1.7548    2.0658   -2.1586 H   0  0  0  0  0  0  0  0  0  0  0  0
   -1.9212    2.3245   -0.3789 H   0  0  0  0  0  0  0  0  0  0  0  0
   -4.0272    1.1575   -2.3293 H   0  0  0  0  0  0  0  0  0  0  0  0
   -4.0673    2.7864   -1.5799 H   0  0  0  0  0  0  0  0  0  0  0  0
   -4.2518    1.7939    0.6742 H   0  0  0  0  0  0  0  0  0  0  0  0
   -6.3576    0.9314   -1.4449 H   0  0  0  0  0  0  0  0  0  0  0  0
   -6.3152    2.3095   -0.3041 H   0  0  0  0  0  0  0  0  0  0  0  0
   -7.0732   -0.6482    0.1558 H   0  0  0  0  0  0  0  0  0  0  0  0
   -8.0070    1.7765    1.3015 H   0  0  0  0  0  0  0  0  0  0  0  0
   -6.6930   -0.4234    2.6222 H   0  0  0  0  0  0  0  0  0  0  0  0
   -5.8815    1.1358    2.2710 H   0  0  0  0  0  0  0  0  0  0  0  0
   -4.9007   -1.7335    1.6543 H   0  0  0  0  0  0  0  0  0  0  0  0
   -4.1695   -0.3167    2.4588 H   0  0  0  0  0  0  0  0  0  0  0  0
   -4.0838   -2.3456   -0.5807 H   0  0  0  0  0  0  0  0  0  0  0  0
   -4.1040   -1.1201   -1.8839 H   0  0  0  0  0  0  0  0  0  0  0  0
   -5.5610   -1.4615   -1.0009 H   0  0  0  0  0  0  0  0  0  0  0  0
   -2.2755   -1.1722    2.2203 H   0  0  0  0  0  0  0  0  0  0  0  0
    0.1001   -1.1041    2.3045 H   0  0  0  0  0  0  0  0  0  0  0  0
   -0.1658    0.5343    1.6297 H   0  0  0  0  0  0  0  0  0  0  0  0
    0.6029   -3.0331    0.6059 H   0  0  0  0  0  0  0  0  0  0  0  0
    0.6514   -2.6772   -1.1746 H   0  0  0  0  0  0  0  0  0  0  0  0
   -0.9028   -2.6602   -0.2929 H   0  0  0  0  0  0  0  0  0  0  0  0
    1.9052    0.3805    0.9254 H   0  0  0  0  0  0  0  0  0  0  0  0
    3.4352   -1.4121    1.3096 H   0  0  0  0  0  0  0  0  0  0  0  0
    3.1345   -2.2460   -1.6549 H   0  0  0  0  0  0  0  0  0  0  0  0
    2.7084   -3.2049   -0.1843 H   0  0  0  0  0  0  0  0  0  0  0  0
    4.3916   -2.7793   -0.4916 H   0  0  0  0  0  0  0  0  0  0  0  0
  1 31  1  0  0  0  0
  1 32  1  0  0  0  0
  1 33  1  0  0  0  0
  2  1  1  0  0  0  0
  2  3  1  0  0  0  0
  2 34  1  6  0  0  0
  3  4  1  0  0  0  0
  3 35  1  0  0  0  0
  3 36  1  0  0  0  0
  4 37  1  0  0  0  0
  4 38  1  0  0  0  0
  5  4  1  0  0  0  0
  5  6  1  6  0  0  0
  5  8  1  0  0  0  0
  6  7  1  0  0  0  0
  7  2  1  0  0  0  0
  7 39  1  0  0  0  0
  7 40  1  0  0  0  0
  8  9  1  0  0  0  0
  9 10  1  0  0  0  0
  9 41  1  6  0  0  0
 10 42  1  0  0  0  0
 10 43  1  0  0  0  0
 11 10  1  0  0  0  0
 11 12  1  0  0  0  0
 11 44  1  6  0  0  0
 12 13  1  0  0  0  0
 12 45  1  6  0  0  0
 13 14  1  0  0  0  0
 13 46  1  0  0  0  0
 13 47  1  0  0  0  0
 14 48  1  0  0  0  0
 14 49  1  0  0  0  0
 15 14  1  0  0  0  0
 15 16  1  0  0  0  0
 15 50  1  1  0  0  0
 16 17  1  0  0  0  0
 16 51  1  0  0  0  0
 16 52  1  0  0  0  0
 17 18  1  0  0  0  0
 17 19  1  0  0  0  0
 17 53  1  6  0  0  0
 18 54  1  0  0  0  0
 19 20  1  0  0  0  0
 19 55  1  0  0  0  0
 19 56  1  0  0  0  0
 20 21  1  0  0  0  0
 20 57  1  0  0  0  0
 20 58  1  0  0  0  0
 21 22  1  6  0  0  0
 21 23  1  0  0  0  0
 21 15  1  0  0  0  0
 22 59  1  0  0  0  0
 22 60  1  0  0  0  0
 22 61  1  0  0  0  0
 23 24  2  0  0  0  0
 23 12  1  0  0  0  0
 24 25  1  0  0  0  0
 24 62  1  0  0  0  0
 25 26  1  0  0  0  0
 25 63  1  0  0  0  0
 25 64  1  0  0  0  0
 26 27  1  6  0  0  0
 26 28  1  0  0  0  0
 26 11  1  0  0  0  0
 27 65  1  0  0  0  0
 27 66  1  0  0  0  0
 27 67  1  0  0  0  0
 28 29  1  0  0  0  0
 28  9  1  0  0  0  0
 28 68  1  1  0  0  0
 29 30  1  0  0  0  0
 29  5  1  0  0  0  0
 29 69  1  1  0  0  0
 30 70  1  0  0  0  0
 30 71  1  0  0  0  0
 30 72  1  0  0  0  0
M  END
>  <IDENTIFIER>
CNP0305868.8

>  <Energy>
1196.28

$$$$
