
 OpenBabel09082501593D

 73 75  0  0  0  0  0  0  0  0999 V2000
   -1.8008    1.6116   -2.8044 C   0  0  0  0  0  0  0  0  0  0  0  0
   -2.6490    1.4767   -1.7728 C   0  0  0  0  0  0  0  0  0  0  0  0
   -2.1438    0.8866   -0.6597 O   0  0  0  0  0  0  0  0  0  0  0  0
   -2.7139   -0.1658    0.0423 C   0  0  2  0  0  0  0  0  0  0  0  0
   -1.8932   -0.4482    1.3118 C   0  0  2  0  0  0  0  0  0  0  0  0
   -2.0881    0.5176    2.2862 O   0  0  0  0  0  0  0  0  0  0  0  0
   -2.6393    0.3195    3.5128 C   0  0  0  0  0  0  0  0  0  0  0  0
   -2.7750    1.4745    4.4493 C   0  0  0  0  0  0  0  0  0  0  0  0
   -3.0249   -0.7864    3.8653 O   0  0  0  0  0  0  0  0  0  0  0  0
   -0.3699   -0.6493    0.9947 C   0  0  2  0  0  0  0  0  0  0  0  0
    0.5564    0.5969    0.9884 C   0  0  0  0  0  0  0  0  0  0  0  0
    0.0956    1.8675    1.0364 C   0  0  0  0  0  0  0  0  0  0  0  0
    2.0716    0.4031    0.9458 C   0  0  2  0  0  0  0  0  0  0  0  0
    2.4377   -0.2373   -0.2291 O   0  0  0  0  0  0  0  0  0  0  0  0
    3.2368    0.2860   -1.2050 C   0  0  0  0  0  0  0  0  0  0  0  0
    3.7828    1.3678   -1.0366 O   0  0  0  0  0  0  0  0  0  0  0  0
    3.4178   -0.4333   -2.5027 C   0  0  0  0  0  0  0  0  0  0  0  0
    4.2551    0.2009   -3.5935 C   0  0  0  0  0  0  0  0  0  0  0  0
    2.8239   -1.6348   -2.6942 C   0  0  0  0  0  0  0  0  0  0  0  0
    2.9090   -2.4551   -3.9565 C   0  0  0  0  0  0  0  0  0  0  0  0
    2.4404   -0.3894    2.0616 O   0  0  0  0  0  0  0  0  0  0  0  0
    3.5759    0.1588    2.6943 C   0  0  1  0  0  0  0  0  0  0  0  0
    3.8049   -0.5601    3.9054 O   0  0  0  0  0  0  0  0  0  0  0  0
    4.7338   -0.7493    2.8830 C   0  0  0  0  0  0  0  0  0  0  0  0
    4.7048   -2.1682    2.3188 C   0  0  0  0  0  0  0  0  0  0  0  0
    6.0828   -0.0947    3.1724 C   0  0  0  0  0  0  0  0  0  0  0  0
   -0.1685   -1.4414   -0.3336 C   0  0  0  0  0  0  0  0  0  0  0  0
   -1.4098   -2.2125   -0.8193 C   0  0  2  0  0  0  0  0  0  0  0  0
   -1.9477   -1.5002   -1.9364 O   0  0  0  0  0  0  0  0  0  0  0  0
   -2.7249   -1.4801   -0.7871 C   0  0  2  0  0  0  0  0  0  0  0  0
   -3.9450   -2.3974   -0.7739 C   0  0  0  0  0  0  0  0  0  0  0  0
   -4.0752    1.9654   -1.8658 C   0  0  0  0  0  0  0  0  0  0  0  0
   -4.7776    2.0009   -3.2081 C   0  0  0  0  0  0  0  0  0  0  0  0
   -4.8008    2.4226   -0.8114 C   0  0  0  0  0  0  0  0  0  0  0  0
   -4.3383    2.6163    0.6076 C   0  0  0  0  0  0  0  0  0  0  0  0
   -0.7794    1.2527   -2.7155 H   0  0  0  0  0  0  0  0  0  0  0  0
   -2.0790    2.0837   -3.7383 H   0  0  0  0  0  0  0  0  0  0  0  0
   -3.7615    0.0619    0.3232 H   0  0  0  0  0  0  0  0  0  0  0  0
   -2.2836   -1.4243    1.6874 H   0  0  0  0  0  0  0  0  0  0  0  0
   -2.3802    2.3994    3.9783 H   0  0  0  0  0  0  0  0  0  0  0  0
   -2.2031    1.2704    5.3788 H   0  0  0  0  0  0  0  0  0  0  0  0
   -3.8451    1.6266    4.7021 H   0  0  0  0  0  0  0  0  0  0  0  0
   -0.0319   -1.2738    1.8521 H   0  0  0  0  0  0  0  0  0  0  0  0
   -0.9470    2.1295    1.0670 H   0  0  0  0  0  0  0  0  0  0  0  0
    0.7744    2.7144    1.0369 H   0  0  0  0  0  0  0  0  0  0  0  0
    2.5446    1.4169    0.9788 H   0  0  0  0  0  0  0  0  0  0  0  0
    4.6709    1.1836   -3.2898 H   0  0  0  0  0  0  0  0  0  0  0  0
    3.6333    0.3679   -4.4981 H   0  0  0  0  0  0  0  0  0  0  0  0
    5.1108   -0.4608   -3.8474 H   0  0  0  0  0  0  0  0  0  0  0  0
    2.2311   -2.0713   -1.9017 H   0  0  0  0  0  0  0  0  0  0  0  0
    3.5179   -1.9881   -4.7541 H   0  0  0  0  0  0  0  0  0  0  0  0
    1.8844   -2.6115   -4.3540 H   0  0  0  0  0  0  0  0  0  0  0  0
    3.3530   -3.4436   -3.7168 H   0  0  0  0  0  0  0  0  0  0  0  0
    3.5508    1.2288    2.9990 H   0  0  0  0  0  0  0  0  0  0  0  0
    5.2700   -2.8423    2.9969 H   0  0  0  0  0  0  0  0  0  0  0  0
    5.1809   -2.1798    1.3182 H   0  0  0  0  0  0  0  0  0  0  0  0
    3.6697   -2.5605    2.2305 H   0  0  0  0  0  0  0  0  0  0  0  0
    6.6544   -0.7216    3.8890 H   0  0  0  0  0  0  0  0  0  0  0  0
    5.9611    0.9197    3.6110 H   0  0  0  0  0  0  0  0  0  0  0  0
    6.6603   -0.0067    2.2288 H   0  0  0  0  0  0  0  0  0  0  0  0
    0.6909   -2.1314   -0.2071 H   0  0  0  0  0  0  0  0  0  0  0  0
    0.1040   -0.7344   -1.1509 H   0  0  0  0  0  0  0  0  0  0  0  0
   -1.2585   -3.2296   -1.2384 H   0  0  0  0  0  0  0  0  0  0  0  0
   -4.8281   -1.8403   -1.1496 H   0  0  0  0  0  0  0  0  0  0  0  0
   -4.1453   -2.7337    0.2651 H   0  0  0  0  0  0  0  0  0  0  0  0
   -3.7904   -3.2903   -1.4175 H   0  0  0  0  0  0  0  0  0  0  0  0
   -4.1718    1.5803   -4.0330 H   0  0  0  0  0  0  0  0  0  0  0  0
   -5.0422    3.0494   -3.4648 H   0  0  0  0  0  0  0  0  0  0  0  0
   -5.7080    1.3968   -3.1572 H   0  0  0  0  0  0  0  0  0  0  0  0
   -5.8261    2.7378   -0.9921 H   0  0  0  0  0  0  0  0  0  0  0  0
   -3.2724    2.3978    0.7670 H   0  0  0  0  0  0  0  0  0  0  0  0
   -4.9521    1.9896    1.2875 H   0  0  0  0  0  0  0  0  0  0  0  0
   -4.4831    3.6812    0.8839 H   0  0  0  0  0  0  0  0  0  0  0  0
  1  2  2  0  0  0  0
  1 36  1  0  0  0  0
  1 37  1  0  0  0  0
  2  3  1  0  0  0  0
  2 32  1  0  0  0  0
  4  3  1  0  0  0  0
  4  5  1  0  0  0  0
  4 38  1  1  0  0  0
  5  6  1  0  0  0  0
  5 10  1  0  0  0  0
  5 39  1  1  0  0  0
  6  7  1  0  0  0  0
  7  8  1  0  0  0  0
  7  9  2  0  0  0  0
  8 40  1  0  0  0  0
  8 41  1  0  0  0  0
  8 42  1  0  0  0  0
 10 11  1  0  0  0  0
 10 27  1  0  0  0  0
 10 43  1  1  0  0  0
 11 12  2  0  0  0  0
 11 13  1  0  0  0  0
 12 44  1  0  0  0  0
 12 45  1  0  0  0  0
 13 14  1  0  0  0  0
 13 21  1  0  0  0  0
 13 46  1  1  0  0  0
 14 15  1  0  0  0  0
 15 16  2  0  0  0  0
 15 17  1  0  0  0  0
 17 18  1  0  0  0  0
 17 19  2  0  0  0  0
 18 47  1  0  0  0  0
 18 48  1  0  0  0  0
 18 49  1  0  0  0  0
 19 20  1  0  0  0  0
 19 50  1  0  0  0  0
 20 51  1  0  0  0  0
 20 52  1  0  0  0  0
 20 53  1  0  0  0  0
 22 21  1  0  0  0  0
 22 23  1  0  0  0  0
 22 54  1  6  0  0  0
 23 24  1  0  0  0  0
 24 25  1  0  0  0  0
 24 26  1  0  0  0  0
 24 22  1  0  0  0  0
 25 55  1  0  0  0  0
 25 56  1  0  0  0  0
 25 57  1  0  0  0  0
 26 58  1  0  0  0  0
 26 59  1  0  0  0  0
 26 60  1  0  0  0  0
 27 61  1  0  0  0  0
 27 62  1  0  0  0  0
 28 27  1  0  0  0  0
 28 29  1  0  0  0  0
 28 63  1  6  0  0  0
 29 30  1  0  0  0  0
 30 31  1  1  0  0  0
 30  4  1  0  0  0  0
 30 28  1  0  0  0  0
 31 64  1  0  0  0  0
 31 65  1  0  0  0  0
 31 66  1  0  0  0  0
 32 33  1  0  0  0  0
 32 34  2  0  0  0  0
 33 67  1  0  0  0  0
 33 68  1  0  0  0  0
 33 69  1  0  0  0  0
 34 35  1  0  0  0  0
 34 70  1  0  0  0  0
 35 71  1  0  0  0  0
 35 72  1  0  0  0  0
 35 73  1  0  0  0  0
M  END
>  <IDENTIFIER>
CNP0267415.1

>  <Energy>
3583.3

$$$$
