
 OpenBabel09052514483D

 46 49  0  0  0  0  0  0  0  0999 V2000
    6.3240    2.0620   -2.1341 C   0  0  0  0  0  0  0  0  0  0  0  0
    5.0650    1.6050   -1.4514 C   0  0  0  0  0  0  0  0  0  0  0  0
    5.0221    0.6258   -0.5093 C   0  0  0  0  0  0  0  0  0  0  0  0
    6.2819   -0.0981   -0.0695 C   0  0  0  0  0  0  0  0  0  0  0  0
    3.7423    0.1942    0.1570 C   0  0  0  0  0  0  0  0  0  0  0  0
    3.8135   -0.6734    1.0172 O   0  0  0  0  0  0  0  0  0  0  0  0
    2.5228    0.7361   -0.1447 N   0  0  0  0  0  0  0  0  0  0  0  0
    1.2892    0.3220    0.5053 C   0  0  0  0  0  0  0  0  0  0  0  0
    0.9178   -1.1311    0.1492 C   0  0  0  0  0  0  0  0  0  0  0  0
   -0.3795   -1.5591    0.8122 C   0  0  0  0  0  0  0  0  0  0  0  0
   -0.3618   -2.5401    1.7407 C   0  0  0  0  0  0  0  0  0  0  0  0
   -1.6076   -2.9715    2.4040 C   0  0  0  0  0  0  0  0  0  0  0  0
   -1.5795   -3.8549    3.2469 O   0  0  0  0  0  0  0  0  0  0  0  0
   -2.8787   -2.3213    2.0369 C   0  0  0  0  0  0  0  0  0  0  0  0
   -4.0386   -2.6992    2.6334 N   0  0  0  0  0  0  0  0  0  0  0  0
   -5.2241   -2.1234    2.3140 C   0  0  0  0  0  0  0  0  0  0  0  0
   -5.2844   -1.1158    1.3495 C   0  0  0  0  0  0  0  0  0  0  0  0
   -4.1060   -0.6864    0.6981 C   0  0  0  0  0  0  0  0  0  0  0  0
   -4.0897    0.3328   -0.2965 C   0  0  0  0  0  0  0  0  0  0  0  0
   -5.2477    1.0218   -0.7303 C   0  0  0  0  0  0  0  0  0  0  0  0
   -5.1606    2.0135   -1.7120 C   0  0  0  0  0  0  0  0  0  0  0  0
   -3.9296    2.3380   -2.2797 C   0  0  0  0  0  0  0  0  0  0  0  0
   -2.7762    1.6725   -1.8696 C   0  0  0  0  0  0  0  0  0  0  0  0
   -2.8466    0.6784   -0.8876 C   0  0  0  0  0  0  0  0  0  0  0  0
   -1.7063    0.0516   -0.5078 N   0  0  0  0  0  0  0  0  0  0  0  0
   -1.6796   -0.9157    0.4418 C   0  0  0  0  0  0  0  0  0  0  0  0
   -2.8838   -1.3086    1.0600 C   0  0  0  0  0  0  0  0  0  0  0  0
    6.0877    2.8725   -2.8554 H   0  0  0  0  0  0  0  0  0  0  0  0
    6.7841    1.2201   -2.6928 H   0  0  0  0  0  0  0  0  0  0  0  0
    7.0422    2.4594   -1.3863 H   0  0  0  0  0  0  0  0  0  0  0  0
    4.1725    2.1239   -1.7671 H   0  0  0  0  0  0  0  0  0  0  0  0
    7.2052    0.2401   -0.5775 H   0  0  0  0  0  0  0  0  0  0  0  0
    6.1699   -1.1840   -0.2734 H   0  0  0  0  0  0  0  0  0  0  0  0
    6.4293    0.0488    1.0212 H   0  0  0  0  0  0  0  0  0  0  0  0
    2.4350    1.4882   -0.8377 H   0  0  0  0  0  0  0  0  0  0  0  0
    0.4784    0.9986    0.1676 H   0  0  0  0  0  0  0  0  0  0  0  0
    1.3895    0.4418    1.6061 H   0  0  0  0  0  0  0  0  0  0  0  0
    1.7399   -1.8015    0.4722 H   0  0  0  0  0  0  0  0  0  0  0  0
    0.8154   -1.2418   -0.9518 H   0  0  0  0  0  0  0  0  0  0  0  0
    0.5707   -3.0228    2.0211 H   0  0  0  0  0  0  0  0  0  0  0  0
   -6.1281   -2.4507    2.8108 H   0  0  0  0  0  0  0  0  0  0  0  0
   -6.2548   -0.6981    1.1374 H   0  0  0  0  0  0  0  0  0  0  0  0
   -6.2277    0.8183   -0.3311 H   0  0  0  0  0  0  0  0  0  0  0  0
   -6.0536    2.5337   -2.0339 H   0  0  0  0  0  0  0  0  0  0  0  0
   -3.8691    3.1070   -3.0390 H   0  0  0  0  0  0  0  0  0  0  0  0
   -1.8235    1.9314   -2.3156 H   0  0  0  0  0  0  0  0  0  0  0  0
  1  2  1  0  0  0  0
  1 28  1  0  0  0  0
  1 29  1  0  0  0  0
  1 30  1  0  0  0  0
  2  3  2  3  0  0  0
  2 31  1  0  0  0  0
  3  4  1  0  0  0  0
  3  5  1  0  0  0  0
  4 32  1  0  0  0  0
  4 33  1  0  0  0  0
  4 34  1  0  0  0  0
  5  6  2  0  0  0  0
  5  7  1  0  0  0  0
  7  8  1  0  0  0  0
  7 35  1  0  0  0  0
  8  9  1  0  0  0  0
  8 36  1  0  0  0  0
  8 37  1  0  0  0  0
  9 10  1  0  0  0  0
  9 38  1  0  0  0  0
  9 39  1  0  0  0  0
 10 11  2  0  0  0  0
 11 12  1  0  0  0  0
 11 40  1  0  0  0  0
 12 13  2  0  0  0  0
 12 14  1  0  0  0  0
 14 15  1  0  0  0  0
 15 16  2  0  0  0  0
 16 17  1  0  0  0  0
 16 41  1  0  0  0  0
 17 18  2  0  0  0  0
 17 42  1  0  0  0  0
 18 19  1  0  0  0  0
 19 20  2  0  0  0  0
 20 21  1  0  0  0  0
 20 43  1  0  0  0  0
 21 22  2  0  0  0  0
 21 44  1  0  0  0  0
 22 23  1  0  0  0  0
 22 45  1  0  0  0  0
 23 24  2  0  0  0  0
 23 46  1  0  0  0  0
 24 25  1  0  0  0  0
 24 19  1  0  0  0  0
 25 26  2  0  0  0  0
 26 27  1  0  0  0  0
 26 10  1  0  0  0  0
 27 14  2  0  0  0  0
 27 18  1  0  0  0  0
M  END
>  <IDENTIFIER>
CNP0402420.0

>  <Energy>
265.126

$$$$
