
 OpenBabel09092511413D

 75 80  0  0  0  0  0  0  0  0999 V2000
    2.5801   -2.8862    0.2850 C   0  0  0  0  0  0  0  0  0  0  0  0
    2.2437   -1.5815    0.4570 C   0  0  0  0  0  0  0  0  0  0  0  0
    3.2927   -0.5147    0.1007 C   0  0  2  0  0  0  0  0  0  0  0  0
    4.7728   -0.9542    0.0751 C   0  0  0  0  0  0  0  0  0  0  0  0
    5.4867    0.2343    0.6915 C   0  0  1  0  0  0  0  0  0  0  0  0
    6.9429    0.4848    0.2204 C   0  0  0  0  0  0  0  0  0  0  0  0
    7.1563    0.6592   -1.2909 C   0  0  0  0  0  0  0  0  0  0  0  0
    4.4182    1.3453    0.7058 C   0  0  0  0  0  0  0  0  0  0  0  0
    4.3242    2.1966   -0.5825 C   0  0  0  0  0  0  0  0  0  0  0  0
    4.6533    2.3100    1.8861 C   0  0  0  0  0  0  0  0  0  0  0  0
    3.2025    0.6437    0.9141 O   0  0  0  0  0  0  0  0  0  0  0  0
    0.8750   -1.1380    1.0794 C   0  0  2  0  0  0  0  0  0  0  0  0
   -0.0260   -2.3254    1.4935 C   0  0  0  0  0  0  0  0  0  0  0  0
   -0.6556   -2.7417    0.1688 C   0  0  0  0  0  0  0  0  0  0  0  0
   -1.0547   -1.4159   -0.4951 C   0  0  1  0  0  0  0  0  0  0  0  0
   -2.5957   -1.1443   -0.3556 C   0  0  2  0  0  0  0  0  0  0  0  0
   -3.3911   -2.0347   -1.3267 C   0  0  0  0  0  0  0  0  0  0  0  0
   -4.8359   -1.8037   -1.0454 C   0  0  0  0  0  0  0  0  0  0  0  0
   -5.3163   -0.5539   -0.9365 C   0  0  0  0  0  0  0  0  0  0  0  0
   -6.7316   -0.3750   -0.4589 C   0  0  1  0  0  0  0  0  0  0  0  0
   -6.8223   -0.8733    0.8581 O   0  0  0  0  0  0  0  0  0  0  0  0
   -6.9368    0.5209    0.7240 C   0  0  1  0  0  0  0  0  0  0  0  0
   -5.6695    1.3469    1.0506 C   0  0  0  0  0  0  0  0  0  0  0  0
   -5.0534    1.8633   -0.2643 C   0  0  0  0  0  0  0  0  0  0  0  0
   -4.4140    0.6881   -1.0887 C   0  0  2  0  0  0  0  0  0  0  0  0
   -4.4400    1.1225   -2.5751 C   0  0  0  0  0  0  0  0  0  0  0  0
   -2.8935    0.3445   -0.6846 C   0  0  1  0  0  0  0  0  0  0  0  0
   -2.1890    1.2849    0.3429 C   0  0  0  0  0  0  0  0  0  0  0  0
   -1.0009    0.6082    1.0718 C   0  0  0  0  0  0  0  0  0  0  0  0
   -0.1294   -0.3176    0.1630 C   0  0  1  0  0  0  0  0  0  0  0  0
    0.5336    0.5787   -0.9076 C   0  0  0  0  0  0  0  0  0  0  0  0
    3.5277   -3.1905   -0.1390 H   0  0  0  0  0  0  0  0  0  0  0  0
    1.9464   -3.7190    0.5473 H   0  0  0  0  0  0  0  0  0  0  0  0
    3.0655   -0.1946   -0.9314 H   0  0  0  0  0  0  0  0  0  0  0  0
    5.0395   -1.1840   -0.9769 H   0  0  0  0  0  0  0  0  0  0  0  0
    5.0202   -1.8320    0.7126 H   0  0  0  0  0  0  0  0  0  0  0  0
    5.5673   -0.0391    1.7717 H   0  0  0  0  0  0  0  0  0  0  0  0
    7.5463   -0.4003    0.5183 H   0  0  0  0  0  0  0  0  0  0  0  0
    7.3521    1.3679    0.7548 H   0  0  0  0  0  0  0  0  0  0  0  0
    6.8309   -0.2392   -1.8514 H   0  0  0  0  0  0  0  0  0  0  0  0
    8.2405    0.7929   -1.4869 H   0  0  0  0  0  0  0  0  0  0  0  0
    6.6434    1.5427   -1.7025 H   0  0  0  0  0  0  0  0  0  0  0  0
    5.2237    2.8356   -0.6931 H   0  0  0  0  0  0  0  0  0  0  0  0
    3.4498    2.8789   -0.5175 H   0  0  0  0  0  0  0  0  0  0  0  0
    4.2117    1.5810   -1.4966 H   0  0  0  0  0  0  0  0  0  0  0  0
    5.6206    2.8443    1.7702 H   0  0  0  0  0  0  0  0  0  0  0  0
    4.6670    1.7620    2.8521 H   0  0  0  0  0  0  0  0  0  0  0  0
    3.8372    3.0627    1.9399 H   0  0  0  0  0  0  0  0  0  0  0  0
    1.1692   -0.5558    1.9801 H   0  0  0  0  0  0  0  0  0  0  0  0
   -0.8409   -1.9922    2.1655 H   0  0  0  0  0  0  0  0  0  0  0  0
    0.4896   -3.1339    2.0505 H   0  0  0  0  0  0  0  0  0  0  0  0
   -1.4617   -3.4982    0.2612 H   0  0  0  0  0  0  0  0  0  0  0  0
    0.1201   -3.1962   -0.4752 H   0  0  0  0  0  0  0  0  0  0  0  0
   -0.8295   -1.4955   -1.5841 H   0  0  0  0  0  0  0  0  0  0  0  0
   -2.9317   -1.3504    0.6869 H   0  0  0  0  0  0  0  0  0  0  0  0
   -3.1730   -3.1142   -1.1954 H   0  0  0  0  0  0  0  0  0  0  0  0
   -3.1502   -1.7577   -2.3760 H   0  0  0  0  0  0  0  0  0  0  0  0
   -5.4754   -2.6578   -0.8391 H   0  0  0  0  0  0  0  0  0  0  0  0
   -7.5826   -0.7959   -1.0356 H   0  0  0  0  0  0  0  0  0  0  0  0
   -7.9396    0.9835    0.6089 H   0  0  0  0  0  0  0  0  0  0  0  0
   -4.9298    0.7451    1.6204 H   0  0  0  0  0  0  0  0  0  0  0  0
   -5.9868    2.1997    1.6862 H   0  0  0  0  0  0  0  0  0  0  0  0
   -4.3283    2.6881   -0.1166 H   0  0  0  0  0  0  0  0  0  0  0  0
   -5.9020    2.3269   -0.8191 H   0  0  0  0  0  0  0  0  0  0  0  0
   -3.8271    2.0378   -2.7208 H   0  0  0  0  0  0  0  0  0  0  0  0
   -5.4779    1.3399   -2.9090 H   0  0  0  0  0  0  0  0  0  0  0  0
   -4.0394    0.3220   -3.2329 H   0  0  0  0  0  0  0  0  0  0  0  0
   -2.3104    0.4680   -1.6231 H   0  0  0  0  0  0  0  0  0  0  0  0
   -2.8584    1.5952    1.1674 H   0  0  0  0  0  0  0  0  0  0  0  0
   -1.8762    2.2074   -0.1942 H   0  0  0  0  0  0  0  0  0  0  0  0
   -1.4559   -0.0011    1.8753 H   0  0  0  0  0  0  0  0  0  0  0  0
   -0.3903    1.3780    1.5928 H   0  0  0  0  0  0  0  0  0  0  0  0
    1.2022    1.3285   -0.4396 H   0  0  0  0  0  0  0  0  0  0  0  0
   -0.2073    1.1421   -1.5047 H   0  0  0  0  0  0  0  0  0  0  0  0
    1.0810   -0.0409   -1.6428 H   0  0  0  0  0  0  0  0  0  0  0  0
  1  2  2  0  0  0  0
  1 32  1  0  0  0  0
  1 33  1  0  0  0  0
  3  2  1  0  0  0  0
  3  4  1  0  0  0  0
  3 34  1  6  0  0  0
  4  5  1  0  0  0  0
  4 35  1  0  0  0  0
  4 36  1  0  0  0  0
  5  6  1  0  0  0  0
  5  8  1  0  0  0  0
  5 37  1  1  0  0  0
  6  7  1  0  0  0  0
  6 38  1  0  0  0  0
  6 39  1  0  0  0  0
  7 40  1  0  0  0  0
  7 41  1  0  0  0  0
  7 42  1  0  0  0  0
  8  9  1  0  0  0  0
  8 10  1  0  0  0  0
  8 11  1  0  0  0  0
  9 43  1  0  0  0  0
  9 44  1  0  0  0  0
  9 45  1  0  0  0  0
 10 46  1  0  0  0  0
 10 47  1  0  0  0  0
 10 48  1  0  0  0  0
 11  3  1  0  0  0  0
 12  2  1  0  0  0  0
 12 13  1  0  0  0  0
 12 49  1  1  0  0  0
 13 14  1  0  0  0  0
 13 50  1  0  0  0  0
 13 51  1  0  0  0  0
 14 52  1  0  0  0  0
 14 53  1  0  0  0  0
 15 14  1  0  0  0  0
 15 16  1  0  0  0  0
 15 54  1  6  0  0  0
 16 17  1  0  0  0  0
 16 55  1  1  0  0  0
 17 18  1  0  0  0  0
 17 56  1  0  0  0  0
 17 57  1  0  0  0  0
 18 19  2  0  0  0  0
 18 58  1  0  0  0  0
 19 20  1  0  0  0  0
 20 21  1  0  0  0  0
 20 59  1  6  0  0  0
 21 22  1  0  0  0  0
 22 23  1  0  0  0  0
 22 20  1  0  0  0  0
 22 60  1  1  0  0  0
 23 24  1  0  0  0  0
 23 61  1  0  0  0  0
 23 62  1  0  0  0  0
 24 25  1  0  0  0  0
 24 63  1  0  0  0  0
 24 64  1  0  0  0  0
 25 26  1  6  0  0  0
 25 27  1  0  0  0  0
 25 19  1  0  0  0  0
 26 65  1  0  0  0  0
 26 66  1  0  0  0  0
 26 67  1  0  0  0  0
 27 28  1  0  0  0  0
 27 16  1  0  0  0  0
 27 68  1  6  0  0  0
 28 29  1  0  0  0  0
 28 69  1  0  0  0  0
 28 70  1  0  0  0  0
 29 30  1  0  0  0  0
 29 71  1  0  0  0  0
 29 72  1  0  0  0  0
 30 31  1  6  0  0  0
 30 12  1  0  0  0  0
 30 15  1  0  0  0  0
 31 73  1  0  0  0  0
 31 74  1  0  0  0  0
 31 75  1  0  0  0  0
M  END
>  <IDENTIFIER>
CNP0106409.0

>  <Energy>
2600.85

$$$$
