
 OpenBabel09132505093D

 94 99  0  0  0  0  0  0  0  0999 V2000
    4.3521   -0.2084   -2.1242 C   0  0  0  0  0  0  0  0  0  0  0  0
    3.3856    0.4507   -1.1407 C   0  0  2  0  0  0  0  0  0  0  0  0
    2.4905    1.2734   -1.8844 O   0  0  0  0  0  0  0  0  0  0  0  0
    1.4730    1.8239   -1.0576 C   0  0  1  0  0  0  0  0  0  0  0  0
    0.6542    0.7833   -0.5336 O   0  0  0  0  0  0  0  0  0  0  0  0
   -0.6351    0.8387   -1.1106 C   0  0  0  0  0  0  0  0  0  0  0  0
   -1.4095   -0.4543   -0.8478 C   0  0  1  0  0  0  0  0  0  0  0  0
   -2.7097   -0.2837   -1.3833 O   0  0  0  0  0  0  0  0  0  0  0  0
   -3.5579   -1.3617   -1.0269 C   0  0  1  0  0  0  0  0  0  0  0  0
   -4.8591   -1.0630   -1.4031 O   0  0  0  0  0  0  0  0  0  0  0  0
   -5.5429   -0.0638   -0.7895 C   0  0  0  0  0  0  0  0  0  0  0  0
   -6.4840   -0.3496    0.2314 C   0  0  0  0  0  0  0  0  0  0  0  0
   -6.8843   -1.7341    0.6461 C   0  0  0  0  0  0  0  0  0  0  0  0
   -6.7063   -2.8710   -0.1712 C   0  0  0  0  0  0  0  0  0  0  0  0
   -7.0973   -4.1371    0.2659 C   0  0  0  0  0  0  0  0  0  0  0  0
   -7.6798   -4.3044    1.5264 C   0  0  0  0  0  0  0  0  0  0  0  0
   -8.0518   -5.5316    1.9465 O   0  0  0  0  0  0  0  0  0  0  0  0
   -7.8809   -3.1845    2.3493 C   0  0  0  0  0  0  0  0  0  0  0  0
   -8.4431   -3.3058    3.5703 O   0  0  0  0  0  0  0  0  0  0  0  0
   -7.4922   -1.9148    1.9051 C   0  0  0  0  0  0  0  0  0  0  0  0
   -7.0381    0.6625    0.8968 O   0  0  0  0  0  0  0  0  0  0  0  0
   -6.7897    1.9417    0.6472 C   0  0  0  0  0  0  0  0  0  0  0  0
   -7.4218    2.9189    1.4218 C   0  0  0  0  0  0  0  0  0  0  0  0
   -7.1777    4.2767    1.1858 C   0  0  0  0  0  0  0  0  0  0  0  0
   -7.7768    5.2251    1.9344 O   0  0  0  0  0  0  0  0  0  0  0  0
   -6.3027    4.6562    0.1662 C   0  0  0  0  0  0  0  0  0  0  0  0
   -5.6580    3.6906   -0.6228 C   0  0  0  0  0  0  0  0  0  0  0  0
   -4.8101    4.0854   -1.5969 O   0  0  0  0  0  0  0  0  0  0  0  0
   -5.8981    2.3132   -0.3817 C   0  0  0  0  0  0  0  0  0  0  0  0
   -5.2721    1.2812   -1.1079 C   0  0  0  0  0  0  0  0  0  0  0  0
   -4.4854    1.5426   -2.0019 O   0  0  0  0  0  0  0  0  0  0  0  0
   -3.0676   -2.6587   -1.7100 C   0  0  2  0  0  0  0  0  0  0  0  0
   -3.8959   -3.7513   -1.4016 O   0  0  0  0  0  0  0  0  0  0  0  0
   -1.6130   -2.9297   -1.2511 C   0  0  1  0  0  0  0  0  0  0  0  0
   -1.0751   -4.0804   -1.8529 O   0  0  0  0  0  0  0  0  0  0  0  0
   -0.7246   -1.6905   -1.4968 C   0  0  1  0  0  0  0  0  0  0  0  0
   -0.4864   -1.4999   -2.8735 O   0  0  0  0  0  0  0  0  0  0  0  0
    2.0638    2.7013    0.0757 C   0  0  2  0  0  0  0  0  0  0  0  0
    2.6390    3.8838   -0.4394 O   0  0  0  0  0  0  0  0  0  0  0  0
    3.1030    1.8948    0.8742 C   0  0  2  0  0  0  0  0  0  0  0  0
    3.6997    2.6829    1.8749 O   0  0  0  0  0  0  0  0  0  0  0  0
    4.1446    1.2984   -0.0910 C   0  0  1  0  0  0  0  0  0  0  0  0
    5.0676    0.4975    0.6439 O   0  0  0  0  0  0  0  0  0  0  0  0
    6.4238    0.9141    0.4924 C   0  0  2  0  0  0  0  0  0  0  0  0
    7.1056   -0.1228   -0.2238 O   0  0  0  0  0  0  0  0  0  0  0  0
    8.4798   -0.1715    0.0921 C   0  0  2  0  0  0  0  0  0  0  0  0
    9.2066   -1.0648   -0.9200 C   0  0  0  0  0  0  0  0  0  0  0  0
   10.5889   -1.0725   -0.6857 O   0  0  0  0  0  0  0  0  0  0  0  0
    8.6755   -0.6679    1.5585 C   0  0  1  0  0  0  0  0  0  0  0  0
    9.9646   -0.3306    2.0124 O   0  0  0  0  0  0  0  0  0  0  0  0
    7.5620   -0.0998    2.5005 C   0  0  2  0  0  0  0  0  0  0  0  0
    6.5045   -1.0186    2.6746 O   0  0  0  0  0  0  0  0  0  0  0  0
    7.0092    1.2103    1.9180 C   0  0  1  0  0  0  0  0  0  0  0  0
    8.0525    2.1504    1.8453 O   0  0  0  0  0  0  0  0  0  0  0  0
    3.7795   -0.7992   -2.8698 H   0  0  0  0  0  0  0  0  0  0  0  0
    5.0342   -0.9037   -1.5920 H   0  0  0  0  0  0  0  0  0  0  0  0
    4.9513    0.5600   -2.6565 H   0  0  0  0  0  0  0  0  0  0  0  0
    2.8339   -0.3809   -0.6435 H   0  0  0  0  0  0  0  0  0  0  0  0
    0.8930    2.5478   -1.6827 H   0  0  0  0  0  0  0  0  0  0  0  0
   -0.5880    0.9792   -2.2168 H   0  0  0  0  0  0  0  0  0  0  0  0
   -1.1996    1.6844   -0.6566 H   0  0  0  0  0  0  0  0  0  0  0  0
   -1.4677   -0.5828    0.2588 H   0  0  0  0  0  0  0  0  0  0  0  0
   -3.5562   -1.5140    0.0801 H   0  0  0  0  0  0  0  0  0  0  0  0
   -6.2921   -2.8109   -1.1610 H   0  0  0  0  0  0  0  0  0  0  0  0
   -6.9494   -4.9915   -0.3834 H   0  0  0  0  0  0  0  0  0  0  0  0
   -7.9262   -6.3223    1.4024 H   0  0  0  0  0  0  0  0  0  0  0  0
   -8.7260   -4.1568    3.9331 H   0  0  0  0  0  0  0  0  0  0  0  0
   -7.6553   -1.0689    2.5619 H   0  0  0  0  0  0  0  0  0  0  0  0
   -8.1003    2.6201    2.2113 H   0  0  0  0  0  0  0  0  0  0  0  0
   -8.3826    5.0043    2.6561 H   0  0  0  0  0  0  0  0  0  0  0  0
   -6.1179    5.7096   -0.0103 H   0  0  0  0  0  0  0  0  0  0  0  0
   -4.6277    5.0194   -1.7773 H   0  0  0  0  0  0  0  0  0  0  0  0
   -3.0985   -2.5103   -2.8106 H   0  0  0  0  0  0  0  0  0  0  0  0
   -3.8973   -3.8609   -0.4147 H   0  0  0  0  0  0  0  0  0  0  0  0
   -1.6383   -3.1062   -0.1520 H   0  0  0  0  0  0  0  0  0  0  0  0
   -1.1569   -3.9728   -2.8356 H   0  0  0  0  0  0  0  0  0  0  0  0
    0.2630   -1.8549   -1.0135 H   0  0  0  0  0  0  0  0  0  0  0  0
   -1.3200   -1.1772   -3.3013 H   0  0  0  0  0  0  0  0  0  0  0  0
    1.2355    3.0173    0.7467 H   0  0  0  0  0  0  0  0  0  0  0  0
    3.1046    3.6828   -1.2907 H   0  0  0  0  0  0  0  0  0  0  0  0
    2.5835    1.0495    1.3792 H   0  0  0  0  0  0  0  0  0  0  0  0
    4.2869    3.3484    1.4300 H   0  0  0  0  0  0  0  0  0  0  0  0
    4.6168    2.1371   -0.6465 H   0  0  0  0  0  0  0  0  0  0  0  0
    6.5304    1.8601   -0.0821 H   0  0  0  0  0  0  0  0  0  0  0  0
    8.8981    0.8530   -0.0414 H   0  0  0  0  0  0  0  0  0  0  0  0
    8.9991   -0.7157   -1.9579 H   0  0  0  0  0  0  0  0  0  0  0  0
    8.8243   -2.1055   -0.8496 H   0  0  0  0  0  0  0  0  0  0  0  0
   10.9437   -0.2246   -1.0618 H   0  0  0  0  0  0  0  0  0  0  0  0
    8.6017   -1.7760    1.6181 H   0  0  0  0  0  0  0  0  0  0  0  0
   10.0367    0.6581    2.0299 H   0  0  0  0  0  0  0  0  0  0  0  0
    7.9960    0.0572    3.5121 H   0  0  0  0  0  0  0  0  0  0  0  0
    6.3292   -1.4856    1.8172 H   0  0  0  0  0  0  0  0  0  0  0  0
    6.2214    1.6317    2.5848 H   0  0  0  0  0  0  0  0  0  0  0  0
    7.6365    3.0281    1.6385 H   0  0  0  0  0  0  0  0  0  0  0  0
  1 55  1  0  0  0  0
  1 56  1  0  0  0  0
  1 57  1  0  0  0  0
  2  1  1  0  0  0  0
  2  3  1  0  0  0  0
  2 58  1  1  0  0  0
  3  4  1  0  0  0  0
  4  5  1  0  0  0  0
  4 38  1  0  0  0  0
  4 59  1  6  0  0  0
  5  6  1  0  0  0  0
  6 60  1  0  0  0  0
  6 61  1  0  0  0  0
  7  6  1  0  0  0  0
  7  8  1  0  0  0  0
  7 62  1  1  0  0  0
  8  9  1  0  0  0  0
  9 10  1  0  0  0  0
  9 32  1  0  0  0  0
  9 63  1  1  0  0  0
 10 11  1  0  0  0  0
 11 12  2  0  0  0  0
 12 13  1  0  0  0  0
 12 21  1  0  0  0  0
 13 14  2  0  0  0  0
 14 15  1  0  0  0  0
 14 64  1  0  0  0  0
 15 16  2  0  0  0  0
 15 65  1  0  0  0  0
 16 17  1  0  0  0  0
 16 18  1  0  0  0  0
 17 66  1  0  0  0  0
 18 19  1  0  0  0  0
 18 20  2  0  0  0  0
 19 67  1  0  0  0  0
 20 13  1  0  0  0  0
 20 68  1  0  0  0  0
 21 22  1  0  0  0  0
 22 23  2  0  0  0  0
 23 24  1  0  0  0  0
 23 69  1  0  0  0  0
 24 25  1  0  0  0  0
 24 26  2  0  0  0  0
 25 70  1  0  0  0  0
 26 27  1  0  0  0  0
 26 71  1  0  0  0  0
 27 28  1  0  0  0  0
 27 29  2  0  0  0  0
 28 72  1  0  0  0  0
 29 30  1  0  0  0  0
 29 22  1  0  0  0  0
 30 31  2  0  0  0  0
 30 11  1  0  0  0  0
 32 33  1  0  0  0  0
 32 34  1  0  0  0  0
 32 73  1  6  0  0  0
 33 74  1  0  0  0  0
 34 35  1  0  0  0  0
 34 36  1  0  0  0  0
 34 75  1  1  0  0  0
 35 76  1  0  0  0  0
 36 37  1  0  0  0  0
 36  7  1  0  0  0  0
 36 77  1  1  0  0  0
 37 78  1  0  0  0  0
 38 39  1  0  0  0  0
 38 40  1  0  0  0  0
 38 79  1  1  0  0  0
 39 80  1  0  0  0  0
 40 41  1  0  0  0  0
 40 42  1  0  0  0  0
 40 81  1  1  0  0  0
 41 82  1  0  0  0  0
 42 43  1  0  0  0  0
 42  2  1  0  0  0  0
 42 83  1  6  0  0  0
 44 43  1  0  0  0  0
 44 45  1  0  0  0  0
 44 84  1  6  0  0  0
 45 46  1  0  0  0  0
 46 47  1  0  0  0  0
 46 49  1  0  0  0  0
 46 85  1  6  0  0  0
 47 48  1  0  0  0  0
 47 86  1  0  0  0  0
 47 87  1  0  0  0  0
 48 88  1  0  0  0  0
 49 50  1  0  0  0  0
 49 51  1  0  0  0  0
 49 89  1  1  0  0  0
 50 90  1  0  0  0  0
 51 52  1  0  0  0  0
 51 53  1  0  0  0  0
 51 91  1  1  0  0  0
 52 92  1  0  0  0  0
 53 54  1  0  0  0  0
 53 44  1  0  0  0  0
 53 93  1  1  0  0  0
 54 94  1  0  0  0  0
M  END
>  <IDENTIFIER>
CNP0151008.2

>  <Energy>
1051.88

$$$$
