
 OpenBabel09082503123D

 59 62  0  0  0  0  0  0  0  0999 V2000
   -3.5398    6.5693    0.2766 C   0  0  0  0  0  0  0  0  0  0  0  0
   -2.4330    5.8924   -0.1932 O   0  0  0  0  0  0  0  0  0  0  0  0
   -2.2338    4.5507   -0.1164 C   0  0  0  0  0  0  0  0  0  0  0  0
   -3.1859    3.6723    0.4303 C   0  0  0  0  0  0  0  0  0  0  0  0
   -2.9282    2.3008    0.4902 C   0  0  0  0  0  0  0  0  0  0  0  0
   -1.7093    1.7665    0.0245 C   0  0  0  0  0  0  0  0  0  0  0  0
   -1.4898    0.2878    0.1311 C   0  0  0  0  0  0  0  0  0  0  0  0
   -0.2189   -0.3399    0.1628 C   0  0  0  0  0  0  0  0  0  0  0  0
    0.9042    0.4437    0.1605 O   0  0  0  0  0  0  0  0  0  0  0  0
    2.0768    0.2837    0.8968 C   0  0  1  0  0  0  0  0  0  0  0  0
    2.8333   -0.8649    0.4928 O   0  0  0  0  0  0  0  0  0  0  0  0
    3.8628   -0.6717   -0.4845 C   0  0  2  0  0  0  0  0  0  0  0  0
    5.2427   -0.7705    0.2027 C   0  0  0  0  0  0  0  0  0  0  0  0
    6.2856   -0.7814   -0.7327 O   0  0  0  0  0  0  0  0  0  0  0  0
    3.6089    0.5814   -1.3653 C   0  0  2  0  0  0  0  0  0  0  0  0
    4.4730    0.7039   -2.4678 O   0  0  0  0  0  0  0  0  0  0  0  0
    3.4510    1.8907   -0.5513 C   0  0  2  0  0  0  0  0  0  0  0  0
    4.6261    2.6610   -0.4768 O   0  0  0  0  0  0  0  0  0  0  0  0
    2.9282    1.5737    0.8690 C   0  0  1  0  0  0  0  0  0  0  0  0
    2.2825    2.6778    1.4492 O   0  0  0  0  0  0  0  0  0  0  0  0
   -0.1813   -1.7576    0.2485 C   0  0  0  0  0  0  0  0  0  0  0  0
    0.8873   -2.3265    0.2513 O   0  0  0  0  0  0  0  0  0  0  0  0
   -1.3830   -2.5090    0.3251 C   0  0  0  0  0  0  0  0  0  0  0  0
   -1.4608   -3.9411    0.4030 C   0  0  0  0  0  0  0  0  0  0  0  0
   -0.3851   -4.7653    0.3866 O   0  0  0  0  0  0  0  0  0  0  0  0
   -2.7197   -4.5658    0.5043 C   0  0  0  0  0  0  0  0  0  0  0  0
   -2.7971   -5.9140    0.5783 O   0  0  0  0  0  0  0  0  0  0  0  0
   -2.8004   -6.7061   -0.5495 C   0  0  0  0  0  0  0  0  0  0  0  0
   -3.8957   -3.8032    0.5355 C   0  0  0  0  0  0  0  0  0  0  0  0
   -5.1086   -4.3863    0.6453 O   0  0  0  0  0  0  0  0  0  0  0  0
   -3.8215   -2.4182    0.4461 C   0  0  0  0  0  0  0  0  0  0  0  0
   -2.5890   -1.7739    0.3374 C   0  0  0  0  0  0  0  0  0  0  0  0
   -2.5846   -0.4553    0.2436 O   0  0  0  0  0  0  0  0  0  0  0  0
   -0.7704    2.6555   -0.5378 C   0  0  0  0  0  0  0  0  0  0  0  0
   -1.0337    4.0272   -0.6049 C   0  0  0  0  0  0  0  0  0  0  0  0
   -3.4151    7.6529    0.0746 H   0  0  0  0  0  0  0  0  0  0  0  0
   -3.6399    6.4235    1.3736 H   0  0  0  0  0  0  0  0  0  0  0  0
   -4.4569    6.2154   -0.2404 H   0  0  0  0  0  0  0  0  0  0  0  0
   -4.1289    4.0376    0.8145 H   0  0  0  0  0  0  0  0  0  0  0  0
   -3.6845    1.6584    0.9241 H   0  0  0  0  0  0  0  0  0  0  0  0
    1.7937    0.1371    1.9623 H   0  0  0  0  0  0  0  0  0  0  0  0
    3.8002   -1.5423   -1.1738 H   0  0  0  0  0  0  0  0  0  0  0  0
    5.2823   -1.7041    0.8112 H   0  0  0  0  0  0  0  0  0  0  0  0
    5.4207    0.0492    0.9199 H   0  0  0  0  0  0  0  0  0  0  0  0
    6.3434   -1.7075   -1.0857 H   0  0  0  0  0  0  0  0  0  0  0  0
    2.6016    0.3718   -1.7916 H   0  0  0  0  0  0  0  0  0  0  0  0
    5.3633    0.9774   -2.1336 H   0  0  0  0  0  0  0  0  0  0  0  0
    2.7097    2.4931   -1.1214 H   0  0  0  0  0  0  0  0  0  0  0  0
    5.3322    2.1074   -0.0570 H   0  0  0  0  0  0  0  0  0  0  0  0
    3.7909    1.3417    1.5232 H   0  0  0  0  0  0  0  0  0  0  0  0
    1.5161    2.9155    0.8708 H   0  0  0  0  0  0  0  0  0  0  0  0
    0.5406   -4.5225    0.2968 H   0  0  0  0  0  0  0  0  0  0  0  0
   -2.8613   -7.7715   -0.2469 H   0  0  0  0  0  0  0  0  0  0  0  0
   -1.8705   -6.5511   -1.1371 H   0  0  0  0  0  0  0  0  0  0  0  0
   -3.6820   -6.4639   -1.1813 H   0  0  0  0  0  0  0  0  0  0  0  0
   -5.2262   -5.3437    0.7190 H   0  0  0  0  0  0  0  0  0  0  0  0
   -4.7329   -1.8325    0.4613 H   0  0  0  0  0  0  0  0  0  0  0  0
    0.1619    2.3139   -0.9543 H   0  0  0  0  0  0  0  0  0  0  0  0
   -0.2965    4.6892   -1.0421 H   0  0  0  0  0  0  0  0  0  0  0  0
  1  2  1  0  0  0  0
  1 36  1  0  0  0  0
  1 37  1  0  0  0  0
  1 38  1  0  0  0  0
  2  3  1  0  0  0  0
  3  4  2  0  0  0  0
  4  5  1  0  0  0  0
  4 39  1  0  0  0  0
  5  6  2  0  0  0  0
  5 40  1  0  0  0  0
  6  7  1  0  0  0  0
  6 34  1  0  0  0  0
  7  8  2  0  0  0  0
  8  9  1  0  0  0  0
  8 21  1  0  0  0  0
 10  9  1  0  0  0  0
 10 11  1  0  0  0  0
 10 41  1  1  0  0  0
 11 12  1  0  0  0  0
 12 13  1  0  0  0  0
 12 15  1  0  0  0  0
 12 42  1  6  0  0  0
 13 14  1  0  0  0  0
 13 43  1  0  0  0  0
 13 44  1  0  0  0  0
 14 45  1  0  0  0  0
 15 16  1  0  0  0  0
 15 17  1  0  0  0  0
 15 46  1  6  0  0  0
 16 47  1  0  0  0  0
 17 18  1  0  0  0  0
 17 19  1  0  0  0  0
 17 48  1  6  0  0  0
 18 49  1  0  0  0  0
 19 20  1  0  0  0  0
 19 10  1  0  0  0  0
 19 50  1  1  0  0  0
 20 51  1  0  0  0  0
 21 22  2  0  0  0  0
 21 23  1  0  0  0  0
 23 24  2  0  0  0  0
 24 25  1  0  0  0  0
 24 26  1  0  0  0  0
 25 52  1  0  0  0  0
 26 27  1  0  0  0  0
 26 29  2  0  0  0  0
 27 28  1  0  0  0  0
 28 53  1  0  0  0  0
 28 54  1  0  0  0  0
 28 55  1  0  0  0  0
 29 30  1  0  0  0  0
 29 31  1  0  0  0  0
 30 56  1  0  0  0  0
 31 32  2  0  0  0  0
 31 57  1  0  0  0  0
 32 33  1  0  0  0  0
 32 23  1  0  0  0  0
 33  7  1  0  0  0  0
 34 35  2  0  0  0  0
 34 58  1  0  0  0  0
 35  3  1  0  0  0  0
 35 59  1  0  0  0  0
M  END
>  <IDENTIFIER>
CNP0312893.6

>  <Energy>
728.362

$$$$
