
 OpenBabel09122501423D

 80 85  0  0  0  0  0  0  0  0999 V2000
    2.0916   -0.2319    1.4181 O   0  0  0  0  0  0  0  0  0  0  0  0
    1.8513    0.7291    0.7097 C   0  0  0  0  0  0  0  0  0  0  0  0
    0.9243    1.7588    1.2362 C   0  0  0  0  0  0  0  0  0  0  0  0
    0.6471    2.9153    0.6064 C   0  0  0  0  0  0  0  0  0  0  0  0
   -0.2879    3.9522    1.1523 C   0  0  0  0  0  0  0  0  0  0  0  0
   -0.0169    5.2875    0.8138 C   0  0  0  0  0  0  0  0  0  0  0  0
   -0.7932    6.3294    1.3213 C   0  0  0  0  0  0  0  0  0  0  0  0
   -1.8708    6.0623    2.1721 C   0  0  0  0  0  0  0  0  0  0  0  0
   -2.6164    7.0751    2.6627 O   0  0  0  0  0  0  0  0  0  0  0  0
   -2.1825    4.7335    2.5058 C   0  0  0  0  0  0  0  0  0  0  0  0
   -3.2397    4.4497    3.2983 O   0  0  0  0  0  0  0  0  0  0  0  0
   -1.4101    3.6759    1.9963 C   0  0  0  0  0  0  0  0  0  0  0  0
   -1.7999    2.4094    2.2965 O   0  0  0  0  0  0  0  0  0  0  0  0
   -2.0815    1.4530    1.3698 C   0  0  0  0  0  0  0  0  0  0  0  0
   -1.7691    0.1245    1.6759 C   0  0  0  0  0  0  0  0  0  0  0  0
   -1.9524   -0.8840    0.7331 C   0  0  0  0  0  0  0  0  0  0  0  0
   -2.4945   -0.5898   -0.5297 C   0  0  0  0  0  0  0  0  0  0  0  0
   -2.8648    0.7327   -0.8204 C   0  0  0  0  0  0  0  0  0  0  0  0
   -2.6534    1.7571    0.1118 C   0  0  0  0  0  0  0  0  0  0  0  0
   -2.9935    3.0256   -0.2012 O   0  0  0  0  0  0  0  0  0  0  0  0
   -2.6236   -1.6523   -1.6043 C   0  0  2  0  0  0  0  0  0  0  0  0
   -3.3687   -2.8708   -1.0896 C   0  0  0  0  0  0  0  0  0  0  0  0
   -4.7640   -2.8448   -0.9516 C   0  0  0  0  0  0  0  0  0  0  0  0
   -5.4472   -3.9462   -0.4113 C   0  0  0  0  0  0  0  0  0  0  0  0
   -6.7896   -3.9157   -0.2788 O   0  0  0  0  0  0  0  0  0  0  0  0
   -4.7262   -5.0796    0.0074 C   0  0  0  0  0  0  0  0  0  0  0  0
   -5.3495   -6.1478    0.5486 O   0  0  0  0  0  0  0  0  0  0  0  0
   -3.3342   -5.1034   -0.1173 C   0  0  0  0  0  0  0  0  0  0  0  0
   -2.6496   -4.0118   -0.6653 C   0  0  0  0  0  0  0  0  0  0  0  0
   -1.1674   -4.0164   -0.7026 C   0  0  0  0  0  0  0  0  0  0  0  0
   -0.4767   -3.0234   -1.3025 C   0  0  0  0  0  0  0  0  0  0  0  0
    1.0019   -2.9580   -1.1788 C   0  0  0  0  0  0  0  0  0  0  0  0
    1.6236   -3.9686   -0.8848 O   0  0  0  0  0  0  0  0  0  0  0  0
    1.6340   -1.7513   -1.2815 O   0  0  0  0  0  0  0  0  0  0  0  0
    3.0002   -1.5123   -1.1666 C   0  0  2  0  0  0  0  0  0  0  0  0
    3.6231   -2.1147    0.0967 C   0  0  0  0  0  0  0  0  0  0  0  0
    4.5501   -1.4484    0.8237 C   0  0  0  0  0  0  0  0  0  0  0  0
    5.1426   -2.0439    2.0512 C   0  0  0  0  0  0  0  0  0  0  0  0
    4.7847   -3.1445    2.4424 O   0  0  0  0  0  0  0  0  0  0  0  0
    6.0885   -1.3805    2.7505 O   0  0  0  0  0  0  0  0  0  0  0  0
    4.9614   -0.2127    0.4347 O   0  0  0  0  0  0  0  0  0  0  0  0
    4.7404    0.2881   -0.8345 C   0  0  2  0  0  0  0  0  0  0  0  0
    5.2595    1.7475   -0.9359 C   0  0  1  0  0  0  0  0  0  0  0  0
    5.0734    2.2468   -2.2368 O   0  0  0  0  0  0  0  0  0  0  0  0
    4.7136    2.7386    0.1144 C   0  0  0  0  0  0  0  0  0  0  0  0
    5.0609    2.3383    1.4146 O   0  0  0  0  0  0  0  0  0  0  0  0
    3.2715    0.0267   -1.2537 C   0  0  2  0  0  0  0  0  0  0  0  0
    2.3493    0.8188   -0.5581 O   0  0  0  0  0  0  0  0  0  0  0  0
   -1.2151   -2.0048   -2.1490 C   0  0  1  0  0  0  0  0  0  0  0  0
   -1.2957   -2.5427   -3.5753 C   0  0  0  0  0  0  0  0  0  0  0  0
   -0.7528   -1.9201   -4.4738 O   0  0  0  0  0  0  0  0  0  0  0  0
   -1.9467   -3.6834   -3.8899 O   0  0  0  0  0  0  0  0  0  0  0  0
    0.4800    1.5577    2.2027 H   0  0  0  0  0  0  0  0  0  0  0  0
    1.1802    3.1434   -0.3124 H   0  0  0  0  0  0  0  0  0  0  0  0
    0.8223    5.5307    0.1730 H   0  0  0  0  0  0  0  0  0  0  0  0
   -0.5494    7.3509    1.0568 H   0  0  0  0  0  0  0  0  0  0  0  0
   -2.4308    8.0019    2.4540 H   0  0  0  0  0  0  0  0  0  0  0  0
   -3.8219    5.1313    3.6623 H   0  0  0  0  0  0  0  0  0  0  0  0
   -1.3358   -0.1214    2.6368 H   0  0  0  0  0  0  0  0  0  0  0  0
   -1.6572   -1.8901    0.9905 H   0  0  0  0  0  0  0  0  0  0  0  0
   -3.2833    0.9792   -1.7897 H   0  0  0  0  0  0  0  0  0  0  0  0
   -3.3879    3.2616   -1.0533 H   0  0  0  0  0  0  0  0  0  0  0  0
   -3.1746   -1.2124   -2.4676 H   0  0  0  0  0  0  0  0  0  0  0  0
   -5.3179   -1.9652   -1.2566 H   0  0  0  0  0  0  0  0  0  0  0  0
   -7.3173   -3.1500   -0.5467 H   0  0  0  0  0  0  0  0  0  0  0  0
   -6.3072   -6.1851    0.6794 H   0  0  0  0  0  0  0  0  0  0  0  0
   -2.7843   -5.9705    0.2292 H   0  0  0  0  0  0  0  0  0  0  0  0
   -0.6425   -4.7921   -0.1513 H   0  0  0  0  0  0  0  0  0  0  0  0
    3.5129   -2.0285   -2.0077 H   0  0  0  0  0  0  0  0  0  0  0  0
    3.3655   -3.1196    0.4008 H   0  0  0  0  0  0  0  0  0  0  0  0
    6.4166   -0.5118    2.4804 H   0  0  0  0  0  0  0  0  0  0  0  0
    5.3612   -0.3073   -1.5437 H   0  0  0  0  0  0  0  0  0  0  0  0
    6.3573    1.7073   -0.7581 H   0  0  0  0  0  0  0  0  0  0  0  0
    4.1159    2.4902   -2.3331 H   0  0  0  0  0  0  0  0  0  0  0  0
    3.6188    2.8903    0.0149 H   0  0  0  0  0  0  0  0  0  0  0  0
    5.1748    3.7337   -0.0619 H   0  0  0  0  0  0  0  0  0  0  0  0
    4.2648    1.8988    1.8106 H   0  0  0  0  0  0  0  0  0  0  0  0
    3.1536    0.3174   -2.3195 H   0  0  0  0  0  0  0  0  0  0  0  0
   -0.6209   -1.0651   -2.2328 H   0  0  0  0  0  0  0  0  0  0  0  0
   -2.3991   -4.2372   -3.2409 H   0  0  0  0  0  0  0  0  0  0  0  0
  1  2  2  0  0  0  0
  2  3  1  0  0  0  0
  3  4  2  0  0  0  0
  3 53  1  0  0  0  0
  4  5  1  0  0  0  0
  4 54  1  0  0  0  0
  5  6  2  0  0  0  0
  6  7  1  0  0  0  0
  6 55  1  0  0  0  0
  7  8  2  0  0  0  0
  7 56  1  0  0  0  0
  8  9  1  0  0  0  0
  8 10  1  0  0  0  0
  9 57  1  0  0  0  0
 10 11  1  0  0  0  0
 10 12  2  0  0  0  0
 11 58  1  0  0  0  0
 12 13  1  0  0  0  0
 12  5  1  0  0  0  0
 13 14  1  0  0  0  0
 14 15  2  0  0  0  0
 15 16  1  0  0  0  0
 15 59  1  0  0  0  0
 16 17  2  0  0  0  0
 16 60  1  0  0  0  0
 17 18  1  0  0  0  0
 17 21  1  0  0  0  0
 18 19  2  0  0  0  0
 18 61  1  0  0  0  0
 19 20  1  0  0  0  0
 19 14  1  0  0  0  0
 20 62  1  0  0  0  0
 21 22  1  0  0  0  0
 21 63  1  6  0  0  0
 22 23  2  0  0  0  0
 23 24  1  0  0  0  0
 23 64  1  0  0  0  0
 24 25  1  0  0  0  0
 24 26  2  0  0  0  0
 25 65  1  0  0  0  0
 26 27  1  0  0  0  0
 26 28  1  0  0  0  0
 27 66  1  0  0  0  0
 28 29  2  0  0  0  0
 28 67  1  0  0  0  0
 29 30  1  0  0  0  0
 29 22  1  0  0  0  0
 30 31  2  0  0  0  0
 30 68  1  0  0  0  0
 31 32  1  0  0  0  0
 31 49  1  0  0  0  0
 32 33  2  0  0  0  0
 32 34  1  0  0  0  0
 34 35  1  0  0  0  0
 35 36  1  0  0  0  0
 35 69  1  6  0  0  0
 36 37  2  0  0  0  0
 36 70  1  0  0  0  0
 37 38  1  0  0  0  0
 37 41  1  0  0  0  0
 38 39  2  0  0  0  0
 38 40  1  0  0  0  0
 40 71  1  0  0  0  0
 42 41  1  0  0  0  0
 42 43  1  0  0  0  0
 42 47  1  0  0  0  0
 42 72  1  6  0  0  0
 43 44  1  0  0  0  0
 43 45  1  0  0  0  0
 43 73  1  1  0  0  0
 44 74  1  0  0  0  0
 45 46  1  0  0  0  0
 45 75  1  0  0  0  0
 45 76  1  0  0  0  0
 46 77  1  0  0  0  0
 47 48  1  0  0  0  0
 47 35  1  0  0  0  0
 47 78  1  6  0  0  0
 48  2  1  0  0  0  0
 49 50  1  0  0  0  0
 49 21  1  0  0  0  0
 49 79  1  6  0  0  0
 50 51  2  0  0  0  0
 50 52  1  0  0  0  0
 52 80  1  0  0  0  0
M  END
>  <IDENTIFIER>
CNP0107983.2

>  <Energy>
767.723

$$$$
