
 OpenBabel09072522423D

 70 74  0  0  0  0  0  0  0  0999 V2000
    1.6503   -3.5150   -2.3134 C   0  0  0  0  0  0  0  0  0  0  0  0
    1.7707   -2.4032   -1.2676 C   0  0  0  0  0  0  0  0  0  0  0  0
    0.4954   -1.5352   -1.1512 C   0  0  1  0  0  0  0  0  0  0  0  0
   -0.7316   -2.3155   -0.6221 C   0  0  0  0  0  0  0  0  0  0  0  0
   -1.9451   -1.4703   -0.6526 N   0  0  1  0  0  0  0  0  0  0  0  0
   -3.1794   -2.2617   -0.3450 C   0  0  0  0  0  0  0  0  0  0  0  0
   -4.0873   -1.5962    0.7081 C   0  0  0  0  0  0  0  0  0  0  0  0
   -4.2739   -0.1593    0.3189 C   0  0  0  0  0  0  0  0  0  0  0  0
   -5.5375    0.4308    0.2146 C   0  0  0  0  0  0  0  0  0  0  0  0
   -5.6592    1.7807   -0.1735 C   0  0  0  0  0  0  0  0  0  0  0  0
   -6.8667    2.3963   -0.2845 O   0  0  0  0  0  0  0  0  0  0  0  0
   -8.0966    1.8115   -0.0658 C   0  0  0  0  0  0  0  0  0  0  0  0
   -4.5039    2.5273   -0.4625 C   0  0  0  0  0  0  0  0  0  0  0  0
   -4.6541    3.8289   -0.8281 O   0  0  0  0  0  0  0  0  0  0  0  0
   -3.6337    4.7134   -1.1126 C   0  0  0  0  0  0  0  0  0  0  0  0
   -3.2355    1.9162   -0.3729 C   0  0  0  0  0  0  0  0  0  0  0  0
   -3.1164    0.5710    0.0216 C   0  0  0  0  0  0  0  0  0  0  0  0
   -1.8029   -0.2012    0.1156 C   0  0  2  0  0  0  0  0  0  0  0  0
   -0.5788    0.5917   -0.3946 C   0  0  0  0  0  0  0  0  0  0  0  0
    0.7171   -0.2414   -0.3118 C   0  0  1  0  0  0  0  0  0  0  0  0
    1.1247   -0.4267    1.1856 C   0  0  0  0  0  0  0  0  0  0  0  0
    2.5068   -0.9840    1.4410 C   0  0  0  0  0  0  0  0  0  0  0  0
    2.6047   -2.0703    2.1438 N   0  0  0  0  0  0  0  0  0  0  0  0
    3.8802   -2.5965    2.6066 C   0  0  0  0  0  0  0  0  0  0  0  0
    4.9303   -2.4436    1.5127 C   0  0  0  0  0  0  0  0  0  0  0  0
    4.9729   -0.9987    1.0904 C   0  0  0  0  0  0  0  0  0  0  0  0
    6.1831   -0.3745    0.7646 C   0  0  0  0  0  0  0  0  0  0  0  0
    6.1937    0.9509    0.3083 C   0  0  0  0  0  0  0  0  0  0  0  0
    7.3588    1.5490   -0.0174 O   0  0  0  0  0  0  0  0  0  0  0  0
    4.9906    1.6614    0.1759 C   0  0  0  0  0  0  0  0  0  0  0  0
    5.0422    2.9358   -0.2952 O   0  0  0  0  0  0  0  0  0  0  0  0
    3.9549    3.7398   -0.5706 C   0  0  0  0  0  0  0  0  0  0  0  0
    3.7756    1.0390    0.5316 C   0  0  0  0  0  0  0  0  0  0  0  0
    3.7605   -0.2870    0.9973 C   0  0  0  0  0  0  0  0  0  0  0  0
    2.6184   -4.0530   -2.3912 H   0  0  0  0  0  0  0  0  0  0  0  0
    1.4078   -3.0838   -3.3084 H   0  0  0  0  0  0  0  0  0  0  0  0
    0.8754   -4.2564   -2.0354 H   0  0  0  0  0  0  0  0  0  0  0  0
    2.6109   -1.7490   -1.5886 H   0  0  0  0  0  0  0  0  0  0  0  0
    2.0260   -2.8653   -0.2955 H   0  0  0  0  0  0  0  0  0  0  0  0
    0.2542   -1.1988   -2.1862 H   0  0  0  0  0  0  0  0  0  0  0  0
   -0.5460   -2.6923    0.4070 H   0  0  0  0  0  0  0  0  0  0  0  0
   -0.9087   -3.1931   -1.2772 H   0  0  0  0  0  0  0  0  0  0  0  0
   -2.9468   -3.2929    0.0049 H   0  0  0  0  0  0  0  0  0  0  0  0
   -3.7536   -2.3583   -1.2913 H   0  0  0  0  0  0  0  0  0  0  0  0
   -3.5681   -1.6285    1.6904 H   0  0  0  0  0  0  0  0  0  0  0  0
   -5.0499   -2.1406    0.8197 H   0  0  0  0  0  0  0  0  0  0  0  0
   -6.4140   -0.1627    0.4382 H   0  0  0  0  0  0  0  0  0  0  0  0
   -8.8914    2.5657   -0.2387 H   0  0  0  0  0  0  0  0  0  0  0  0
   -8.1707    1.4521    0.9825 H   0  0  0  0  0  0  0  0  0  0  0  0
   -8.2501    0.9677   -0.7720 H   0  0  0  0  0  0  0  0  0  0  0  0
   -4.0702    5.6993   -1.3725 H   0  0  0  0  0  0  0  0  0  0  0  0
   -3.0386    4.3505   -1.9774 H   0  0  0  0  0  0  0  0  0  0  0  0
   -2.9786    4.8403   -0.2240 H   0  0  0  0  0  0  0  0  0  0  0  0
   -2.3544    2.4910   -0.6093 H   0  0  0  0  0  0  0  0  0  0  0  0
   -1.6536   -0.4439    1.1886 H   0  0  0  0  0  0  0  0  0  0  0  0
   -0.4483    1.5333    0.1823 H   0  0  0  0  0  0  0  0  0  0  0  0
   -0.7572    0.8631   -1.4594 H   0  0  0  0  0  0  0  0  0  0  0  0
    1.5055    0.3576   -0.8102 H   0  0  0  0  0  0  0  0  0  0  0  0
    0.3824   -1.0605    1.7095 H   0  0  0  0  0  0  0  0  0  0  0  0
    1.1034    0.5660    1.6841 H   0  0  0  0  0  0  0  0  0  0  0  0
    3.7629   -3.6591    2.9056 H   0  0  0  0  0  0  0  0  0  0  0  0
    4.2059   -2.0161    3.4978 H   0  0  0  0  0  0  0  0  0  0  0  0
    4.5879   -3.0470    0.6443 H   0  0  0  0  0  0  0  0  0  0  0  0
    5.9266   -2.8199    1.8313 H   0  0  0  0  0  0  0  0  0  0  0  0
    7.1133   -0.9231    0.8449 H   0  0  0  0  0  0  0  0  0  0  0  0
    8.2108    1.0973    0.0633 H   0  0  0  0  0  0  0  0  0  0  0  0
    4.3139    4.7153   -0.9576 H   0  0  0  0  0  0  0  0  0  0  0  0
    3.3624    3.9200    0.3511 H   0  0  0  0  0  0  0  0  0  0  0  0
    3.3178    3.2650   -1.3478 H   0  0  0  0  0  0  0  0  0  0  0  0
    2.8541    1.5938    0.4625 H   0  0  0  0  0  0  0  0  0  0  0  0
  1  2  1  0  0  0  0
  1 35  1  0  0  0  0
  1 36  1  0  0  0  0
  1 37  1  0  0  0  0
  2 38  1  0  0  0  0
  2 39  1  0  0  0  0
  3  2  1  0  0  0  0
  3  4  1  0  0  0  0
  3 40  1  6  0  0  0
  4 41  1  0  0  0  0
  4 42  1  0  0  0  0
  5  4  1  1  0  0  0
  5  6  1  0  0  0  0
  6  7  1  0  0  0  0
  6 43  1  0  0  0  0
  6 44  1  0  0  0  0
  7  8  1  0  0  0  0
  7 45  1  0  0  0  0
  7 46  1  0  0  0  0
  8  9  2  0  0  0  0
  9 10  1  0  0  0  0
  9 47  1  0  0  0  0
 10 11  1  0  0  0  0
 10 13  2  0  0  0  0
 11 12  1  0  0  0  0
 12 48  1  0  0  0  0
 12 49  1  0  0  0  0
 12 50  1  0  0  0  0
 13 14  1  0  0  0  0
 13 16  1  0  0  0  0
 14 15  1  0  0  0  0
 15 51  1  0  0  0  0
 15 52  1  0  0  0  0
 15 53  1  0  0  0  0
 16 17  2  0  0  0  0
 16 54  1  0  0  0  0
 17 18  1  0  0  0  0
 17  8  1  0  0  0  0
 18 19  1  0  0  0  0
 18  5  1  0  0  0  0
 18 55  1  1  0  0  0
 19 20  1  0  0  0  0
 19 56  1  0  0  0  0
 19 57  1  0  0  0  0
 20 21  1  0  0  0  0
 20  3  1  0  0  0  0
 20 58  1  6  0  0  0
 21 22  1  0  0  0  0
 21 59  1  0  0  0  0
 21 60  1  0  0  0  0
 22 23  2  0  0  0  0
 23 24  1  0  0  0  0
 24 25  1  0  0  0  0
 24 61  1  0  0  0  0
 24 62  1  0  0  0  0
 25 26  1  0  0  0  0
 25 63  1  0  0  0  0
 25 64  1  0  0  0  0
 26 27  2  0  0  0  0
 27 28  1  0  0  0  0
 27 65  1  0  0  0  0
 28 29  1  0  0  0  0
 28 30  2  0  0  0  0
 29 66  1  0  0  0  0
 30 31  1  0  0  0  0
 30 33  1  0  0  0  0
 31 32  1  0  0  0  0
 32 67  1  0  0  0  0
 32 68  1  0  0  0  0
 32 69  1  0  0  0  0
 33 34  2  0  0  0  0
 33 70  1  0  0  0  0
 34 22  1  0  0  0  0
 34 26  1  0  0  0  0
M  END
>  <IDENTIFIER>
CNP0182185.2

>  <Energy>
471.384

$$$$
