
 OpenBabel09132506283D

 53 56  0  0  0  0  0  0  0  0999 V2000
    4.9092   -1.5333    0.4568 C   0  0  0  0  0  0  0  0  0  0  0  0
    3.6330   -1.0616   -0.2530 C   0  0  1  0  0  0  0  0  0  0  0  0
    2.6403   -0.7810    0.7498 O   0  0  0  0  0  0  0  0  0  0  0  0
    1.6263    0.0490    0.2233 C   0  0  1  0  0  0  0  0  0  0  0  0
    0.4995    0.0417    1.0344 O   0  0  0  0  0  0  0  0  0  0  0  0
   -0.6234   -0.6444    0.7017 C   0  0  0  0  0  0  0  0  0  0  0  0
   -1.8087    0.0062    0.2657 C   0  0  0  0  0  0  0  0  0  0  0  0
   -1.9832    1.4923    0.1591 C   0  0  0  0  0  0  0  0  0  0  0  0
   -3.0348    1.9905   -0.6367 C   0  0  0  0  0  0  0  0  0  0  0  0
   -3.2402    3.3686   -0.7931 C   0  0  0  0  0  0  0  0  0  0  0  0
   -4.2451    3.8203   -1.5731 O   0  0  0  0  0  0  0  0  0  0  0  0
   -2.3953    4.2803   -0.1395 C   0  0  0  0  0  0  0  0  0  0  0  0
   -2.5729    5.6124   -0.2797 O   0  0  0  0  0  0  0  0  0  0  0  0
   -1.3557    3.8006    0.6738 C   0  0  0  0  0  0  0  0  0  0  0  0
   -0.5321    4.6478    1.3276 O   0  0  0  0  0  0  0  0  0  0  0  0
   -1.1590    2.4232    0.8199 C   0  0  0  0  0  0  0  0  0  0  0  0
   -2.8418   -0.7408   -0.1204 O   0  0  0  0  0  0  0  0  0  0  0  0
   -2.8546   -2.0670   -0.0998 C   0  0  0  0  0  0  0  0  0  0  0  0
   -4.0032   -2.7409   -0.5250 C   0  0  0  0  0  0  0  0  0  0  0  0
   -4.0481   -4.1397   -0.5137 C   0  0  0  0  0  0  0  0  0  0  0  0
   -5.1511   -4.7976   -0.9253 O   0  0  0  0  0  0  0  0  0  0  0  0
   -2.9391   -4.8653   -0.0729 C   0  0  0  0  0  0  0  0  0  0  0  0
   -1.7760   -4.2060    0.3559 C   0  0  0  0  0  0  0  0  0  0  0  0
   -0.7169   -4.9319    0.7753 O   0  0  0  0  0  0  0  0  0  0  0  0
   -1.7271   -2.7893    0.3427 C   0  0  0  0  0  0  0  0  0  0  0  0
   -0.5972   -2.0506    0.7419 C   0  0  0  0  0  0  0  0  0  0  0  0
    0.4143   -2.6184    1.1205 O   0  0  0  0  0  0  0  0  0  0  0  0
    2.1766    1.4967    0.0275 C   0  0  1  0  0  0  0  0  0  0  0  0
    2.0614    2.3149    1.1693 O   0  0  0  0  0  0  0  0  0  0  0  0
    3.6614    1.4692   -0.4619 C   0  0  1  0  0  0  0  0  0  0  0  0
    4.5891    1.6094    0.5914 O   0  0  0  0  0  0  0  0  0  0  0  0
    3.9282    0.1520   -1.2183 C   0  0  2  0  0  0  0  0  0  0  0  0
    3.0725    0.0812   -2.3331 O   0  0  0  0  0  0  0  0  0  0  0  0
    4.6794   -2.4241    1.0792 H   0  0  0  0  0  0  0  0  0  0  0  0
    5.3462   -0.7605    1.1151 H   0  0  0  0  0  0  0  0  0  0  0  0
    5.6750   -1.8268   -0.2929 H   0  0  0  0  0  0  0  0  0  0  0  0
    3.3177   -1.9362   -0.8661 H   0  0  0  0  0  0  0  0  0  0  0  0
    1.3289   -0.3696   -0.7702 H   0  0  0  0  0  0  0  0  0  0  0  0
   -3.6962    1.3096   -1.1578 H   0  0  0  0  0  0  0  0  0  0  0  0
   -4.8446    3.2219   -2.0415 H   0  0  0  0  0  0  0  0  0  0  0  0
   -3.2711    5.9942   -0.8298 H   0  0  0  0  0  0  0  0  0  0  0  0
   -0.6124    5.6099    1.2659 H   0  0  0  0  0  0  0  0  0  0  0  0
   -0.3700    2.1101    1.4742 H   0  0  0  0  0  0  0  0  0  0  0  0
   -4.8615   -2.1743   -0.8653 H   0  0  0  0  0  0  0  0  0  0  0  0
   -5.9387   -4.3330   -1.2425 H   0  0  0  0  0  0  0  0  0  0  0  0
   -2.9811   -5.9479   -0.0658 H   0  0  0  0  0  0  0  0  0  0  0  0
   -0.7278   -5.8996    0.7967 H   0  0  0  0  0  0  0  0  0  0  0  0
    1.5181    1.9334   -0.7549 H   0  0  0  0  0  0  0  0  0  0  0  0
    2.1887    1.7511    1.9753 H   0  0  0  0  0  0  0  0  0  0  0  0
    3.8184    2.3530   -1.1173 H   0  0  0  0  0  0  0  0  0  0  0  0
    4.2567    1.1308    1.3915 H   0  0  0  0  0  0  0  0  0  0  0  0
    4.9733    0.0842   -1.6003 H   0  0  0  0  0  0  0  0  0  0  0  0
    3.3958    0.7517   -2.9905 H   0  0  0  0  0  0  0  0  0  0  0  0
  1 34  1  0  0  0  0
  1 35  1  0  0  0  0
  1 36  1  0  0  0  0
  2  1  1  0  0  0  0
  2  3  1  0  0  0  0
  2 37  1  6  0  0  0
  3  4  1  0  0  0  0
  4  5  1  0  0  0  0
  4 28  1  0  0  0  0
  4 38  1  6  0  0  0
  5  6  1  0  0  0  0
  6  7  2  0  0  0  0
  7  8  1  0  0  0  0
  7 17  1  0  0  0  0
  8  9  2  0  0  0  0
  9 10  1  0  0  0  0
  9 39  1  0  0  0  0
 10 11  1  0  0  0  0
 10 12  2  0  0  0  0
 11 40  1  0  0  0  0
 12 13  1  0  0  0  0
 12 14  1  0  0  0  0
 13 41  1  0  0  0  0
 14 15  1  0  0  0  0
 14 16  2  0  0  0  0
 15 42  1  0  0  0  0
 16  8  1  0  0  0  0
 16 43  1  0  0  0  0
 17 18  1  0  0  0  0
 18 19  2  0  0  0  0
 19 20  1  0  0  0  0
 19 44  1  0  0  0  0
 20 21  1  0  0  0  0
 20 22  2  0  0  0  0
 21 45  1  0  0  0  0
 22 23  1  0  0  0  0
 22 46  1  0  0  0  0
 23 24  1  0  0  0  0
 23 25  2  0  0  0  0
 24 47  1  0  0  0  0
 25 26  1  0  0  0  0
 25 18  1  0  0  0  0
 26 27  2  0  0  0  0
 26  6  1  0  0  0  0
 28 29  1  0  0  0  0
 28 30  1  0  0  0  0
 28 48  1  6  0  0  0
 29 49  1  0  0  0  0
 30 31  1  0  0  0  0
 30 32  1  0  0  0  0
 30 50  1  6  0  0  0
 31 51  1  0  0  0  0
 32 33  1  0  0  0  0
 32  2  1  0  0  0  0
 32 52  1  6  0  0  0
 33 53  1  0  0  0  0
M  END
>  <IDENTIFIER>
CNP0365444.3

>  <Energy>
622.011

$$$$
