
 OpenBabel09082522503D

 32 35  0  0  0  0  0  0  0  0999 V2000
   -2.0745    3.7882   -0.6681 O   0  0  0  0  0  0  0  0  0  0  0  0
   -1.8303    2.6124   -0.4540 C   0  0  0  0  0  0  0  0  0  0  0  0
   -2.3204    1.8562    0.6824 C   0  0  0  0  0  0  0  0  0  0  0  0
   -1.8673    0.6320    0.4905 C   0  0  0  0  0  0  0  0  0  0  0  0
   -2.2228   -0.5862    1.2462 C   0  0  0  0  0  0  0  0  0  0  0  0
   -1.9674   -1.7807    0.6674 C   0  0  0  0  0  0  0  0  0  0  0  0
   -1.3200   -1.8648   -0.7296 C   0  0  1  0  0  0  0  0  0  0  0  0
   -1.5671   -0.5756   -1.5767 C   0  0  0  0  0  0  0  0  0  0  0  0
   -0.9985    0.5718   -0.7419 C   0  0  1  0  0  0  0  0  0  0  0  0
   -1.1234    1.8320   -1.3002 O   0  0  0  0  0  0  0  0  0  0  0  0
    0.4978    0.2420   -0.4711 C   0  0  1  0  0  0  0  0  0  0  0  0
    1.2320    1.2697    0.3996 C   0  0  0  0  0  0  0  0  0  0  0  0
    2.7325    0.9063    0.4990 C   0  0  0  0  0  0  0  0  0  0  0  0
    3.0061   -0.5946    0.2538 C   0  0  0  0  0  0  0  0  0  0  0  0
    1.8702   -1.4549    0.8055 C   0  0  0  0  0  0  0  0  0  0  0  0
    0.5678   -1.0823    0.2021 N   0  0  2  0  0  0  0  0  0  0  0  0
    0.0817   -2.0732   -0.6111 O   0  0  0  0  0  0  0  0  0  0  0  0
   -2.9889    2.1880    1.4661 H   0  0  0  0  0  0  0  0  0  0  0  0
   -2.7140   -0.5292    2.2124 H   0  0  0  0  0  0  0  0  0  0  0  0
   -2.1997   -2.6962    1.2020 H   0  0  0  0  0  0  0  0  0  0  0  0
   -1.7698   -2.7176   -1.2803 H   0  0  0  0  0  0  0  0  0  0  0  0
   -2.6540   -0.4272   -1.7675 H   0  0  0  0  0  0  0  0  0  0  0  0
   -1.0496   -0.6564   -2.5578 H   0  0  0  0  0  0  0  0  0  0  0  0
    1.0098    0.2055   -1.4608 H   0  0  0  0  0  0  0  0  0  0  0  0
    0.7723    1.2017    1.4109 H   0  0  0  0  0  0  0  0  0  0  0  0
    1.1287    2.3187    0.0489 H   0  0  0  0  0  0  0  0  0  0  0  0
    3.0856    1.2331    1.5009 H   0  0  0  0  0  0  0  0  0  0  0  0
    3.3259    1.4564   -0.2635 H   0  0  0  0  0  0  0  0  0  0  0  0
    4.0001   -0.8769    0.6614 H   0  0  0  0  0  0  0  0  0  0  0  0
    3.0311   -0.7871   -0.8416 H   0  0  0  0  0  0  0  0  0  0  0  0
    1.8099   -1.2961    1.9037 H   0  0  0  0  0  0  0  0  0  0  0  0
    2.0893   -2.5322    0.6353 H   0  0  0  0  0  0  0  0  0  0  0  0
  1  2  2  0  0  0  0
  2  3  1  0  0  0  0
  3  4  2  0  0  0  0
  3 18  1  0  0  0  0
  4  5  1  0  0  0  0
  5  6  2  0  0  0  0
  5 19  1  0  0  0  0
  6  7  1  0  0  0  0
  6 20  1  0  0  0  0
  7  8  1  0  0  0  0
  7 17  1  0  0  0  0
  7 21  1  6  0  0  0
  8  9  1  0  0  0  0
  8 22  1  0  0  0  0
  8 23  1  0  0  0  0
  9 10  1  6  0  0  0
  9 11  1  0  0  0  0
  9  4  1  0  0  0  0
 10  2  1  0  0  0  0
 11 12  1  0  0  0  0
 11 24  1  6  0  0  0
 12 13  1  0  0  0  0
 12 25  1  0  0  0  0
 12 26  1  0  0  0  0
 13 14  1  0  0  0  0
 13 27  1  0  0  0  0
 13 28  1  0  0  0  0
 14 15  1  0  0  0  0
 14 29  1  0  0  0  0
 14 30  1  0  0  0  0
 15 16  1  0  0  0  0
 15 31  1  0  0  0  0
 15 32  1  0  0  0  0
 16 17  1  6  0  0  0
 16 11  1  0  0  0  0
M  END
>  <IDENTIFIER>
CNP0157466.2

>  <Energy>
458.219

$$$$
