
 OpenBabel09062519403D

 18 19  0  0  0  0  0  0  0  0999 V2000
   -1.7118    2.3578   -0.0997 O   0  0  0  0  0  0  0  0  0  0  0  0
   -1.3997    1.0448   -0.0228 C   0  0  0  0  0  0  0  0  0  0  0  0
   -2.3984    0.0582    0.0964 C   0  0  0  0  0  0  0  0  0  0  0  0
   -4.1067    0.4762    0.1518 Cl  0  0  0  0  0  0  0  0  0  0  0  0
   -2.0422   -1.2916    0.1737 C   0  0  0  0  0  0  0  0  0  0  0  0
   -0.7005   -1.6829    0.1346 C   0  0  0  0  0  0  0  0  0  0  0  0
   -0.3372   -3.4042    0.2377 Cl  0  0  0  0  0  0  0  0  0  0  0  0
    0.3097   -0.7062    0.0155 C   0  0  0  0  0  0  0  0  0  0  0  0
    1.6747   -1.0426   -0.0287 C   0  0  0  0  0  0  0  0  0  0  0  0
    2.6392   -0.0412   -0.1472 C   0  0  0  0  0  0  0  0  0  0  0  0
    2.2395    1.2925   -0.2212 C   0  0  0  0  0  0  0  0  0  0  0  0
    0.9199    1.6117   -0.1781 N   0  0  0  0  0  0  0  0  0  0  0  0
   -0.0498    0.6622   -0.0630 C   0  0  0  0  0  0  0  0  0  0  0  0
   -2.6186    2.6920   -0.0782 H   0  0  0  0  0  0  0  0  0  0  0  0
   -2.8161   -2.0438    0.2652 H   0  0  0  0  0  0  0  0  0  0  0  0
    2.0050   -2.0712    0.0274 H   0  0  0  0  0  0  0  0  0  0  0  0
    3.6902   -0.2976   -0.1814 H   0  0  0  0  0  0  0  0  0  0  0  0
    2.9796    2.0760   -0.3132 H   0  0  0  0  0  0  0  0  0  0  0  0
  1  2  1  0  0  0  0
  1 14  1  0  0  0  0
  2  3  2  0  0  0  0
  3  4  1  0  0  0  0
  3  5  1  0  0  0  0
  5  6  2  0  0  0  0
  5 15  1  0  0  0  0
  6  7  1  0  0  0  0
  6  8  1  0  0  0  0
  8  9  2  0  0  0  0
  9 10  1  0  0  0  0
  9 16  1  0  0  0  0
 10 11  2  0  0  0  0
 10 17  1  0  0  0  0
 11 12  1  0  0  0  0
 11 18  1  0  0  0  0
 12 13  2  0  0  0  0
 13  2  1  0  0  0  0
 13  8  1  0  0  0  0
M  END
>  <IDENTIFIER>
CNP0108425.0

>  <Energy>
106.745

$$$$
