
 OpenBabel09062509403D

 61 65  0  0  0  0  0  0  0  0999 V2000
    3.0076   -1.9509    0.1351 C   0  0  0  0  0  0  0  0  0  0  0  0
    2.0969   -0.6900    0.0430 C   0  0  2  0  0  0  0  0  0  0  0  0
    1.3866   -0.4581    1.4244 C   0  0  0  0  0  0  0  0  0  0  0  0
   -0.0745   -0.8908    1.4028 C   0  0  0  0  0  0  0  0  0  0  0  0
   -0.8817   -0.0106    0.3923 C   0  0  1  0  0  0  0  0  0  0  0  0
   -0.1136    0.1781   -0.9809 C   0  0  2  0  0  0  0  0  0  0  0  0
   -1.0578    0.2645   -2.2084 C   0  0  0  0  0  0  0  0  0  0  0  0
   -2.2327    1.1553   -1.8446 C   0  0  0  0  0  0  0  0  0  0  0  0
   -3.1800    0.4749   -0.8065 C   0  0  2  0  0  0  0  0  0  0  0  0
   -4.1036   -0.3439   -1.4994 O   0  0  0  0  0  0  0  0  0  0  0  0
   -3.9658    1.6008   -0.0920 C   0  0  0  0  0  0  0  0  0  0  0  0
   -5.0354    1.0388    0.8754 C   0  0  2  0  0  0  0  0  0  0  0  0
   -5.4000    2.0394    1.7941 O   0  0  0  0  0  0  0  0  0  0  0  0
   -4.5843   -0.2577    1.5939 C   0  0  0  0  0  0  0  0  0  0  0  0
   -3.0608   -0.3048    1.7025 C   0  0  0  0  0  0  0  0  0  0  0  0
   -2.3923   -0.4365    0.2706 C   0  0  2  0  0  0  0  0  0  0  0  0
   -2.4393   -1.9050   -0.1816 C   0  0  0  0  0  0  0  0  0  0  0  0
   -2.9428   -2.7770    0.5110 O   0  0  0  0  0  0  0  0  0  0  0  0
    1.0786   -0.8178   -1.1563 C   0  0  2  0  0  0  0  0  0  0  0  0
    0.5613   -2.1276   -1.2437 O   0  0  0  0  0  0  0  0  0  0  0  0
    1.9897   -0.5056   -2.3653 C   0  0  0  0  0  0  0  0  0  0  0  0
    3.0093    0.5443   -1.9047 C   0  0  0  0  0  0  0  0  0  0  0  0
    2.9262    0.5684   -0.3592 C   0  0  2  0  0  0  0  0  0  0  0  0
    4.2133    0.8399    0.4077 C   0  0  0  0  0  0  0  0  0  0  0  0
    5.4288    0.9962   -0.1096 C   0  0  0  0  0  0  0  0  0  0  0  0
    6.3032    1.2585    1.0037 C   0  0  0  0  0  0  0  0  0  0  0  0
    7.5041    1.4603    0.9233 O   0  0  0  0  0  0  0  0  0  0  0  0
    5.6268    1.2659    2.1616 O   0  0  0  0  0  0  0  0  0  0  0  0
    4.2931    1.0094    1.9104 C   0  0  0  0  0  0  0  0  0  0  0  0
    2.4019   -2.8543    0.3589 H   0  0  0  0  0  0  0  0  0  0  0  0
    3.7488   -1.8381    0.9530 H   0  0  0  0  0  0  0  0  0  0  0  0
    3.5905   -2.1374   -0.7871 H   0  0  0  0  0  0  0  0  0  0  0  0
    1.3591    0.6213    1.6887 H   0  0  0  0  0  0  0  0  0  0  0  0
    1.9352   -0.9625    2.2482 H   0  0  0  0  0  0  0  0  0  0  0  0
   -0.4945   -0.7754    2.4230 H   0  0  0  0  0  0  0  0  0  0  0  0
   -0.1169   -1.9689    1.1426 H   0  0  0  0  0  0  0  0  0  0  0  0
   -0.9199    1.0185    0.8191 H   0  0  0  0  0  0  0  0  0  0  0  0
    0.3321    1.1913   -0.9173 H   0  0  0  0  0  0  0  0  0  0  0  0
   -1.4400   -0.7125   -2.5564 H   0  0  0  0  0  0  0  0  0  0  0  0
   -0.5020    0.7164   -3.0564 H   0  0  0  0  0  0  0  0  0  0  0  0
   -2.8141    1.4486   -2.7459 H   0  0  0  0  0  0  0  0  0  0  0  0
   -1.7983    2.0948   -1.4337 H   0  0  0  0  0  0  0  0  0  0  0  0
   -4.6624    0.2307   -2.0862 H   0  0  0  0  0  0  0  0  0  0  0  0
   -4.4564    2.3035   -0.8013 H   0  0  0  0  0  0  0  0  0  0  0  0
   -3.2177    2.1908    0.4839 H   0  0  0  0  0  0  0  0  0  0  0  0
   -5.9546    0.7646    0.3135 H   0  0  0  0  0  0  0  0  0  0  0  0
   -4.6175    2.2108    2.3811 H   0  0  0  0  0  0  0  0  0  0  0  0
   -4.8943   -1.1446    1.0016 H   0  0  0  0  0  0  0  0  0  0  0  0
   -5.0899   -0.3334    2.5809 H   0  0  0  0  0  0  0  0  0  0  0  0
   -2.7423   -1.1363    2.3665 H   0  0  0  0  0  0  0  0  0  0  0  0
   -2.7487    0.6351    2.2092 H   0  0  0  0  0  0  0  0  0  0  0  0
   -2.0256   -2.2072   -1.1303 H   0  0  0  0  0  0  0  0  0  0  0  0
    0.2531   -2.2788   -2.1752 H   0  0  0  0  0  0  0  0  0  0  0  0
    1.5095   -0.3042   -3.3442 H   0  0  0  0  0  0  0  0  0  0  0  0
    2.5761   -1.4312   -2.5474 H   0  0  0  0  0  0  0  0  0  0  0  0
    2.7598    1.5604   -2.2837 H   0  0  0  0  0  0  0  0  0  0  0  0
    3.9916    0.2444   -2.3222 H   0  0  0  0  0  0  0  0  0  0  0  0
    2.2854    1.4478   -0.1418 H   0  0  0  0  0  0  0  0  0  0  0  0
    5.7193    0.9509   -1.1492 H   0  0  0  0  0  0  0  0  0  0  0  0
    3.6682    1.8651    2.2428 H   0  0  0  0  0  0  0  0  0  0  0  0
    3.9885    0.0849    2.4389 H   0  0  0  0  0  0  0  0  0  0  0  0
  1 30  1  0  0  0  0
  1 31  1  0  0  0  0
  1 32  1  0  0  0  0
  2  1  1  1  0  0  0
  2  3  1  0  0  0  0
  3  4  1  0  0  0  0
  3 33  1  0  0  0  0
  3 34  1  0  0  0  0
  4 35  1  0  0  0  0
  4 36  1  0  0  0  0
  5  4  1  0  0  0  0
  5  6  1  0  0  0  0
  5 37  1  1  0  0  0
  6  7  1  0  0  0  0
  6 19  1  0  0  0  0
  6 38  1  1  0  0  0
  7  8  1  0  0  0  0
  7 39  1  0  0  0  0
  7 40  1  0  0  0  0
  8  9  1  0  0  0  0
  8 41  1  0  0  0  0
  8 42  1  0  0  0  0
  9 10  1  6  0  0  0
  9 11  1  0  0  0  0
 10 43  1  0  0  0  0
 11 12  1  0  0  0  0
 11 44  1  0  0  0  0
 11 45  1  0  0  0  0
 12 13  1  0  0  0  0
 12 14  1  0  0  0  0
 12 46  1  6  0  0  0
 13 47  1  0  0  0  0
 14 15  1  0  0  0  0
 14 48  1  0  0  0  0
 14 49  1  0  0  0  0
 15 16  1  0  0  0  0
 15 50  1  0  0  0  0
 15 51  1  0  0  0  0
 16 17  1  6  0  0  0
 16  5  1  0  0  0  0
 16  9  1  0  0  0  0
 17 18  2  0  0  0  0
 17 52  1  0  0  0  0
 19 20  1  6  0  0  0
 19 21  1  0  0  0  0
 19  2  1  0  0  0  0
 20 53  1  0  0  0  0
 21 22  1  0  0  0  0
 21 54  1  0  0  0  0
 21 55  1  0  0  0  0
 22 23  1  0  0  0  0
 22 56  1  0  0  0  0
 22 57  1  0  0  0  0
 23 24  1  0  0  0  0
 23  2  1  0  0  0  0
 23 58  1  1  0  0  0
 24 25  2  0  0  0  0
 25 26  1  0  0  0  0
 25 59  1  0  0  0  0
 26 27  2  0  0  0  0
 26 28  1  0  0  0  0
 28 29  1  0  0  0  0
 29 24  1  0  0  0  0
 29 60  1  0  0  0  0
 29 61  1  0  0  0  0
M  END
>  <IDENTIFIER>
CNP0175379.5

>  <Energy>
1016.26

$$$$
