
 OpenBabel09122518083D

 65 69  0  0  0  0  0  0  0  0999 V2000
    1.6478   -1.0056   -1.5002 C   0  0  0  0  0  0  0  0  0  0  0  0
    1.9126    0.4824   -1.6249 C   0  0  0  0  0  0  0  0  0  0  0  0
    0.9302    1.4254   -1.6723 C   0  0  0  0  0  0  0  0  0  0  0  0
   -0.5671    1.2112   -1.5957 C   0  0  0  0  0  0  0  0  0  0  0  0
   -1.1428    1.9422   -0.3652 C   0  0  1  0  0  0  0  0  0  0  0  0
   -2.4261    1.4750   -0.0542 O   0  0  0  0  0  0  0  0  0  0  0  0
   -1.4134    1.2011    0.9038 C   0  0  1  0  0  0  0  0  0  0  0  0
   -1.2679   -0.2938    1.0213 C   0  0  0  0  0  0  0  0  0  0  0  0
   -0.3975   -0.7465    1.7520 O   0  0  0  0  0  0  0  0  0  0  0  0
   -2.1399   -1.1163    0.3762 O   0  0  0  0  0  0  0  0  0  0  0  0
   -2.2151   -2.4929    0.5335 C   0  0  0  0  0  0  0  0  0  0  0  0
   -2.0715   -3.2151   -0.8408 C   0  0  0  0  0  0  0  0  0  0  0  0
   -3.4275   -3.5485   -1.5216 C   0  0  0  0  0  0  0  0  0  0  0  0
   -4.4156   -2.4153   -1.2754 C   0  0  0  0  0  0  0  0  0  0  0  0
   -4.7251   -2.2945    0.2408 C   0  0  0  0  0  0  0  0  0  0  0  0
   -3.5774   -2.8181    1.1471 C   0  0  0  0  0  0  0  0  0  0  0  0
   -1.7264    1.9822    2.1556 C   0  0  0  0  0  0  0  0  0  0  0  0
   -1.9374    1.3799    3.1992 O   0  0  0  0  0  0  0  0  0  0  0  0
   -1.7844    3.4657    2.1297 C   0  0  0  0  0  0  0  0  0  0  0  0
   -2.1222    4.1772    3.2965 C   0  0  0  0  0  0  0  0  0  0  0  0
   -2.1798    5.5715    3.2873 C   0  0  0  0  0  0  0  0  0  0  0  0
   -1.8961    6.2737    2.1173 C   0  0  0  0  0  0  0  0  0  0  0  0
   -1.5544    5.5847    0.9516 C   0  0  0  0  0  0  0  0  0  0  0  0
   -1.4974    4.1783    0.9408 C   0  0  0  0  0  0  0  0  0  0  0  0
   -1.1386    3.4536   -0.3120 C   0  0  0  0  0  0  0  0  0  0  0  0
   -0.8563    4.0853   -1.3197 O   0  0  0  0  0  0  0  0  0  0  0  0
    3.3632    0.9511   -1.7309 C   0  0  0  0  0  0  0  0  0  0  0  0
    4.1528    0.8541   -0.4119 C   0  0  0  0  0  0  0  0  0  0  0  0
    4.4522   -0.5500    0.0471 C   0  0  0  0  0  0  0  0  0  0  0  0
    3.9177   -1.0289    1.2531 C   0  0  0  0  0  0  0  0  0  0  0  0
    4.2101   -2.3291    1.6676 C   0  0  0  0  0  0  0  0  0  0  0  0
    5.0228   -3.1178    0.9171 N   0  0  0  0  0  0  0  0  0  0  0  0
    5.5706   -2.6807   -0.2497 C   0  0  0  0  0  0  0  0  0  0  0  0
    6.4301   -3.5329   -0.9813 N   0  0  0  0  0  0  0  0  0  0  0  0
    5.2877   -1.3869   -0.7095 C   0  0  0  0  0  0  0  0  0  0  0  0
    0.5885   -1.2936   -1.4718 H   0  0  0  0  0  0  0  0  0  0  0  0
    2.0860   -1.4107   -0.5750 H   0  0  0  0  0  0  0  0  0  0  0  0
    2.1017   -1.5271   -2.3682 H   0  0  0  0  0  0  0  0  0  0  0  0
    1.2274    2.4656   -1.7660 H   0  0  0  0  0  0  0  0  0  0  0  0
   -0.8633    0.1522   -1.5724 H   0  0  0  0  0  0  0  0  0  0  0  0
   -1.0296    1.6291   -2.5144 H   0  0  0  0  0  0  0  0  0  0  0  0
   -1.3979   -2.8521    1.1975 H   0  0  0  0  0  0  0  0  0  0  0  0
   -1.5407   -4.1845   -0.7234 H   0  0  0  0  0  0  0  0  0  0  0  0
   -1.4425   -2.5749   -1.4955 H   0  0  0  0  0  0  0  0  0  0  0  0
   -3.8668   -4.4696   -1.0770 H   0  0  0  0  0  0  0  0  0  0  0  0
   -3.2612   -3.7458   -2.6019 H   0  0  0  0  0  0  0  0  0  0  0  0
   -5.3657   -2.5397   -1.8386 H   0  0  0  0  0  0  0  0  0  0  0  0
   -3.9247   -1.4872   -1.6428 H   0  0  0  0  0  0  0  0  0  0  0  0
   -5.6297   -2.8797    0.5128 H   0  0  0  0  0  0  0  0  0  0  0  0
   -4.9474   -1.2227    0.4379 H   0  0  0  0  0  0  0  0  0  0  0  0
   -3.6394   -3.9261    1.2263 H   0  0  0  0  0  0  0  0  0  0  0  0
   -3.6929   -2.4055    2.1726 H   0  0  0  0  0  0  0  0  0  0  0  0
   -2.3464    3.6560    4.2199 H   0  0  0  0  0  0  0  0  0  0  0  0
   -2.4444    6.1085    4.1893 H   0  0  0  0  0  0  0  0  0  0  0  0
   -1.9416    7.3553    2.1137 H   0  0  0  0  0  0  0  0  0  0  0  0
   -1.3405    6.1553    0.0565 H   0  0  0  0  0  0  0  0  0  0  0  0
    3.3837    2.0301   -2.0002 H   0  0  0  0  0  0  0  0  0  0  0  0
    3.8796    0.4179   -2.5581 H   0  0  0  0  0  0  0  0  0  0  0  0
    3.5832    1.4123    0.3636 H   0  0  0  0  0  0  0  0  0  0  0  0
    5.1286    1.3715   -0.5394 H   0  0  0  0  0  0  0  0  0  0  0  0
    3.2715   -0.4068    1.8596 H   0  0  0  0  0  0  0  0  0  0  0  0
    3.7912   -2.7102    2.5889 H   0  0  0  0  0  0  0  0  0  0  0  0
    6.6422   -4.4786   -0.6315 H   0  0  0  0  0  0  0  0  0  0  0  0
    6.8708   -3.2149   -1.8570 H   0  0  0  0  0  0  0  0  0  0  0  0
    5.7239   -1.0324   -1.6357 H   0  0  0  0  0  0  0  0  0  0  0  0
  1  2  1  0  0  0  0
  1 36  1  0  0  0  0
  1 37  1  0  0  0  0
  1 38  1  0  0  0  0
  2  3  2  0  0  0  0
  2 27  1  0  0  0  0
  3  4  1  0  0  0  0
  3 39  1  0  0  0  0
  4 40  1  0  0  0  0
  4 41  1  0  0  0  0
  5  4  1  6  0  0  0
  5  6  1  0  0  0  0
  6  7  1  0  0  0  0
  7  8  1  1  0  0  0
  7 17  1  0  0  0  0
  7  5  1  0  0  0  0
  8  9  2  0  0  0  0
  8 10  1  0  0  0  0
 10 11  1  0  0  0  0
 11 12  1  0  0  0  0
 11 42  1  0  0  0  0
 12 13  1  0  0  0  0
 12 43  1  0  0  0  0
 12 44  1  0  0  0  0
 13 14  1  0  0  0  0
 13 45  1  0  0  0  0
 13 46  1  0  0  0  0
 14 15  1  0  0  0  0
 14 47  1  0  0  0  0
 14 48  1  0  0  0  0
 15 16  1  0  0  0  0
 15 49  1  0  0  0  0
 15 50  1  0  0  0  0
 16 11  1  0  0  0  0
 16 51  1  0  0  0  0
 16 52  1  0  0  0  0
 17 18  2  0  0  0  0
 17 19  1  0  0  0  0
 19 20  2  0  0  0  0
 20 21  1  0  0  0  0
 20 53  1  0  0  0  0
 21 22  2  0  0  0  0
 21 54  1  0  0  0  0
 22 23  1  0  0  0  0
 22 55  1  0  0  0  0
 23 24  2  0  0  0  0
 23 56  1  0  0  0  0
 24 25  1  0  0  0  0
 24 19  1  0  0  0  0
 25 26  2  0  0  0  0
 25  5  1  0  0  0  0
 27 28  1  0  0  0  0
 27 57  1  0  0  0  0
 27 58  1  0  0  0  0
 28 29  1  0  0  0  0
 28 59  1  0  0  0  0
 28 60  1  0  0  0  0
 29 30  2  0  0  0  0
 30 31  1  0  0  0  0
 30 61  1  0  0  0  0
 31 32  2  0  0  0  0
 31 62  1  0  0  0  0
 32 33  1  0  0  0  0
 33 34  1  0  0  0  0
 33 35  2  0  0  0  0
 34 63  1  0  0  0  0
 34 64  1  0  0  0  0
 35 29  1  0  0  0  0
 35 65  1  0  0  0  0
M  END
>  <IDENTIFIER>
CNP0397462.1

>  <Energy>
1922.38

$$$$
