
 OpenBabel09112507173D

 51 54  0  0  0  0  0  0  0  0999 V2000
    5.3143   -0.8035    0.2994 C   0  0  0  0  0  0  0  0  0  0  0  0
    4.3508   -0.1947   -0.4044 C   0  0  0  0  0  0  0  0  0  0  0  0
    3.1233    0.4594    0.2354 C   0  0  2  0  0  0  0  0  0  0  0  0
    3.5948    1.5826    1.1863 C   0  0  0  0  0  0  0  0  0  0  0  0
    2.3098   -0.5815    1.0872 C   0  0  0  0  0  0  0  0  0  0  0  0
    1.4299   -1.4625    0.1940 C   0  0  0  0  0  0  0  0  0  0  0  0
    0.3366   -0.6210   -0.5754 C   0  0  2  0  0  0  0  0  0  0  0  0
    0.3117   -1.2480   -2.0177 C   0  0  0  0  0  0  0  0  0  0  0  0
    0.7389    0.9077   -0.6290 C   0  0  1  0  0  0  0  0  0  0  0  0
    2.2406    1.0782   -0.9149 C   0  0  0  0  0  0  0  0  0  0  0  0
   -0.1860    1.5850   -1.6269 C   0  0  0  0  0  0  0  0  0  0  0  0
    0.2563    2.2002   -2.5854 O   0  0  0  0  0  0  0  0  0  0  0  0
   -1.6764    1.3546   -1.5008 C   0  0  0  0  0  0  0  0  0  0  0  0
   -1.9891    0.6426   -0.1590 C   0  0  1  0  0  0  0  0  0  0  0  0
   -3.4178    0.0446   -0.0538 C   0  0  2  0  0  0  0  0  0  0  0  0
   -4.5783    0.8821   -0.6192 C   0  0  0  0  0  0  0  0  0  0  0  0
   -3.7196   -0.4021    1.4220 C   0  0  0  0  0  0  0  0  0  0  0  0
   -2.4502   -0.4932    2.2944 C   0  0  0  0  0  0  0  0  0  0  0  0
   -1.2151   -1.0812    1.5758 C   0  0  0  0  0  0  0  0  0  0  0  0
   -1.1442   -0.6879    0.0547 C   0  0  2  0  0  0  0  0  0  0  0  0
   -1.9010   -1.6401   -0.6154 O   0  0  0  0  0  0  0  0  0  0  0  0
   -3.1493   -1.2032   -0.8224 C   0  0  0  0  0  0  0  0  0  0  0  0
   -3.8853   -1.6873   -1.6691 O   0  0  0  0  0  0  0  0  0  0  0  0
    6.1577   -1.2508   -0.2168 H   0  0  0  0  0  0  0  0  0  0  0  0
    5.2788   -0.8662    1.3812 H   0  0  0  0  0  0  0  0  0  0  0  0
    4.4709   -0.1810   -1.4844 H   0  0  0  0  0  0  0  0  0  0  0  0
    4.2147    1.1763    2.0137 H   0  0  0  0  0  0  0  0  0  0  0  0
    2.7248    2.1082    1.6349 H   0  0  0  0  0  0  0  0  0  0  0  0
    4.2041    2.3306    0.6338 H   0  0  0  0  0  0  0  0  0  0  0  0
    1.6494   -0.0491    1.7978 H   0  0  0  0  0  0  0  0  0  0  0  0
    2.9908   -1.1969    1.7118 H   0  0  0  0  0  0  0  0  0  0  0  0
    0.9718   -2.3158    0.7334 H   0  0  0  0  0  0  0  0  0  0  0  0
    2.1591   -1.9248   -0.5089 H   0  0  0  0  0  0  0  0  0  0  0  0
    1.2967   -1.1866   -2.5213 H   0  0  0  0  0  0  0  0  0  0  0  0
   -0.4257   -0.7773   -2.6924 H   0  0  0  0  0  0  0  0  0  0  0  0
    0.0570   -2.3286   -1.9628 H   0  0  0  0  0  0  0  0  0  0  0  0
    0.5609    1.3817    0.3615 H   0  0  0  0  0  0  0  0  0  0  0  0
    2.5225    2.1396   -1.0917 H   0  0  0  0  0  0  0  0  0  0  0  0
    2.4201    0.5649   -1.8797 H   0  0  0  0  0  0  0  0  0  0  0  0
   -2.0149    0.7596   -2.3739 H   0  0  0  0  0  0  0  0  0  0  0  0
   -2.2145    2.3272   -1.5197 H   0  0  0  0  0  0  0  0  0  0  0  0
   -1.7702    1.4258    0.5991 H   0  0  0  0  0  0  0  0  0  0  0  0
   -4.6799    1.8263   -0.0436 H   0  0  0  0  0  0  0  0  0  0  0  0
   -5.5308    0.3146   -0.5482 H   0  0  0  0  0  0  0  0  0  0  0  0
   -4.4078    1.1344   -1.6864 H   0  0  0  0  0  0  0  0  0  0  0  0
   -4.2865   -1.3601    1.4188 H   0  0  0  0  0  0  0  0  0  0  0  0
   -4.3707    0.3409    1.9341 H   0  0  0  0  0  0  0  0  0  0  0  0
   -2.6363   -0.9650    3.2825 H   0  0  0  0  0  0  0  0  0  0  0  0
   -2.1865    0.5612    2.5301 H   0  0  0  0  0  0  0  0  0  0  0  0
   -1.1980   -2.1901    1.6552 H   0  0  0  0  0  0  0  0  0  0  0  0
   -0.3588   -0.6955    2.1542 H   0  0  0  0  0  0  0  0  0  0  0  0
  1  2  2  0  0  0  0
  1 24  1  0  0  0  0
  1 25  1  0  0  0  0
  2 26  1  0  0  0  0
  3  2  1  6  0  0  0
  3  4  1  0  0  0  0
  3  5  1  0  0  0  0
  4 27  1  0  0  0  0
  4 28  1  0  0  0  0
  4 29  1  0  0  0  0
  5  6  1  0  0  0  0
  5 30  1  0  0  0  0
  5 31  1  0  0  0  0
  6  7  1  0  0  0  0
  6 32  1  0  0  0  0
  6 33  1  0  0  0  0
  7  8  1  6  0  0  0
  7  9  1  0  0  0  0
  8 34  1  0  0  0  0
  8 35  1  0  0  0  0
  8 36  1  0  0  0  0
  9 10  1  0  0  0  0
  9 11  1  0  0  0  0
  9 37  1  1  0  0  0
 10  3  1  0  0  0  0
 10 38  1  0  0  0  0
 10 39  1  0  0  0  0
 11 12  2  0  0  0  0
 11 13  1  0  0  0  0
 13 40  1  0  0  0  0
 13 41  1  0  0  0  0
 14 13  1  0  0  0  0
 14 15  1  0  0  0  0
 14 42  1  1  0  0  0
 15 16  1  6  0  0  0
 15 17  1  0  0  0  0
 16 43  1  0  0  0  0
 16 44  1  0  0  0  0
 16 45  1  0  0  0  0
 17 18  1  0  0  0  0
 17 46  1  0  0  0  0
 17 47  1  0  0  0  0
 18 19  1  0  0  0  0
 18 48  1  0  0  0  0
 18 49  1  0  0  0  0
 19 50  1  0  0  0  0
 19 51  1  0  0  0  0
 20 19  1  0  0  0  0
 20 21  1  6  0  0  0
 20 14  1  0  0  0  0
 20  7  1  0  0  0  0
 21 22  1  0  0  0  0
 22 23  2  0  0  0  0
 22 15  1  0  0  0  0
M  END
>  <IDENTIFIER>
CNP0265411.1

>  <Energy>
818.265

$$$$
