
 OpenBabel09132507183D

 75 77  0  0  0  0  0  0  0  0999 V2000
   -1.1642    6.6706   -1.7071 C   0  0  0  0  0  0  0  0  0  0  0  0
   -0.7887    5.5414   -1.0889 C   0  0  0  0  0  0  0  0  0  0  0  0
    0.6207    5.2065   -0.6916 C   0  0  0  0  0  0  0  0  0  0  0  0
    1.7937    6.0968   -1.0602 C   0  0  0  0  0  0  0  0  0  0  0  0
    0.9319    4.0966    0.0239 C   0  0  0  0  0  0  0  0  0  0  0  0
   -0.0048    3.0478    0.5868 C   0  0  0  0  0  0  0  0  0  0  0  0
    0.0988    1.5471    0.0719 C   0  0  1  0  0  0  0  0  0  0  0  0
   -0.3088    1.5698   -1.4209 C   0  0  0  0  0  0  0  0  0  0  0  0
    1.5678    0.9323    0.2395 C   0  0  2  0  0  0  0  0  0  0  0  0
    2.6262    1.4435   -0.7864 C   0  0  0  0  0  0  0  0  0  0  0  0
    1.5988   -0.6225    0.1066 C   0  0  1  0  0  0  0  0  0  0  0  0
    2.8626   -1.0978    0.4337 O   0  0  0  0  0  0  0  0  0  0  0  0
    3.6192   -1.9200   -0.3426 C   0  0  0  0  0  0  0  0  0  0  0  0
    3.2132   -2.3085   -1.4292 O   0  0  0  0  0  0  0  0  0  0  0  0
    4.9646   -2.3653    0.1566 C   0  0  0  0  0  0  0  0  0  0  0  0
    5.0205   -3.8652    0.4968 C   0  0  0  0  0  0  0  0  0  0  0  0
    4.7859   -4.7923   -0.6960 C   0  0  0  0  0  0  0  0  0  0  0  0
    0.5890   -1.3244    1.0306 C   0  0  2  0  0  0  0  0  0  0  0  0
    0.7519   -2.7257    0.9801 O   0  0  0  0  0  0  0  0  0  0  0  0
   -0.8741   -0.8855    0.7078 C   0  0  1  0  0  0  0  0  0  0  0  0
   -1.8053   -1.6312    1.5987 C   0  0  0  0  0  0  0  0  0  0  0  0
   -2.1913   -1.2273    2.8104 C   0  0  0  0  0  0  0  0  0  0  0  0
   -1.7077    0.0597    3.3261 C   0  0  0  0  0  0  0  0  0  0  0  0
   -1.9196    0.3543    4.4920 O   0  0  0  0  0  0  0  0  0  0  0  0
   -0.8990    0.9916    2.4578 C   0  0  0  0  0  0  0  0  0  0  0  0
   -0.9658    0.6738    0.9158 C   0  0  1  0  0  0  0  0  0  0  0  0
   -2.1926   -2.9142    0.9439 C   0  0  1  0  0  0  0  0  0  0  0  0
   -3.5676   -3.0436    0.8429 O   0  0  0  0  0  0  0  0  0  0  0  0
   -4.2857   -4.0828    1.3481 C   0  0  0  0  0  0  0  0  0  0  0  0
   -5.7373   -4.2039    1.0185 C   0  0  0  0  0  0  0  0  0  0  0  0
   -3.7604   -4.9341    2.0508 O   0  0  0  0  0  0  0  0  0  0  0  0
   -1.6376   -2.8658   -0.3556 O   0  0  0  0  0  0  0  0  0  0  0  0
   -1.4028   -1.4938   -0.6225 C   0  0  1  0  0  0  0  0  0  0  0  0
   -2.6239   -0.9306   -0.9794 O   0  0  0  0  0  0  0  0  0  0  0  0
   -2.9811   -0.4859   -2.2108 C   0  0  0  0  0  0  0  0  0  0  0  0
   -4.3736    0.0093   -2.4287 C   0  0  0  0  0  0  0  0  0  0  0  0
   -2.2000   -0.5206   -3.1508 O   0  0  0  0  0  0  0  0  0  0  0  0
   -2.2116    6.8233   -1.9464 H   0  0  0  0  0  0  0  0  0  0  0  0
   -0.4841    7.4636   -1.9816 H   0  0  0  0  0  0  0  0  0  0  0  0
   -1.5913    4.8517   -0.8716 H   0  0  0  0  0  0  0  0  0  0  0  0
    1.5306    6.9900   -1.6494 H   0  0  0  0  0  0  0  0  0  0  0  0
    2.5209    5.5146   -1.6660 H   0  0  0  0  0  0  0  0  0  0  0  0
    2.3022    6.4463   -0.1360 H   0  0  0  0  0  0  0  0  0  0  0  0
    1.9706    3.9721    0.2985 H   0  0  0  0  0  0  0  0  0  0  0  0
   -1.0609    3.3555    0.4867 H   0  0  0  0  0  0  0  0  0  0  0  0
    0.2340    3.0994    1.6647 H   0  0  0  0  0  0  0  0  0  0  0  0
    0.3322    2.2693   -1.9970 H   0  0  0  0  0  0  0  0  0  0  0  0
   -1.3558    1.9242   -1.5354 H   0  0  0  0  0  0  0  0  0  0  0  0
   -0.2065    0.5914   -1.9048 H   0  0  0  0  0  0  0  0  0  0  0  0
    1.9077    1.1798    1.2686 H   0  0  0  0  0  0  0  0  0  0  0  0
    2.3673    1.1120   -1.8144 H   0  0  0  0  0  0  0  0  0  0  0  0
    3.6269    1.0253   -0.5504 H   0  0  0  0  0  0  0  0  0  0  0  0
    2.7811    2.5207   -0.8420 H   0  0  0  0  0  0  0  0  0  0  0  0
    1.3497   -0.8909   -0.9397 H   0  0  0  0  0  0  0  0  0  0  0  0
    5.1897   -1.8121    1.0940 H   0  0  0  0  0  0  0  0  0  0  0  0
    5.7435   -2.1010   -0.5912 H   0  0  0  0  0  0  0  0  0  0  0  0
    4.2716   -4.0933    1.2867 H   0  0  0  0  0  0  0  0  0  0  0  0
    6.0306   -4.0834    0.9063 H   0  0  0  0  0  0  0  0  0  0  0  0
    3.7594   -4.6785   -1.0986 H   0  0  0  0  0  0  0  0  0  0  0  0
    4.8978   -5.8467   -0.3655 H   0  0  0  0  0  0  0  0  0  0  0  0
    5.5268   -4.5886   -1.4971 H   0  0  0  0  0  0  0  0  0  0  0  0
    0.8454   -1.0295    2.0701 H   0  0  0  0  0  0  0  0  0  0  0  0
    0.8487   -3.0003    0.0316 H   0  0  0  0  0  0  0  0  0  0  0  0
   -2.8406   -1.8513    3.4168 H   0  0  0  0  0  0  0  0  0  0  0  0
    0.1392    0.9832    2.8485 H   0  0  0  0  0  0  0  0  0  0  0  0
   -1.3283    2.0031    2.6164 H   0  0  0  0  0  0  0  0  0  0  0  0
   -1.9980    0.9776    0.6281 H   0  0  0  0  0  0  0  0  0  0  0  0
   -1.7335   -3.7502    1.5153 H   0  0  0  0  0  0  0  0  0  0  0  0
   -6.0553   -3.3669    0.3629 H   0  0  0  0  0  0  0  0  0  0  0  0
   -6.3379   -4.1873    1.9510 H   0  0  0  0  0  0  0  0  0  0  0  0
   -5.9143   -5.1633    0.4860 H   0  0  0  0  0  0  0  0  0  0  0  0
   -0.6826   -1.4237   -1.4542 H   0  0  0  0  0  0  0  0  0  0  0  0
   -4.9544   -0.0498   -1.4836 H   0  0  0  0  0  0  0  0  0  0  0  0
   -4.8751   -0.6197   -3.1940 H   0  0  0  0  0  0  0  0  0  0  0  0
   -4.3505    1.0636   -2.7748 H   0  0  0  0  0  0  0  0  0  0  0  0
  1  2  2  0  0  0  0
  1 38  1  0  0  0  0
  1 39  1  0  0  0  0
  2  3  1  0  0  0  0
  2 40  1  0  0  0  0
  3  4  1  0  0  0  0
  3  5  2  0  0  0  0
  4 41  1  0  0  0  0
  4 42  1  0  0  0  0
  4 43  1  0  0  0  0
  5  6  1  0  0  0  0
  5 44  1  0  0  0  0
  6 45  1  0  0  0  0
  6 46  1  0  0  0  0
  7  6  1  1  0  0  0
  7  8  1  0  0  0  0
  7  9  1  0  0  0  0
  8 47  1  0  0  0  0
  8 48  1  0  0  0  0
  8 49  1  0  0  0  0
  9 10  1  0  0  0  0
  9 11  1  0  0  0  0
  9 50  1  1  0  0  0
 10 51  1  0  0  0  0
 10 52  1  0  0  0  0
 10 53  1  0  0  0  0
 11 12  1  0  0  0  0
 11 18  1  0  0  0  0
 11 54  1  6  0  0  0
 12 13  1  0  0  0  0
 13 14  2  0  0  0  0
 13 15  1  0  0  0  0
 15 16  1  0  0  0  0
 15 55  1  0  0  0  0
 15 56  1  0  0  0  0
 16 17  1  0  0  0  0
 16 57  1  0  0  0  0
 16 58  1  0  0  0  0
 17 59  1  0  0  0  0
 17 60  1  0  0  0  0
 17 61  1  0  0  0  0
 18 19  1  0  0  0  0
 18 20  1  0  0  0  0
 18 62  1  1  0  0  0
 19 63  1  0  0  0  0
 20 21  1  1  0  0  0
 21 22  2  0  0  0  0
 21 27  1  0  0  0  0
 22 23  1  0  0  0  0
 22 64  1  0  0  0  0
 23 24  2  0  0  0  0
 23 25  1  0  0  0  0
 25 65  1  0  0  0  0
 25 66  1  0  0  0  0
 26 25  1  0  0  0  0
 26  7  1  0  0  0  0
 26 20  1  0  0  0  0
 26 67  1  6  0  0  0
 27 28  1  0  0  0  0
 27 32  1  0  0  0  0
 27 68  1  1  0  0  0
 28 29  1  0  0  0  0
 29 30  1  0  0  0  0
 29 31  2  0  0  0  0
 30 69  1  0  0  0  0
 30 70  1  0  0  0  0
 30 71  1  0  0  0  0
 32 33  1  0  0  0  0
 33 34  1  0  0  0  0
 33 20  1  0  0  0  0
 33 72  1  6  0  0  0
 34 35  1  0  0  0  0
 35 36  1  0  0  0  0
 35 37  2  0  0  0  0
 36 73  1  0  0  0  0
 36 74  1  0  0  0  0
 36 75  1  0  0  0  0
M  END
>  <IDENTIFIER>
CNP0312183.2

>  <Energy>
587.169

$$$$
