
 OpenBabel09112500303D

111115  0  0  0  0  0  0  0  0999 V2000
    7.5413   -4.8281    1.3649 C   0  0  0  0  0  0  0  0  0  0  0  0
    7.4764   -3.7416    0.3822 N   0  0  0  0  0  0  0  0  0  0  0  0
    6.2359   -2.9615    0.5056 C   0  0  0  0  0  0  0  0  0  0  0  0
    6.2717   -2.0044    1.6319 N   0  0  0  0  0  0  0  0  0  0  0  0
    6.9831   -0.7383    1.3503 C   0  0  1  0  0  0  0  0  0  0  0  0
    6.6274    0.3210    2.4265 C   0  0  0  0  0  0  0  0  0  0  0  0
    5.1289    0.6622    2.5822 C   0  0  0  0  0  0  0  0  0  0  0  0
    4.4857    1.3621    1.4032 C   0  0  0  0  0  0  0  0  0  0  0  0
    5.1216    1.5603    0.3788 O   0  0  0  0  0  0  0  0  0  0  0  0
    3.1796    1.7558    1.4930 N   0  0  0  0  0  0  0  0  0  0  0  0
    2.4592    2.3420    0.3605 C   0  0  1  0  0  0  0  0  0  0  0  0
    0.9293    2.4497    0.6213 C   0  0  0  0  0  0  0  0  0  0  0  0
    0.1920    1.0633    1.5782 S   0  0  0  0  0  0  0  0  0  0  0  0
   -0.4582   -0.2546    0.4562 C   0  0  1  0  0  0  0  0  0  0  0  0
   -1.6254    0.1463   -0.4304 C   0  0  0  0  0  0  0  0  0  0  0  0
   -2.9239   -0.2834   -0.4132 C   0  0  0  0  0  0  0  0  0  0  0  0
   -3.7986   -1.1612    0.4656 C   0  0  1  0  0  0  0  0  0  0  0  0
   -3.2407   -2.0753    1.5975 C   0  0  0  0  0  0  0  0  0  0  0  0
   -2.9879   -3.5706    1.2567 C   0  0  0  0  0  0  0  0  0  0  0  0
   -1.9838   -3.9835    0.1675 C   0  0  0  0  0  0  0  0  0  0  0  0
   -0.5823   -3.3955    0.3751 C   0  0  0  0  0  0  0  0  0  0  0  0
   -0.1983   -2.4407   -0.7807 C   0  0  0  0  0  0  0  0  0  0  0  0
    0.5736   -1.1454   -0.3376 C   0  0  0  0  0  0  0  0  0  0  0  0
    1.1442   -0.4922   -1.6273 C   0  0  0  0  0  0  0  0  0  0  0  0
    2.6052   -0.9795   -1.7284 C   0  0  0  0  0  0  0  0  0  0  0  0
    2.7592   -2.0410   -0.6504 C   0  0  0  0  0  0  0  0  0  0  0  0
    1.8470   -1.5138    0.4465 C   0  0  0  0  0  0  0  0  0  0  0  0
   -4.7857   -0.1455    1.0887 C   0  0  0  0  0  0  0  0  0  0  0  0
   -5.4460    0.8391    0.1094 C   0  0  0  0  0  0  0  0  0  0  0  0
   -6.6957    1.5110    0.6802 C   0  0  0  0  0  0  0  0  0  0  0  0
   -7.7605    0.4754    0.9496 C   0  0  0  0  0  0  0  0  0  0  0  0
   -8.1702    0.1925    2.2615 C   0  0  0  0  0  0  0  0  0  0  0  0
   -9.1404   -0.7880    2.4834 C   0  0  0  0  0  0  0  0  0  0  0  0
   -9.6876   -1.4569    1.4339 N   0  0  0  0  0  0  0  0  0  0  0  0
   -9.3145   -1.1998    0.1523 C   0  0  0  0  0  0  0  0  0  0  0  0
   -8.3435   -0.2315   -0.1140 C   0  0  0  0  0  0  0  0  0  0  0  0
   -4.9382    1.0420   -1.1607 C   0  0  0  0  0  0  0  0  0  0  0  0
   -5.6145    1.9339   -2.2123 C   0  0  0  0  0  0  0  0  0  0  0  0
   -6.2685    1.1469   -3.2773 N   0  0  0  0  0  0  0  0  0  0  0  0
   -5.4024    0.8719   -4.4288 C   0  0  0  0  0  0  0  0  0  0  0  0
   -3.6585    0.3159   -1.5754 C   0  0  1  0  0  0  0  0  0  0  0  0
   -2.5586    1.1633   -2.1219 C   0  0  0  0  0  0  0  0  0  0  0  0
   -2.6318    1.8452   -3.1314 O   0  0  0  0  0  0  0  0  0  0  0  0
   -1.4171    1.0125   -1.4397 O   0  0  0  0  0  0  0  0  0  0  0  0
    3.0252    3.7076   -0.0053 C   0  0  0  0  0  0  0  0  0  0  0  0
    3.8950    4.2056    0.6979 O   0  0  0  0  0  0  0  0  0  0  0  0
    2.5645    4.3762   -1.1007 N   0  0  0  0  0  0  0  0  0  0  0  0
    3.0538    5.6920   -1.4982 C   0  0  1  0  0  0  0  0  0  0  0  0
    3.6463    5.6205   -2.7706 O   0  0  0  0  0  0  0  0  0  0  0  0
    1.9256    6.6997   -1.4580 C   0  0  0  0  0  0  0  0  0  0  0  0
    1.3373    6.8872   -0.4048 O   0  0  0  0  0  0  0  0  0  0  0  0
    1.5572    7.4133   -2.5461 O   0  0  0  0  0  0  0  0  0  0  0  0
    8.4955   -0.9080    1.3360 C   0  0  0  0  0  0  0  0  0  0  0  0
    9.0165   -1.9618    1.6647 O   0  0  0  0  0  0  0  0  0  0  0  0
    9.2934    0.1230    0.9816 O   0  0  0  0  0  0  0  0  0  0  0  0
    8.4771   -5.4055    1.2099 H   0  0  0  0  0  0  0  0  0  0  0  0
    6.6814   -5.5238    1.2442 H   0  0  0  0  0  0  0  0  0  0  0  0
    7.5592   -4.4326    2.4001 H   0  0  0  0  0  0  0  0  0  0  0  0
    7.4817   -4.1895   -0.5643 H   0  0  0  0  0  0  0  0  0  0  0  0
    5.3678   -3.6461    0.6327 H   0  0  0  0  0  0  0  0  0  0  0  0
    6.0650   -2.4108   -0.4457 H   0  0  0  0  0  0  0  0  0  0  0  0
    6.5575   -2.4414    2.5372 H   0  0  0  0  0  0  0  0  0  0  0  0
    6.6728   -0.3657    0.3521 H   0  0  0  0  0  0  0  0  0  0  0  0
    7.1714    1.2691    2.2266 H   0  0  0  0  0  0  0  0  0  0  0  0
    6.9799   -0.0671    3.4082 H   0  0  0  0  0  0  0  0  0  0  0  0
    5.0385    1.3456    3.4537 H   0  0  0  0  0  0  0  0  0  0  0  0
    4.5585   -0.2634    2.8118 H   0  0  0  0  0  0  0  0  0  0  0  0
    2.6812    1.5656    2.3738 H   0  0  0  0  0  0  0  0  0  0  0  0
    2.6053    1.6717   -0.4896 H   0  0  0  0  0  0  0  0  0  0  0  0
    0.3533    2.6687   -0.3006 H   0  0  0  0  0  0  0  0  0  0  0  0
    0.7596    3.3243    1.2859 H   0  0  0  0  0  0  0  0  0  0  0  0
   -0.8421   -0.9006    1.2262 H   0  0  0  0  0  0  0  0  0  0  0  0
   -4.3974   -1.8238   -0.1996 H   0  0  0  0  0  0  0  0  0  0  0  0
   -4.0526   -2.1892    2.3506 H   0  0  0  0  0  0  0  0  0  0  0  0
   -2.4569   -1.5967    2.1994 H   0  0  0  0  0  0  0  0  0  0  0  0
   -3.9600   -4.0336    0.9758 H   0  0  0  0  0  0  0  0  0  0  0  0
   -2.6647   -4.0507    2.2077 H   0  0  0  0  0  0  0  0  0  0  0  0
   -2.3910   -3.7624   -0.8418 H   0  0  0  0  0  0  0  0  0  0  0  0
   -1.9082   -5.0918    0.2209 H   0  0  0  0  0  0  0  0  0  0  0  0
    0.1886   -4.1965    0.4092 H   0  0  0  0  0  0  0  0  0  0  0  0
   -0.5263   -2.9583    1.3903 H   0  0  0  0  0  0  0  0  0  0  0  0
   -1.1000   -2.1013   -1.3256 H   0  0  0  0  0  0  0  0  0  0  0  0
    0.3162   -3.0465   -1.5553 H   0  0  0  0  0  0  0  0  0  0  0  0
    1.1428    0.6113   -1.6028 H   0  0  0  0  0  0  0  0  0  0  0  0
    0.5396   -0.7679   -2.5193 H   0  0  0  0  0  0  0  0  0  0  0  0
    3.2629   -0.1483   -1.4050 H   0  0  0  0  0  0  0  0  0  0  0  0
    2.9424   -1.2717   -2.7445 H   0  0  0  0  0  0  0  0  0  0  0  0
    3.8028   -2.1773   -0.3286 H   0  0  0  0  0  0  0  0  0  0  0  0
    2.3913   -3.0189   -1.0172 H   0  0  0  0  0  0  0  0  0  0  0  0
    2.3149   -0.5975    0.8565 H   0  0  0  0  0  0  0  0  0  0  0  0
    1.7004   -2.2186    1.2903 H   0  0  0  0  0  0  0  0  0  0  0  0
   -4.2942    0.4528    1.8870 H   0  0  0  0  0  0  0  0  0  0  0  0
   -5.5793   -0.7556    1.5686 H   0  0  0  0  0  0  0  0  0  0  0  0
   -7.1657    2.2858    0.0592 H   0  0  0  0  0  0  0  0  0  0  0  0
   -6.3951    2.0243    1.6189 H   0  0  0  0  0  0  0  0  0  0  0  0
   -7.7352    0.7151    3.1041 H   0  0  0  0  0  0  0  0  0  0  0  0
   -9.4553   -1.0204    3.4919 H   0  0  0  0  0  0  0  0  0  0  0  0
   -9.7695   -1.7503   -0.6604 H   0  0  0  0  0  0  0  0  0  0  0  0
   -8.0474   -0.0351   -1.1372 H   0  0  0  0  0  0  0  0  0  0  0  0
   -4.9095    2.6873   -2.6210 H   0  0  0  0  0  0  0  0  0  0  0  0
   -6.3943    2.5654   -1.7692 H   0  0  0  0  0  0  0  0  0  0  0  0
   -7.0588    1.7226   -3.6545 H   0  0  0  0  0  0  0  0  0  0  0  0
   -4.6159    0.1401   -4.1871 H   0  0  0  0  0  0  0  0  0  0  0  0
   -4.9447    1.8049   -4.8214 H   0  0  0  0  0  0  0  0  0  0  0  0
   -6.0107    0.4167   -5.2400 H   0  0  0  0  0  0  0  0  0  0  0  0
   -3.9211   -0.4852   -2.2904 H   0  0  0  0  0  0  0  0  0  0  0  0
    1.8338    3.9375   -1.6816 H   0  0  0  0  0  0  0  0  0  0  0  0
    3.8328    6.0551   -0.7941 H   0  0  0  0  0  0  0  0  0  0  0  0
    2.9996    5.1761   -3.3794 H   0  0  0  0  0  0  0  0  0  0  0  0
    1.9939    7.3306   -3.4041 H   0  0  0  0  0  0  0  0  0  0  0  0
    8.9335    0.9734    0.6970 H   0  0  0  0  0  0  0  0  0  0  0  0
  1  2  1  0  0  0  0
  1 56  1  0  0  0  0
  1 57  1  0  0  0  0
  1 58  1  0  0  0  0
  2  3  1  0  0  0  0
  2 59  1  0  0  0  0
  3  4  1  0  0  0  0
  3 60  1  0  0  0  0
  3 61  1  0  0  0  0
  4  5  1  0  0  0  0
  4 62  1  0  0  0  0
  5  6  1  0  0  0  0
  5 53  1  0  0  0  0
  5 63  1  6  0  0  0
  6  7  1  0  0  0  0
  6 64  1  0  0  0  0
  6 65  1  0  0  0  0
  7  8  1  0  0  0  0
  7 66  1  0  0  0  0
  7 67  1  0  0  0  0
  8  9  2  0  0  0  0
  8 10  1  0  0  0  0
 10 11  1  0  0  0  0
 10 68  1  0  0  0  0
 11 12  1  0  0  0  0
 11 45  1  0  0  0  0
 11 69  1  6  0  0  0
 12 13  1  0  0  0  0
 12 70  1  0  0  0  0
 12 71  1  0  0  0  0
 14 13  1  0  0  0  0
 14 15  1  0  0  0  0
 14 72  1  1  0  0  0
 15 16  2  0  0  0  0
 16 17  1  0  0  0  0
 17 18  1  0  0  0  0
 17 28  1  0  0  0  0
 17 73  1  6  0  0  0
 18 19  1  0  0  0  0
 18 74  1  0  0  0  0
 18 75  1  0  0  0  0
 19 20  1  0  0  0  0
 19 76  1  0  0  0  0
 19 77  1  0  0  0  0
 20 21  1  0  0  0  0
 20 78  1  0  0  0  0
 20 79  1  0  0  0  0
 21 22  1  0  0  0  0
 21 80  1  0  0  0  0
 21 81  1  0  0  0  0
 22 23  1  0  0  0  0
 22 82  1  0  0  0  0
 22 83  1  0  0  0  0
 23 24  1  0  0  0  0
 23 14  1  0  0  0  0
 24 25  1  0  0  0  0
 24 84  1  0  0  0  0
 24 85  1  0  0  0  0
 25 26  1  0  0  0  0
 25 86  1  0  0  0  0
 25 87  1  0  0  0  0
 26 27  1  0  0  0  0
 26 88  1  0  0  0  0
 26 89  1  0  0  0  0
 27 23  1  0  0  0  0
 27 90  1  0  0  0  0
 27 91  1  0  0  0  0
 28 29  1  0  0  0  0
 28 92  1  0  0  0  0
 28 93  1  0  0  0  0
 29 30  1  0  0  0  0
 29 37  2  0  0  0  0
 30 31  1  0  0  0  0
 30 94  1  0  0  0  0
 30 95  1  0  0  0  0
 31 32  2  0  0  0  0
 32 33  1  0  0  0  0
 32 96  1  0  0  0  0
 33 34  2  0  0  0  0
 33 97  1  0  0  0  0
 34 35  1  0  0  0  0
 35 36  2  0  0  0  0
 35 98  1  0  0  0  0
 36 31  1  0  0  0  0
 36 99  1  0  0  0  0
 37 38  1  0  0  0  0
 38 39  1  0  0  0  0
 38100  1  0  0  0  0
 38101  1  0  0  0  0
 39 40  1  0  0  0  0
 39102  1  0  0  0  0
 40103  1  0  0  0  0
 40104  1  0  0  0  0
 40105  1  0  0  0  0
 41 37  1  0  0  0  0
 41 42  1  0  0  0  0
 41 16  1  0  0  0  0
 41106  1  6  0  0  0
 42 43  2  0  0  0  0
 42 44  1  0  0  0  0
 44 15  1  0  0  0  0
 45 46  2  0  0  0  0
 45 47  1  0  0  0  0
 47 48  1  0  0  0  0
 47107  1  0  0  0  0
 48 49  1  0  0  0  0
 48 50  1  0  0  0  0
 48108  1  1  0  0  0
 49109  1  0  0  0  0
 50 51  2  0  0  0  0
 50 52  1  0  0  0  0
 52110  1  0  0  0  0
 53 54  2  0  0  0  0
 53 55  1  0  0  0  0
 55111  1  0  0  0  0
M  END
>  <IDENTIFIER>
CNP0122213.1

>  <Energy>
1326.16

$$$$
