
 OpenBabel09062518213D

 91 90  0  0  0  0  0  0  0  0999 V2000
  -11.9312    2.3678   -0.0501 C   0  0  0  0  0  0  0  0  0  0  0  0
  -11.0301    1.1381   -0.1023 C   0  0  0  0  0  0  0  0  0  0  0  0
   -9.7918    1.4031   -0.9646 C   0  0  0  0  0  0  0  0  0  0  0  0
   -8.8731    0.1774   -0.9994 C   0  0  0  0  0  0  0  0  0  0  0  0
   -7.6416    0.4534   -1.8732 C   0  0  0  0  0  0  0  0  0  0  0  0
   -6.6706   -0.7378   -1.9475 C   0  0  0  0  0  0  0  0  0  0  0  0
   -6.0867   -1.1776   -0.5901 C   0  0  0  0  0  0  0  0  0  0  0  0
   -5.3889   -0.0621    0.2080 C   0  0  0  0  0  0  0  0  0  0  0  0
   -4.1933    0.5530   -0.5354 C   0  0  0  0  0  0  0  0  0  0  0  0
   -3.4752    1.6480    0.2791 C   0  0  0  0  0  0  0  0  0  0  0  0
   -2.8912    1.1561    1.6148 C   0  0  0  0  0  0  0  0  0  0  0  0
   -1.9254    0.0206    1.3666 C   0  0  0  0  0  0  0  0  0  0  0  0
   -1.9895   -1.2537    1.8486 C   0  0  0  0  0  0  0  0  0  0  0  0
   -3.0728   -1.7208    2.8028 C   0  0  0  0  0  0  0  0  0  0  0  0
   -0.9633   -2.3013    1.4732 C   0  0  0  0  0  0  0  0  0  0  0  0
   -1.0849   -3.4076    1.9866 O   0  0  0  0  0  0  0  0  0  0  0  0
    0.2253   -2.0786    0.5149 C   0  0  0  0  0  0  0  0  0  0  0  0
   -0.2836   -1.7899   -0.9195 C   0  0  0  0  0  0  0  0  0  0  0  0
    1.1034   -3.3511    0.4356 C   0  0  0  0  0  0  0  0  0  0  0  0
    1.1148   -0.9531    1.0181 C   0  0  0  0  0  0  0  0  0  0  0  0
    0.8545   -0.3712    2.0614 O   0  0  0  0  0  0  0  0  0  0  0  0
    2.2137   -0.6046    0.3024 O   0  0  0  0  0  0  0  0  0  0  0  0
    3.1611    0.3179    0.7027 C   0  0  0  0  0  0  0  0  0  0  0  0
    4.0412   -0.1932    1.8676 C   0  0  1  0  0  0  0  0  0  0  0  0
    3.3124   -0.2914    3.0684 O   0  0  0  0  0  0  0  0  0  0  0  0
    4.7537   -1.5306    1.5173 C   0  0  0  0  0  0  0  0  0  0  0  0
    5.4495   -1.4940    0.2823 O   0  0  0  0  0  0  0  0  0  0  0  0
    6.5501   -0.6141    0.3586 C   0  0  0  0  0  0  0  0  0  0  0  0
    7.3894   -0.7354   -0.9051 C   0  0  0  0  0  0  0  0  0  0  0  0
    8.7730    0.0080   -0.9218 C   0  0  1  0  0  0  0  0  0  0  0  0
    9.5058   -0.5502   -2.1710 C   0  0  0  0  0  0  0  0  0  0  0  0
    9.7882   -1.7387   -2.1630 O   0  0  0  0  0  0  0  0  0  0  0  0
    9.8176    0.1348   -3.2982 O   0  0  0  0  0  0  0  0  0  0  0  0
    8.7610    1.5235   -0.7383 N   0  3  0  0  0  0  0  0  0  0  0  0
    7.8105    2.2148   -1.6468 C   0  0  0  0  0  0  0  0  0  0  0  0
    8.4007    1.9113    0.6625 C   0  0  0  0  0  0  0  0  0  0  0  0
   10.1413    2.0673   -0.9064 C   0  0  0  0  0  0  0  0  0  0  0  0
  -12.8226    2.1500    0.5746 H   0  0  0  0  0  0  0  0  0  0  0  0
  -12.2691    2.6421   -1.0721 H   0  0  0  0  0  0  0  0  0  0  0  0
  -11.3846    3.2260    0.3962 H   0  0  0  0  0  0  0  0  0  0  0  0
  -11.6040    0.2859   -0.5273 H   0  0  0  0  0  0  0  0  0  0  0  0
  -10.7185    0.8783    0.9331 H   0  0  0  0  0  0  0  0  0  0  0  0
   -9.2292    2.2653   -0.5423 H   0  0  0  0  0  0  0  0  0  0  0  0
  -10.1115    1.6558   -1.9996 H   0  0  0  0  0  0  0  0  0  0  0  0
   -9.4253   -0.6964   -1.4099 H   0  0  0  0  0  0  0  0  0  0  0  0
   -8.5602   -0.0497    0.0409 H   0  0  0  0  0  0  0  0  0  0  0  0
   -7.1045    1.3475   -1.4926 H   0  0  0  0  0  0  0  0  0  0  0  0
   -7.9795    0.6843   -2.9071 H   0  0  0  0  0  0  0  0  0  0  0  0
   -5.8389   -0.4630   -2.6296 H   0  0  0  0  0  0  0  0  0  0  0  0
   -7.1904   -1.6088   -2.4027 H   0  0  0  0  0  0  0  0  0  0  0  0
   -5.3640   -2.0034   -0.7708 H   0  0  0  0  0  0  0  0  0  0  0  0
   -6.8992   -1.5943    0.0417 H   0  0  0  0  0  0  0  0  0  0  0  0
   -5.0416   -0.5243    1.1507 H   0  0  0  0  0  0  0  0  0  0  0  0
   -6.1144    0.7342    0.4754 H   0  0  0  0  0  0  0  0  0  0  0  0
   -4.5418    1.0225   -1.4785 H   0  0  0  0  0  0  0  0  0  0  0  0
   -3.4729   -0.2507   -0.8011 H   0  0  0  0  0  0  0  0  0  0  0  0
   -4.1778    2.4859    0.4800 H   0  0  0  0  0  0  0  0  0  0  0  0
   -2.6463    2.0460   -0.3472 H   0  0  0  0  0  0  0  0  0  0  0  0
   -3.7212    0.9130    2.2939 H   0  0  0  0  0  0  0  0  0  0  0  0
   -2.3365    1.9928    2.0901 H   0  0  0  0  0  0  0  0  0  0  0  0
   -1.1211    0.3135    0.7127 H   0  0  0  0  0  0  0  0  0  0  0  0
   -3.8046   -0.9630    3.1175 H   0  0  0  0  0  0  0  0  0  0  0  0
   -2.5948   -2.0903    3.7345 H   0  0  0  0  0  0  0  0  0  0  0  0
   -3.6377   -2.5548    2.3359 H   0  0  0  0  0  0  0  0  0  0  0  0
   -0.8981   -2.6420   -1.2841 H   0  0  0  0  0  0  0  0  0  0  0  0
    0.5713   -1.6616   -1.6181 H   0  0  0  0  0  0  0  0  0  0  0  0
   -0.9066   -0.8836   -1.0071 H   0  0  0  0  0  0  0  0  0  0  0  0
    0.5128   -4.2171    0.0647 H   0  0  0  0  0  0  0  0  0  0  0  0
    1.5143   -3.6075    1.4371 H   0  0  0  0  0  0  0  0  0  0  0  0
    1.9597   -3.2039   -0.2583 H   0  0  0  0  0  0  0  0  0  0  0  0
    2.6780    1.2846    0.9635 H   0  0  0  0  0  0  0  0  0  0  0  0
    3.8190    0.5122   -0.1700 H   0  0  0  0  0  0  0  0  0  0  0  0
    4.8137    0.5795    2.0581 H   0  0  0  0  0  0  0  0  0  0  0  0
    2.9569   -1.2129    3.1587 H   0  0  0  0  0  0  0  0  0  0  0  0
    3.9842   -2.3262    1.4243 H   0  0  0  0  0  0  0  0  0  0  0  0
    5.4222   -1.8509    2.3490 H   0  0  0  0  0  0  0  0  0  0  0  0
    7.1947   -0.8553    1.2352 H   0  0  0  0  0  0  0  0  0  0  0  0
    6.1497    0.4010    0.3688 H   0  0  0  0  0  0  0  0  0  0  0  0
    6.7751   -0.4405   -1.7840 H   0  0  0  0  0  0  0  0  0  0  0  0
    7.5945   -1.8257   -1.0036 H   0  0  0  0  0  0  0  0  0  0  0  0
    9.3675   -0.4010   -0.0719 H   0  0  0  0  0  0  0  0  0  0  0  0
    9.5988    1.0433   -3.5142 H   0  0  0  0  0  0  0  0  0  0  0  0
    6.7613    1.9216   -1.4269 H   0  0  0  0  0  0  0  0  0  0  0  0
    7.9726    1.9906   -2.7099 H   0  0  0  0  0  0  0  0  0  0  0  0
    7.8721    3.3192   -1.5250 H   0  0  0  0  0  0  0  0  0  0  0  0
    7.3239    1.9238    0.8719 H   0  0  0  0  0  0  0  0  0  0  0  0
    8.6637    2.9717    0.8799 H   0  0  0  0  0  0  0  0  0  0  0  0
    8.9204    1.2797    1.4161 H   0  0  0  0  0  0  0  0  0  0  0  0
   10.5782    1.9162   -1.8993 H   0  0  0  0  0  0  0  0  0  0  0  0
   10.8385    1.6049   -0.1702 H   0  0  0  0  0  0  0  0  0  0  0  0
   10.1675    3.1701   -0.7514 H   0  0  0  0  0  0  0  0  0  0  0  0
  1  2  1  0  0  0  0
  1 38  1  0  0  0  0
  1 39  1  0  0  0  0
  1 40  1  0  0  0  0
  2  3  1  0  0  0  0
  2 41  1  0  0  0  0
  2 42  1  0  0  0  0
  3  4  1  0  0  0  0
  3 43  1  0  0  0  0
  3 44  1  0  0  0  0
  4  5  1  0  0  0  0
  4 45  1  0  0  0  0
  4 46  1  0  0  0  0
  5  6  1  0  0  0  0
  5 47  1  0  0  0  0
  5 48  1  0  0  0  0
  6  7  1  0  0  0  0
  6 49  1  0  0  0  0
  6 50  1  0  0  0  0
  7  8  1  0  0  0  0
  7 51  1  0  0  0  0
  7 52  1  0  0  0  0
  8  9  1  0  0  0  0
  8 53  1  0  0  0  0
  8 54  1  0  0  0  0
  9 10  1  0  0  0  0
  9 55  1  0  0  0  0
  9 56  1  0  0  0  0
 10 11  1  0  0  0  0
 10 57  1  0  0  0  0
 10 58  1  0  0  0  0
 11 12  1  0  0  0  0
 11 59  1  0  0  0  0
 11 60  1  0  0  0  0
 12 13  2  0  0  0  0
 12 61  1  0  0  0  0
 13 14  1  0  0  0  0
 13 15  1  0  0  0  0
 14 62  1  0  0  0  0
 14 63  1  0  0  0  0
 14 64  1  0  0  0  0
 15 16  2  0  0  0  0
 15 17  1  0  0  0  0
 17 18  1  0  0  0  0
 17 19  1  0  0  0  0
 17 20  1  0  0  0  0
 18 65  1  0  0  0  0
 18 66  1  0  0  0  0
 18 67  1  0  0  0  0
 19 68  1  0  0  0  0
 19 69  1  0  0  0  0
 19 70  1  0  0  0  0
 20 21  2  0  0  0  0
 20 22  1  0  0  0  0
 22 23  1  0  0  0  0
 23 24  1  0  0  0  0
 23 71  1  0  0  0  0
 23 72  1  0  0  0  0
 24 25  1  0  0  0  0
 24 26  1  0  0  0  0
 24 73  1  1  0  0  0
 25 74  1  0  0  0  0
 26 27  1  0  0  0  0
 26 75  1  0  0  0  0
 26 76  1  0  0  0  0
 27 28  1  0  0  0  0
 28 29  1  0  0  0  0
 28 77  1  0  0  0  0
 28 78  1  0  0  0  0
 29 79  1  0  0  0  0
 29 80  1  0  0  0  0
 30 29  1  0  0  0  0
 30 31  1  0  0  0  0
 30 34  1  0  0  0  0
 30 81  1  1  0  0  0
 31 32  2  0  0  0  0
 31 33  1  0  0  0  0
 33 82  1  0  0  0  0
 34 35  1  0  0  0  0
 34 36  1  0  0  0  0
 34 37  1  0  0  0  0
 35 83  1  0  0  0  0
 35 84  1  0  0  0  0
 35 85  1  0  0  0  0
 36 86  1  0  0  0  0
 36 87  1  0  0  0  0
 36 88  1  0  0  0  0
 37 89  1  0  0  0  0
 37 90  1  0  0  0  0
 37 91  1  0  0  0  0
M  CHG  1  34   1
M  END
>  <IDENTIFIER>
CNP0515013.1

>  <Energy>
538.154

$$$$
