
 OpenBabel09072508503D

 67 71  0  0  0  0  0  0  0  0999 V2000
    1.3835    2.0476    0.5428 C   0  0  0  0  0  0  0  0  0  0  0  0
    2.3804    0.9992    0.4429 N   0  0  0  0  0  0  0  0  0  0  0  0
    3.6691    1.2425    0.6330 N   0  0  0  0  0  0  0  0  0  0  0  0
    4.3258    0.0847    0.4498 C   0  0  0  0  0  0  0  0  0  0  0  0
    5.7911   -0.1115    0.5357 C   0  0  0  0  0  0  0  0  0  0  0  0
    6.3480    0.1794    1.9367 C   0  0  0  0  0  0  0  0  0  0  0  0
    7.8360   -0.1978    1.9447 C   0  0  0  0  0  0  0  0  0  0  0  0
    8.6076    0.5783    0.8582 C   0  0  0  0  0  0  0  0  0  0  0  0
    7.9671    0.4267   -0.5344 C   0  0  0  0  0  0  0  0  0  0  0  0
    6.4831    0.7828   -0.4944 C   0  0  0  0  0  0  0  0  0  0  0  0
    3.4494   -0.9090    0.1301 C   0  0  0  0  0  0  0  0  0  0  0  0
    2.2131   -0.3120    0.1372 C   0  0  0  0  0  0  0  0  0  0  0  0
    0.9713   -1.1268   -0.1186 C   0  0  1  0  0  0  0  0  0  0  0  0
    0.2247   -1.4884    1.1898 C   0  0  0  0  0  0  0  0  0  0  0  0
   -1.1208   -2.0472    0.8590 N   0  0  2  0  0  0  0  0  0  0  0  0
   -0.9916   -2.9510   -0.3298 C   0  0  0  0  0  0  0  0  0  0  0  0
   -0.7375   -2.0982   -1.6334 C   0  0  0  0  0  0  0  0  0  0  0  0
   -0.1040   -0.7421   -1.1857 C   0  0  1  0  0  0  0  0  0  0  0  0
   -1.2658    0.0483   -0.5010 C   0  0  0  0  0  0  0  0  0  0  0  0
   -2.0197   -0.9363    0.4520 C   0  0  2  0  0  0  0  0  0  0  0  0
   -2.7083   -0.2422    1.6393 C   0  0  0  0  0  0  0  0  0  0  0  0
   -3.6286    0.7744    1.1595 N   0  0  0  0  0  0  0  0  0  0  0  0
   -4.7858    0.5099    0.3569 C   0  0  0  0  0  0  0  0  0  0  0  0
   -5.2658   -0.8471    0.1595 S   0  0  0  0  0  0  0  0  0  0  0  0
   -5.5669    1.6169   -0.0961 N   0  0  0  0  0  0  0  0  0  0  0  0
   -6.7376    1.4310   -0.8765 C   0  0  0  0  0  0  0  0  0  0  0  0
   -6.6555    0.8723   -2.1624 C   0  0  0  0  0  0  0  0  0  0  0  0
   -7.8203    0.6540   -2.9019 C   0  0  0  0  0  0  0  0  0  0  0  0
   -9.0683    0.9666   -2.3494 C   0  0  0  0  0  0  0  0  0  0  0  0
   -9.1480    1.4996   -1.0556 C   0  0  0  0  0  0  0  0  0  0  0  0
  -10.4260    1.7861   -0.4628 C   0  0  0  0  0  0  0  0  0  0  0  0
  -11.4511    2.0190    0.0203 N   0  0  0  0  0  0  0  0  0  0  0  0
   -7.9804    1.7654   -0.3358 C   0  0  0  0  0  0  0  0  0  0  0  0
    1.8754    3.0131    0.7852 H   0  0  0  0  0  0  0  0  0  0  0  0
    0.6684    1.8098    1.3538 H   0  0  0  0  0  0  0  0  0  0  0  0
    0.8795    2.1649   -0.4392 H   0  0  0  0  0  0  0  0  0  0  0  0
    5.9918   -1.1821    0.2922 H   0  0  0  0  0  0  0  0  0  0  0  0
    5.8135   -0.4243    2.7035 H   0  0  0  0  0  0  0  0  0  0  0  0
    6.2123    1.2560    2.1885 H   0  0  0  0  0  0  0  0  0  0  0  0
    7.9187   -1.2914    1.7576 H   0  0  0  0  0  0  0  0  0  0  0  0
    8.2757    0.0135    2.9430 H   0  0  0  0  0  0  0  0  0  0  0  0
    9.6569    0.2140    0.8167 H   0  0  0  0  0  0  0  0  0  0  0  0
    8.6141    1.6536    1.1302 H   0  0  0  0  0  0  0  0  0  0  0  0
    8.0588   -0.6249   -0.8842 H   0  0  0  0  0  0  0  0  0  0  0  0
    8.4831    1.0839   -1.2663 H   0  0  0  0  0  0  0  0  0  0  0  0
    6.0405    0.6200   -1.5020 H   0  0  0  0  0  0  0  0  0  0  0  0
    6.3367    1.8529   -0.2193 H   0  0  0  0  0  0  0  0  0  0  0  0
    3.6841   -1.9491   -0.0694 H   0  0  0  0  0  0  0  0  0  0  0  0
    1.4105   -2.0740   -0.5086 H   0  0  0  0  0  0  0  0  0  0  0  0
    0.1050   -0.5729    1.8108 H   0  0  0  0  0  0  0  0  0  0  0  0
    0.8302   -2.1935    1.7971 H   0  0  0  0  0  0  0  0  0  0  0  0
   -1.8678   -3.6197   -0.4551 H   0  0  0  0  0  0  0  0  0  0  0  0
   -0.1269   -3.6310   -0.1520 H   0  0  0  0  0  0  0  0  0  0  0  0
   -1.6884   -1.8695   -2.1676 H   0  0  0  0  0  0  0  0  0  0  0  0
   -0.1008   -2.6767   -2.3349 H   0  0  0  0  0  0  0  0  0  0  0  0
    0.3240   -0.1899   -2.0502 H   0  0  0  0  0  0  0  0  0  0  0  0
   -1.9955    0.4763   -1.2231 H   0  0  0  0  0  0  0  0  0  0  0  0
   -0.8569    0.8927    0.0647 H   0  0  0  0  0  0  0  0  0  0  0  0
   -2.8194   -1.4053   -0.1479 H   0  0  0  0  0  0  0  0  0  0  0  0
   -1.9444    0.2378    2.2861 H   0  0  0  0  0  0  0  0  0  0  0  0
   -3.2570   -0.9849    2.2595 H   0  0  0  0  0  0  0  0  0  0  0  0
   -3.4108    1.7551    1.3902 H   0  0  0  0  0  0  0  0  0  0  0  0
   -5.4179    2.5263    0.3688 H   0  0  0  0  0  0  0  0  0  0  0  0
   -5.6935    0.6201   -2.5908 H   0  0  0  0  0  0  0  0  0  0  0  0
   -7.7553    0.2429   -3.9017 H   0  0  0  0  0  0  0  0  0  0  0  0
   -9.9652    0.7725   -2.9209 H   0  0  0  0  0  0  0  0  0  0  0  0
   -8.0296    2.1700    0.6689 H   0  0  0  0  0  0  0  0  0  0  0  0
  1  2  1  0  0  0  0
  1 34  1  0  0  0  0
  1 35  1  0  0  0  0
  1 36  1  0  0  0  0
  2  3  1  0  0  0  0
  3  4  2  0  0  0  0
  4  5  1  0  0  0  0
  4 11  1  0  0  0  0
  5  6  1  0  0  0  0
  5 37  1  0  0  0  0
  6  7  1  0  0  0  0
  6 38  1  0  0  0  0
  6 39  1  0  0  0  0
  7  8  1  0  0  0  0
  7 40  1  0  0  0  0
  7 41  1  0  0  0  0
  8  9  1  0  0  0  0
  8 42  1  0  0  0  0
  8 43  1  0  0  0  0
  9 10  1  0  0  0  0
  9 44  1  0  0  0  0
  9 45  1  0  0  0  0
 10  5  1  0  0  0  0
 10 46  1  0  0  0  0
 10 47  1  0  0  0  0
 11 12  2  0  0  0  0
 11 48  1  0  0  0  0
 12  2  1  0  0  0  0
 13 12  1  0  0  0  0
 13 14  1  0  0  0  0
 13 49  1  6  0  0  0
 14 50  1  0  0  0  0
 14 51  1  0  0  0  0
 15 14  1  6  0  0  0
 15 16  1  0  0  0  0
 16 17  1  0  0  0  0
 16 52  1  0  0  0  0
 16 53  1  0  0  0  0
 17 54  1  0  0  0  0
 17 55  1  0  0  0  0
 18 17  1  0  0  0  0
 18 19  1  0  0  0  0
 18 13  1  0  0  0  0
 18 56  1  6  0  0  0
 19 20  1  0  0  0  0
 19 57  1  0  0  0  0
 19 58  1  0  0  0  0
 20 21  1  0  0  0  0
 20 15  1  0  0  0  0
 20 59  1  6  0  0  0
 21 22  1  0  0  0  0
 21 60  1  0  0  0  0
 21 61  1  0  0  0  0
 22 23  1  0  0  0  0
 22 62  1  0  0  0  0
 23 24  2  0  0  0  0
 23 25  1  0  0  0  0
 25 26  1  0  0  0  0
 25 63  1  0  0  0  0
 26 27  2  0  0  0  0
 27 28  1  0  0  0  0
 27 64  1  0  0  0  0
 28 29  2  0  0  0  0
 28 65  1  0  0  0  0
 29 30  1  0  0  0  0
 29 66  1  0  0  0  0
 30 31  1  0  0  0  0
 30 33  2  0  0  0  0
 31 32  3  0  0  0  0
 33 26  1  0  0  0  0
 33 67  1  0  0  0  0
M  END
>  <IDENTIFIER>
CNP0011178.1

>  <Energy>
897.353

$$$$
