
 OpenBabel09082510093D

 59 63  0  0  0  0  0  0  0  0999 V2000
    8.2646    2.3529   -0.6937 C   0  0  0  0  0  0  0  0  0  0  0  0
    7.6349    1.0636   -0.9487 N   0  0  0  0  0  0  0  0  0  0  0  0
    8.1960    0.1990   -1.9775 C   0  0  0  0  0  0  0  0  0  0  0  0
    6.4699    0.6555   -0.2001 C   0  0  0  0  0  0  0  0  0  0  0  0
    5.7793   -0.5388   -0.5088 C   0  0  0  0  0  0  0  0  0  0  0  0
    4.6378   -0.9190    0.2045 C   0  0  0  0  0  0  0  0  0  0  0  0
    4.1563   -0.1256    1.2573 C   0  0  0  0  0  0  0  0  0  0  0  0
    2.9533   -0.4691    2.0567 C   0  0  0  0  0  0  0  0  0  0  0  0
    2.8582   -0.1563    3.3655 N   0  0  0  0  0  0  0  0  0  0  0  0
    1.6606   -0.5628    3.7503 N   0  0  0  0  0  0  0  0  0  0  0  0
    1.0164   -1.0788    2.7187 N   0  0  0  0  0  0  0  0  0  0  0  0
    1.7878   -1.0312    1.6421 N   0  0  0  0  0  0  0  0  0  0  0  0
    1.3337   -1.4114    0.2823 C   0  0  1  0  0  0  0  0  0  0  0  0
    0.5347   -2.7077    0.3091 C   0  0  0  0  0  0  0  0  0  0  0  0
   -0.7886   -2.3837    0.7202 O   0  0  0  0  0  0  0  0  0  0  0  0
   -0.9307   -0.9696    0.5885 C   0  0  1  0  0  0  0  0  0  0  0  0
    0.2555   -0.4786   -0.2051 C   0  0  2  0  0  0  0  0  0  0  0  0
   -0.0490   -0.6961   -1.5843 O   0  0  0  0  0  0  0  0  0  0  0  0
   -1.4351   -0.9957   -1.6575 C   0  0  0  0  0  0  0  0  0  0  0  0
   -2.0262   -0.5605   -0.3380 C   0  0  1  0  0  0  0  0  0  0  0  0
   -3.2297   -1.1639   -0.0183 O   0  0  0  0  0  0  0  0  0  0  0  0
   -4.3496   -0.4945    0.3661 C   0  0  0  0  0  0  0  0  0  0  0  0
   -4.4010    0.7269    0.2971 O   0  0  0  0  0  0  0  0  0  0  0  0
   -5.3931   -1.1960    0.8810 N   0  0  0  0  0  0  0  0  0  0  0  0
   -6.5929   -0.5561    1.3936 C   0  0  0  0  0  0  0  0  0  0  0  0
   -7.3614    0.1308    0.2955 C   0  0  0  0  0  0  0  0  0  0  0  0
   -7.5862    1.5178    0.3361 C   0  0  0  0  0  0  0  0  0  0  0  0
   -8.3121    2.1423   -0.6833 C   0  0  0  0  0  0  0  0  0  0  0  0
   -8.8195    1.3885   -1.7452 C   0  0  0  0  0  0  0  0  0  0  0  0
   -8.5999    0.0091   -1.7912 C   0  0  0  0  0  0  0  0  0  0  0  0
   -7.8727   -0.6188   -0.7758 C   0  0  0  0  0  0  0  0  0  0  0  0
    4.8579    1.0406    1.5929 C   0  0  0  0  0  0  0  0  0  0  0  0
    5.9831    1.4351    0.8704 C   0  0  0  0  0  0  0  0  0  0  0  0
    9.1364    2.5349   -1.3559 H   0  0  0  0  0  0  0  0  0  0  0  0
    8.6259    2.4016    0.3547 H   0  0  0  0  0  0  0  0  0  0  0  0
    7.5316    3.1680   -0.8766 H   0  0  0  0  0  0  0  0  0  0  0  0
    9.0914    0.6446   -2.4591 H   0  0  0  0  0  0  0  0  0  0  0  0
    7.4444    0.0171   -2.7740 H   0  0  0  0  0  0  0  0  0  0  0  0
    8.5059   -0.7668   -1.5244 H   0  0  0  0  0  0  0  0  0  0  0  0
    6.1084   -1.1911   -1.3048 H   0  0  0  0  0  0  0  0  0  0  0  0
    4.1686   -1.8539   -0.0580 H   0  0  0  0  0  0  0  0  0  0  0  0
    2.1705   -1.4096   -0.4281 H   0  0  0  0  0  0  0  0  0  0  0  0
    1.0114   -3.4685    0.9632 H   0  0  0  0  0  0  0  0  0  0  0  0
    0.4678   -3.1235   -0.7210 H   0  0  0  0  0  0  0  0  0  0  0  0
   -1.0449   -0.5201    1.5962 H   0  0  0  0  0  0  0  0  0  0  0  0
    0.4810    0.6031   -0.0710 H   0  0  0  0  0  0  0  0  0  0  0  0
   -1.5411   -2.0954   -1.7907 H   0  0  0  0  0  0  0  0  0  0  0  0
   -1.9309   -0.4753   -2.5040 H   0  0  0  0  0  0  0  0  0  0  0  0
   -2.0862    0.5551   -0.3239 H   0  0  0  0  0  0  0  0  0  0  0  0
   -5.3133   -2.2202    0.9566 H   0  0  0  0  0  0  0  0  0  0  0  0
   -6.3056    0.1588    2.1959 H   0  0  0  0  0  0  0  0  0  0  0  0
   -7.2542   -1.3235    1.8506 H   0  0  0  0  0  0  0  0  0  0  0  0
   -7.2016    2.1150    1.1535 H   0  0  0  0  0  0  0  0  0  0  0  0
   -8.4832    3.2106   -0.6488 H   0  0  0  0  0  0  0  0  0  0  0  0
   -9.3838    1.8728   -2.5315 H   0  0  0  0  0  0  0  0  0  0  0  0
   -8.9950   -0.5746   -2.6125 H   0  0  0  0  0  0  0  0  0  0  0  0
   -7.7115   -1.6890   -0.8197 H   0  0  0  0  0  0  0  0  0  0  0  0
    4.5173    1.6711    2.4057 H   0  0  0  0  0  0  0  0  0  0  0  0
    6.4639    2.3562    1.1662 H   0  0  0  0  0  0  0  0  0  0  0  0
  1  2  1  0  0  0  0
  1 34  1  0  0  0  0
  1 35  1  0  0  0  0
  1 36  1  0  0  0  0
  2  3  1  0  0  0  0
  2  4  1  0  0  0  0
  3 37  1  0  0  0  0
  3 38  1  0  0  0  0
  3 39  1  0  0  0  0
  4  5  2  0  0  0  0
  5  6  1  0  0  0  0
  5 40  1  0  0  0  0
  6  7  2  0  0  0  0
  6 41  1  0  0  0  0
  7  8  1  0  0  0  0
  7 32  1  0  0  0  0
  8  9  2  0  0  0  0
  9 10  1  0  0  0  0
 10 11  2  0  0  0  0
 11 12  1  0  0  0  0
 12  8  1  0  0  0  0
 13 12  1  0  0  0  0
 13 14  1  0  0  0  0
 13 42  1  6  0  0  0
 14 15  1  0  0  0  0
 14 43  1  0  0  0  0
 14 44  1  0  0  0  0
 16 15  1  0  0  0  0
 16 17  1  0  0  0  0
 16 45  1  1  0  0  0
 17 18  1  0  0  0  0
 17 13  1  0  0  0  0
 17 46  1  1  0  0  0
 18 19  1  0  0  0  0
 19 20  1  0  0  0  0
 19 47  1  0  0  0  0
 19 48  1  0  0  0  0
 20 21  1  0  0  0  0
 20 16  1  0  0  0  0
 20 49  1  1  0  0  0
 21 22  1  0  0  0  0
 22 23  2  0  0  0  0
 22 24  1  0  0  0  0
 24 25  1  0  0  0  0
 24 50  1  0  0  0  0
 25 26  1  0  0  0  0
 25 51  1  0  0  0  0
 25 52  1  0  0  0  0
 26 27  2  0  0  0  0
 27 28  1  0  0  0  0
 27 53  1  0  0  0  0
 28 29  2  0  0  0  0
 28 54  1  0  0  0  0
 29 30  1  0  0  0  0
 29 55  1  0  0  0  0
 30 31  2  0  0  0  0
 30 56  1  0  0  0  0
 31 26  1  0  0  0  0
 31 57  1  0  0  0  0
 32 33  2  0  0  0  0
 32 58  1  0  0  0  0
 33  4  1  0  0  0  0
 33 59  1  0  0  0  0
M  END
>  <IDENTIFIER>
CNP0052751.1

>  <Energy>
723.749

$$$$
