
 OpenBabel09112520043D

 74 77  0  0  0  0  0  0  0  0999 V2000
    6.7789    0.5116   -0.8686 C   0  0  0  0  0  0  0  0  0  0  0  0
    5.7709    1.1048   -0.1890 C   0  0  0  0  0  0  0  0  0  0  0  0
    4.7200    1.8490   -1.0173 C   0  0  0  0  0  0  0  0  0  0  0  0
    3.2584    1.3442   -1.0460 C   0  0  0  0  0  0  0  0  0  0  0  0
    3.0239   -0.0419   -1.7171 C   0  0  1  0  0  0  0  0  0  0  0  0
    3.5813   -1.2128   -0.8795 C   0  0  0  0  0  0  0  0  0  0  0  0
    1.5177   -0.2296   -2.1265 C   0  0  1  0  0  0  0  0  0  0  0  0
    1.1933   -1.5364   -2.9152 C   0  0  0  0  0  0  0  0  0  0  0  0
   -0.1736   -2.0040   -2.4082 C   0  0  0  0  0  0  0  0  0  0  0  0
   -0.8187   -0.7172   -1.9124 C   0  0  1  0  0  0  0  0  0  0  0  0
   -2.0778   -0.7756   -1.0509 C   0  0  0  0  0  0  0  0  0  0  0  0
   -2.4900    0.3793   -0.4373 C   0  0  0  0  0  0  0  0  0  0  0  0
   -1.5628    1.5810   -0.4993 C   0  0  0  0  0  0  0  0  0  0  0  0
   -1.9459    2.6845   -0.1473 O   0  0  0  0  0  0  0  0  0  0  0  0
   -0.1200    1.4586   -0.9661 C   0  0  0  0  0  0  0  0  0  0  0  0
    0.3146   -0.0252   -1.1440 C   0  0  2  0  0  0  0  0  0  0  0  0
    0.5554   -0.6727    0.2551 C   0  0  0  0  0  0  0  0  0  0  0  0
   -3.8195    0.4466    0.3741 C   0  0  1  0  0  0  0  0  0  0  0  0
   -3.4142    0.6852    1.8548 C   0  0  0  0  0  0  0  0  0  0  0  0
   -4.7468    1.5805   -0.1570 C   0  0  0  0  0  0  0  0  0  0  0  0
   -6.0348    1.7464    0.6660 C   0  0  0  0  0  0  0  0  0  0  0  0
   -6.6346    0.4636    1.1985 C   0  0  0  0  0  0  0  0  0  0  0  0
   -7.6520    0.5550    1.8700 O   0  0  0  0  0  0  0  0  0  0  0  0
   -5.9437   -0.8900    1.1072 C   0  0  1  0  0  0  0  0  0  0  0  0
   -6.9568   -1.9606    0.6590 C   0  0  0  0  0  0  0  0  0  0  0  0
   -4.6959   -0.8559    0.1768 C   0  0  2  0  0  0  0  0  0  0  0  0
   -3.8292   -2.1096    0.2758 C   0  0  0  0  0  0  0  0  0  0  0  0
   -2.8324   -2.0393   -0.8398 C   0  0  0  0  0  0  0  0  0  0  0  0
   -2.6672   -3.0093   -1.5607 O   0  0  0  0  0  0  0  0  0  0  0  0
    5.7544    1.1337    1.3562 C   0  0  1  0  0  0  0  0  0  0  0  0
    4.6817    0.2148    1.9621 C   0  0  0  0  0  0  0  0  0  0  0  0
    7.1196    0.8225    1.9682 C   0  0  0  0  0  0  0  0  0  0  0  0
    7.2708   -0.1218    2.7293 O   0  0  0  0  0  0  0  0  0  0  0  0
    8.1847    1.6026    1.6822 O   0  0  0  0  0  0  0  0  0  0  0  0
    6.8122    0.5263   -1.9539 H   0  0  0  0  0  0  0  0  0  0  0  0
    7.5877   -0.0136   -0.3750 H   0  0  0  0  0  0  0  0  0  0  0  0
    5.0374    1.8920   -2.0828 H   0  0  0  0  0  0  0  0  0  0  0  0
    4.7171    2.9011   -0.6586 H   0  0  0  0  0  0  0  0  0  0  0  0
    2.7240    2.0953   -1.6687 H   0  0  0  0  0  0  0  0  0  0  0  0
    2.7972    1.4002   -0.0490 H   0  0  0  0  0  0  0  0  0  0  0  0
    3.5867   -0.0498   -2.6774 H   0  0  0  0  0  0  0  0  0  0  0  0
    3.1136   -1.2883    0.1137 H   0  0  0  0  0  0  0  0  0  0  0  0
    4.6683   -1.1173   -0.7366 H   0  0  0  0  0  0  0  0  0  0  0  0
    3.4545   -2.1842   -1.3886 H   0  0  0  0  0  0  0  0  0  0  0  0
    1.3442    0.5619   -2.8941 H   0  0  0  0  0  0  0  0  0  0  0  0
    1.9135   -2.3726   -2.8483 H   0  0  0  0  0  0  0  0  0  0  0  0
    1.1170   -1.2657   -3.9931 H   0  0  0  0  0  0  0  0  0  0  0  0
   -0.0129   -2.6748   -1.5399 H   0  0  0  0  0  0  0  0  0  0  0  0
   -0.7475   -2.5728   -3.1700 H   0  0  0  0  0  0  0  0  0  0  0  0
   -1.0544   -0.1060   -2.8185 H   0  0  0  0  0  0  0  0  0  0  0  0
    0.5626    1.9609   -0.2503 H   0  0  0  0  0  0  0  0  0  0  0  0
   -0.0698    2.0155   -1.9269 H   0  0  0  0  0  0  0  0  0  0  0  0
    1.3451   -0.1255    0.8026 H   0  0  0  0  0  0  0  0  0  0  0  0
    0.8519   -1.7367    0.1955 H   0  0  0  0  0  0  0  0  0  0  0  0
   -0.3438   -0.6133    0.9011 H   0  0  0  0  0  0  0  0  0  0  0  0
   -2.8665    1.6432    1.9668 H   0  0  0  0  0  0  0  0  0  0  0  0
   -2.7510   -0.1260    2.2190 H   0  0  0  0  0  0  0  0  0  0  0  0
   -4.2844    0.7401    2.5364 H   0  0  0  0  0  0  0  0  0  0  0  0
   -5.0266    1.3297   -1.2052 H   0  0  0  0  0  0  0  0  0  0  0  0
   -4.2713    2.5767   -0.2070 H   0  0  0  0  0  0  0  0  0  0  0  0
   -6.7741    2.3136    0.0604 H   0  0  0  0  0  0  0  0  0  0  0  0
   -5.7979    2.3589    1.5629 H   0  0  0  0  0  0  0  0  0  0  0  0
   -5.6218   -1.1448    2.1409 H   0  0  0  0  0  0  0  0  0  0  0  0
   -7.3265   -1.7455   -0.3659 H   0  0  0  0  0  0  0  0  0  0  0  0
   -7.8249   -1.9810    1.3523 H   0  0  0  0  0  0  0  0  0  0  0  0
   -6.5174   -2.9764    0.6795 H   0  0  0  0  0  0  0  0  0  0  0  0
   -5.0891   -0.8494   -0.8687 H   0  0  0  0  0  0  0  0  0  0  0  0
   -4.4006   -3.0540    0.1780 H   0  0  0  0  0  0  0  0  0  0  0  0
   -3.3103   -2.1261    1.2556 H   0  0  0  0  0  0  0  0  0  0  0  0
    5.5288    2.1755    1.6699 H   0  0  0  0  0  0  0  0  0  0  0  0
    4.8788   -0.8440    1.6923 H   0  0  0  0  0  0  0  0  0  0  0  0
    3.6665    0.4946    1.6481 H   0  0  0  0  0  0  0  0  0  0  0  0
    4.6949    0.2981    3.0702 H   0  0  0  0  0  0  0  0  0  0  0  0
    8.1106    2.3666    1.0945 H   0  0  0  0  0  0  0  0  0  0  0  0
  1  2  2  0  0  0  0
  1 35  1  0  0  0  0
  1 36  1  0  0  0  0
  2  3  1  0  0  0  0
  2 30  1  0  0  0  0
  3  4  1  0  0  0  0
  3 37  1  0  0  0  0
  3 38  1  0  0  0  0
  4  5  1  0  0  0  0
  4 39  1  0  0  0  0
  4 40  1  0  0  0  0
  5  6  1  0  0  0  0
  5  7  1  0  0  0  0
  5 41  1  6  0  0  0
  6 42  1  0  0  0  0
  6 43  1  0  0  0  0
  6 44  1  0  0  0  0
  7  8  1  0  0  0  0
  7 45  1  6  0  0  0
  8  9  1  0  0  0  0
  8 46  1  0  0  0  0
  8 47  1  0  0  0  0
  9 48  1  0  0  0  0
  9 49  1  0  0  0  0
 10  9  1  0  0  0  0
 10 11  1  0  0  0  0
 10 50  1  6  0  0  0
 11 12  2  0  0  0  0
 12 13  1  0  0  0  0
 12 18  1  0  0  0  0
 13 14  2  0  0  0  0
 13 15  1  0  0  0  0
 15 16  1  0  0  0  0
 15 51  1  0  0  0  0
 15 52  1  0  0  0  0
 16 17  1  1  0  0  0
 16  7  1  0  0  0  0
 16 10  1  0  0  0  0
 17 53  1  0  0  0  0
 17 54  1  0  0  0  0
 17 55  1  0  0  0  0
 18 19  1  1  0  0  0
 18 20  1  0  0  0  0
 19 56  1  0  0  0  0
 19 57  1  0  0  0  0
 19 58  1  0  0  0  0
 20 21  1  0  0  0  0
 20 59  1  0  0  0  0
 20 60  1  0  0  0  0
 21 22  1  0  0  0  0
 21 61  1  0  0  0  0
 21 62  1  0  0  0  0
 22 23  2  0  0  0  0
 22 24  1  0  0  0  0
 24 25  1  0  0  0  0
 24 26  1  0  0  0  0
 24 63  1  1  0  0  0
 25 64  1  0  0  0  0
 25 65  1  0  0  0  0
 25 66  1  0  0  0  0
 26 27  1  0  0  0  0
 26 18  1  0  0  0  0
 26 67  1  6  0  0  0
 27 28  1  0  0  0  0
 27 68  1  0  0  0  0
 27 69  1  0  0  0  0
 28 29  2  0  0  0  0
 28 11  1  0  0  0  0
 30 31  1  0  0  0  0
 30 32  1  0  0  0  0
 30 70  1  1  0  0  0
 31 71  1  0  0  0  0
 31 72  1  0  0  0  0
 31 73  1  0  0  0  0
 32 33  2  0  0  0  0
 32 34  1  0  0  0  0
 34 74  1  0  0  0  0
M  END
>  <IDENTIFIER>
CNP0174168.3

>  <Energy>
756.036

$$$$
