
 OpenBabel09102516593D

 71 77  0  0  0  0  0  0  0  0999 V2000
    5.3148   -2.8563    1.3525 C   0  0  0  0  0  0  0  0  0  0  0  0
    4.3608   -2.4939    0.2439 C   0  0  0  0  0  0  0  0  0  0  0  0
    3.2124   -3.4229   -0.0754 C   0  0  0  0  0  0  0  0  0  0  0  0
    4.5629   -1.3358   -0.4280 C   0  0  0  0  0  0  0  0  0  0  0  0
    3.6960   -0.8342   -1.5569 C   0  0  0  0  0  0  0  0  0  0  0  0
    3.0560    0.4582   -1.3037 N   0  0  0  0  0  0  0  0  0  0  0  0
    3.1889    1.3275   -0.1902 C   0  0  0  0  0  0  0  0  0  0  0  0
    3.5337    1.0337    1.1385 C   0  0  0  0  0  0  0  0  0  0  0  0
    3.6239    2.0917    2.0568 C   0  0  0  0  0  0  0  0  0  0  0  0
    3.3880    3.4159    1.6453 C   0  0  0  0  0  0  0  0  0  0  0  0
    3.0514    3.6923    0.3120 C   0  0  0  0  0  0  0  0  0  0  0  0
    2.9419    2.6258   -0.5821 C   0  0  0  0  0  0  0  0  0  0  0  0
    2.6341    2.6613   -2.0589 C   0  0  2  0  0  0  0  0  0  0  0  0
    3.7527    3.1099   -2.7792 O   0  0  0  0  0  0  0  0  0  0  0  0
    1.3427    3.3828   -2.4435 C   0  0  0  0  0  0  0  0  0  0  0  0
    0.2498    2.4134   -2.0042 C   0  0  2  0  0  0  0  0  0  0  0  0
   -0.4356    2.6188   -0.6939 C   0  0  0  0  0  0  0  0  0  0  0  0
   -0.3479    3.7084   -0.1405 O   0  0  0  0  0  0  0  0  0  0  0  0
   -1.2574    1.6163   -0.2069 N   0  0  0  0  0  0  0  0  0  0  0  0
   -2.0053    1.9735    0.9699 C   0  0  0  0  0  0  0  0  0  0  0  0
   -3.2884    1.7247    1.2763 C   0  0  0  0  0  0  0  0  0  0  0  0
   -4.3354    0.9389    0.5321 C   0  0  0  0  0  0  0  0  0  0  0  0
   -4.3903    1.2788   -0.9733 C   0  0  0  0  0  0  0  0  0  0  0  0
   -5.7159    1.3345    1.1221 C   0  0  0  0  0  0  0  0  0  0  0  0
   -4.0570   -0.5228    0.7742 C   0  0  0  0  0  0  0  0  0  0  0  0
   -2.9455   -1.2473    0.3378 C   0  0  0  0  0  0  0  0  0  0  0  0
   -1.7635   -0.8781   -0.4688 C   0  0  0  0  0  0  0  0  0  0  0  0
   -1.0835    0.2672   -0.7733 C   0  0  0  0  0  0  0  0  0  0  0  0
    0.1730    0.0496   -1.6080 C   0  0  0  0  0  0  0  0  0  0  0  0
    0.6304   -1.0700   -1.7770 O   0  0  0  0  0  0  0  0  0  0  0  0
    0.8833    1.1350   -2.0017 N   0  0  0  0  0  0  0  0  0  0  0  0
    2.3067    1.1669   -2.3301 C   0  0  2  0  0  0  0  0  0  0  0  0
   -3.1544   -2.5483    0.7888 C   0  0  0  0  0  0  0  0  0  0  0  0
   -2.3813   -3.7118    0.6611 C   0  0  0  0  0  0  0  0  0  0  0  0
   -2.8568   -4.8937    1.2550 C   0  0  0  0  0  0  0  0  0  0  0  0
   -4.0790   -4.8970    1.9575 C   0  0  0  0  0  0  0  0  0  0  0  0
   -4.8355   -3.7178    2.0697 C   0  0  0  0  0  0  0  0  0  0  0  0
   -4.3356   -2.5613    1.4706 C   0  0  0  0  0  0  0  0  0  0  0  0
   -4.8959   -1.3463    1.4655 N   0  0  0  0  0  0  0  0  0  0  0  0
    5.0455   -3.8224    1.8283 H   0  0  0  0  0  0  0  0  0  0  0  0
    5.2969   -2.0686    2.1351 H   0  0  0  0  0  0  0  0  0  0  0  0
    6.3450   -2.9445    0.9476 H   0  0  0  0  0  0  0  0  0  0  0  0
    3.2095   -4.3141    0.5861 H   0  0  0  0  0  0  0  0  0  0  0  0
    3.2930   -3.7808   -1.1236 H   0  0  0  0  0  0  0  0  0  0  0  0
    2.2465   -2.8927    0.0646 H   0  0  0  0  0  0  0  0  0  0  0  0
    5.4066   -0.7096   -0.1486 H   0  0  0  0  0  0  0  0  0  0  0  0
    2.9253   -1.5734   -1.8230 H   0  0  0  0  0  0  0  0  0  0  0  0
    4.3510   -0.7329   -2.4479 H   0  0  0  0  0  0  0  0  0  0  0  0
    3.7134    0.0302    1.4861 H   0  0  0  0  0  0  0  0  0  0  0  0
    3.8806    1.8872    3.0882 H   0  0  0  0  0  0  0  0  0  0  0  0
    3.4690    4.2248    2.3592 H   0  0  0  0  0  0  0  0  0  0  0  0
    2.8765    4.7091   -0.0139 H   0  0  0  0  0  0  0  0  0  0  0  0
    3.8797    4.0671   -2.5474 H   0  0  0  0  0  0  0  0  0  0  0  0
    1.3363    3.3730   -3.5579 H   0  0  0  0  0  0  0  0  0  0  0  0
    1.2292    4.4396   -2.1218 H   0  0  0  0  0  0  0  0  0  0  0  0
   -0.5709    2.4238   -2.7565 H   0  0  0  0  0  0  0  0  0  0  0  0
   -1.5360    2.6730    1.6609 H   0  0  0  0  0  0  0  0  0  0  0  0
   -3.6278    2.2255    2.1822 H   0  0  0  0  0  0  0  0  0  0  0  0
   -4.5944    2.3613   -1.1217 H   0  0  0  0  0  0  0  0  0  0  0  0
   -5.2002    0.6985   -1.4669 H   0  0  0  0  0  0  0  0  0  0  0  0
   -3.4535    1.0405   -1.5039 H   0  0  0  0  0  0  0  0  0  0  0  0
   -5.9138    2.4172    0.9631 H   0  0  0  0  0  0  0  0  0  0  0  0
   -5.7613    1.1487    2.2178 H   0  0  0  0  0  0  0  0  0  0  0  0
   -6.5359    0.7655    0.6311 H   0  0  0  0  0  0  0  0  0  0  0  0
   -1.3596   -1.7782   -0.9113 H   0  0  0  0  0  0  0  0  0  0  0  0
    2.4527    0.7730   -3.3600 H   0  0  0  0  0  0  0  0  0  0  0  0
   -1.4381   -3.7222    0.1332 H   0  0  0  0  0  0  0  0  0  0  0  0
   -2.2778   -5.8047    1.1755 H   0  0  0  0  0  0  0  0  0  0  0  0
   -4.4346   -5.8115    2.4135 H   0  0  0  0  0  0  0  0  0  0  0  0
   -5.7738   -3.7088    2.6084 H   0  0  0  0  0  0  0  0  0  0  0  0
   -5.8058   -1.1156    1.9205 H   0  0  0  0  0  0  0  0  0  0  0  0
  1  2  1  0  0  0  0
  1 40  1  0  0  0  0
  1 41  1  0  0  0  0
  1 42  1  0  0  0  0
  2  3  1  0  0  0  0
  2  4  2  0  0  0  0
  3 43  1  0  0  0  0
  3 44  1  0  0  0  0
  3 45  1  0  0  0  0
  4  5  1  0  0  0  0
  4 46  1  0  0  0  0
  5  6  1  0  0  0  0
  5 47  1  0  0  0  0
  5 48  1  0  0  0  0
  6  7  1  0  0  0  0
  7  8  2  0  0  0  0
  8  9  1  0  0  0  0
  8 49  1  0  0  0  0
  9 10  2  0  0  0  0
  9 50  1  0  0  0  0
 10 11  1  0  0  0  0
 10 51  1  0  0  0  0
 11 12  2  0  0  0  0
 11 52  1  0  0  0  0
 12 13  1  0  0  0  0
 12  7  1  0  0  0  0
 13 14  1  6  0  0  0
 13 15  1  0  0  0  0
 14 53  1  0  0  0  0
 15 54  1  0  0  0  0
 15 55  1  0  0  0  0
 16 15  1  0  0  0  0
 16 17  1  0  0  0  0
 16 56  1  6  0  0  0
 17 18  2  0  0  0  0
 17 19  1  0  0  0  0
 19 20  1  0  0  0  0
 20 21  2  0  0  0  0
 20 57  1  0  0  0  0
 21 22  1  0  0  0  0
 21 58  1  0  0  0  0
 22 23  1  0  0  0  0
 22 24  1  0  0  0  0
 22 25  1  0  0  0  0
 23 59  1  0  0  0  0
 23 60  1  0  0  0  0
 23 61  1  0  0  0  0
 24 62  1  0  0  0  0
 24 63  1  0  0  0  0
 24 64  1  0  0  0  0
 25 26  2  0  0  0  0
 26 27  1  0  0  0  0
 26 33  1  0  0  0  0
 27 28  2  0  0  0  0
 27 65  1  0  0  0  0
 28 29  1  0  0  0  0
 28 19  1  0  0  0  0
 29 30  2  0  0  0  0
 29 31  1  0  0  0  0
 31 32  1  0  0  0  0
 31 16  1  0  0  0  0
 32  6  1  0  0  0  0
 32 13  1  0  0  0  0
 32 66  1  6  0  0  0
 33 34  2  0  0  0  0
 34 35  1  0  0  0  0
 34 67  1  0  0  0  0
 35 36  2  0  0  0  0
 35 68  1  0  0  0  0
 36 37  1  0  0  0  0
 36 69  1  0  0  0  0
 37 38  2  0  0  0  0
 37 70  1  0  0  0  0
 38 39  1  0  0  0  0
 38 33  1  0  0  0  0
 39 25  1  0  0  0  0
 39 71  1  0  0  0  0
M  END
>  <IDENTIFIER>
CNP0359750.1

>  <Energy>
1184.46

$$$$
