
 OpenBabel09062502283D

 43 47  0  0  0  0  0  0  0  0999 V2000
    7.4730   -0.6832   -0.3904 C   0  0  0  0  0  0  0  0  0  0  0  0
    6.3344   -0.2971    0.2851 O   0  0  0  0  0  0  0  0  0  0  0  0
    5.0671   -0.3616   -0.1997 C   0  0  0  0  0  0  0  0  0  0  0  0
    4.0158    0.0602    0.6378 C   0  0  0  0  0  0  0  0  0  0  0  0
    2.7108   -0.0106    0.1528 C   0  0  0  0  0  0  0  0  0  0  0  0
    1.5672    0.3158    0.7403 C   0  0  0  0  0  0  0  0  0  0  0  0
    1.2834    0.8471    2.1025 C   0  0  0  0  0  0  0  0  0  0  0  0
   -0.2341    1.1030    2.3500 C   0  0  0  0  0  0  0  0  0  0  0  0
   -1.1633    0.7026    1.2807 N   0  0  0  0  0  0  0  0  0  0  0  0
   -2.5632    0.8586    1.5281 C   0  0  0  0  0  0  0  0  0  0  0  0
   -3.4862    0.5067    0.6086 C   0  0  0  0  0  0  0  0  0  0  0  0
   -4.9547    0.6261    0.9532 C   0  0  0  0  0  0  0  0  0  0  0  0
   -5.8512   -0.1646   -0.0127 C   0  0  0  0  0  0  0  0  0  0  0  0
   -5.4931    0.1689   -1.4541 C   0  0  0  0  0  0  0  0  0  0  0  0
   -4.0858   -0.3482   -1.7922 C   0  0  0  0  0  0  0  0  0  0  0  0
   -3.0607   -0.0095   -0.7306 C   0  0  0  0  0  0  0  0  0  0  0  0
   -1.7559   -0.1816   -1.0015 C   0  0  0  0  0  0  0  0  0  0  0  0
   -0.7408    0.1707    0.0151 C   0  0  0  0  0  0  0  0  0  0  0  0
    0.5564    0.0105   -0.2258 C   0  0  0  0  0  0  0  0  0  0  0  0
    1.1755   -0.4892   -1.3950 N   0  0  0  0  0  0  0  0  0  0  0  0
    2.4308   -0.4822   -1.1214 C   0  0  0  0  0  0  0  0  0  0  0  0
    3.4488   -0.9003   -1.9734 C   0  0  0  0  0  0  0  0  0  0  0  0
    4.7742   -0.8391   -1.5087 C   0  0  0  0  0  0  0  0  0  0  0  0
    8.3549   -0.5209    0.2637 H   0  0  0  0  0  0  0  0  0  0  0  0
    7.5985   -0.0753   -1.3118 H   0  0  0  0  0  0  0  0  0  0  0  0
    7.4194   -1.7620   -0.6486 H   0  0  0  0  0  0  0  0  0  0  0  0
    4.2178    0.4265    1.6368 H   0  0  0  0  0  0  0  0  0  0  0  0
    1.8459    1.7919    2.2637 H   0  0  0  0  0  0  0  0  0  0  0  0
    1.6560    0.0993    2.8356 H   0  0  0  0  0  0  0  0  0  0  0  0
   -0.3783    2.1885    2.5421 H   0  0  0  0  0  0  0  0  0  0  0  0
   -0.5106    0.5762    3.2901 H   0  0  0  0  0  0  0  0  0  0  0  0
   -2.8919    1.2365    2.4936 H   0  0  0  0  0  0  0  0  0  0  0  0
   -5.2198    1.7060    0.9512 H   0  0  0  0  0  0  0  0  0  0  0  0
   -5.1483    0.2218    1.9708 H   0  0  0  0  0  0  0  0  0  0  0  0
   -6.9118    0.0901    0.1988 H   0  0  0  0  0  0  0  0  0  0  0  0
   -5.7183   -1.2585    0.1437 H   0  0  0  0  0  0  0  0  0  0  0  0
   -5.5410    1.2731   -1.5796 H   0  0  0  0  0  0  0  0  0  0  0  0
   -6.2181   -0.2920   -2.1593 H   0  0  0  0  0  0  0  0  0  0  0  0
   -3.8024    0.0992   -2.7699 H   0  0  0  0  0  0  0  0  0  0  0  0
   -4.0933   -1.4544   -1.9036 H   0  0  0  0  0  0  0  0  0  0  0  0
   -1.4467   -0.5632   -1.9715 H   0  0  0  0  0  0  0  0  0  0  0  0
    3.2282   -1.2672   -2.9679 H   0  0  0  0  0  0  0  0  0  0  0  0
    5.5638   -1.1677   -2.1706 H   0  0  0  0  0  0  0  0  0  0  0  0
  1  2  1  0  0  0  0
  1 24  1  0  0  0  0
  1 25  1  0  0  0  0
  1 26  1  0  0  0  0
  2  3  1  0  0  0  0
  3  4  2  0  0  0  0
  4  5  1  0  0  0  0
  4 27  1  0  0  0  0
  5  6  2  0  0  0  0
  6  7  1  0  0  0  0
  7  8  1  0  0  0  0
  7 28  1  0  0  0  0
  7 29  1  0  0  0  0
  8  9  1  0  0  0  0
  8 30  1  0  0  0  0
  8 31  1  0  0  0  0
  9 10  1  0  0  0  0
 10 11  2  0  0  0  0
 10 32  1  0  0  0  0
 11 12  1  0  0  0  0
 12 13  1  0  0  0  0
 12 33  1  0  0  0  0
 12 34  1  0  0  0  0
 13 14  1  0  0  0  0
 13 35  1  0  0  0  0
 13 36  1  0  0  0  0
 14 15  1  0  0  0  0
 14 37  1  0  0  0  0
 14 38  1  0  0  0  0
 15 16  1  0  0  0  0
 15 39  1  0  0  0  0
 15 40  1  0  0  0  0
 16 17  2  0  0  0  0
 16 11  1  0  0  0  0
 17 18  1  0  0  0  0
 17 41  1  0  0  0  0
 18 19  2  0  0  0  0
 18  9  1  0  0  0  0
 19 20  1  0  0  0  0
 19  6  1  0  0  0  0
 20 21  2  0  0  0  0
 21 22  1  0  0  0  0
 21  5  1  0  0  0  0
 22 23  2  0  0  0  0
 22 42  1  0  0  0  0
 23  3  1  0  0  0  0
 23 43  1  0  0  0  0
M  END
>  <IDENTIFIER>
CNP0516236.0

>  <Energy>
465.16

$$$$
