
 OpenBabel09082523113D

 39 41  0  0  0  0  0  0  0  0999 V2000
   -2.2676    1.7834    1.5362 C   0  0  0  0  0  0  0  0  0  0  0  0
   -1.9726    0.4491    0.8107 C   0  0  0  0  0  0  0  0  0  0  0  0
   -1.3009   -0.5004    1.8347 C   0  0  0  0  0  0  0  0  0  0  0  0
   -3.2803   -0.1410    0.1861 C   0  0  2  0  0  0  0  0  0  0  0  0
   -3.0793   -1.5984   -0.2633 C   0  0  0  0  0  0  0  0  0  0  0  0
   -2.0443   -1.4716   -1.3848 C   0  0  0  0  0  0  0  0  0  0  0  0
   -1.9511    0.0549   -1.5859 C   0  0  1  0  0  0  0  0  0  0  0  0
   -3.3465    0.5281   -1.1910 C   0  0  0  0  0  0  0  0  0  0  0  0
   -1.1204    0.7111   -0.4621 C   0  0  2  0  0  0  0  0  0  0  0  0
    0.1893    0.2477   -0.3843 O   0  0  0  0  0  0  0  0  0  0  0  0
    1.2923    1.0397   -0.5072 C   0  0  0  0  0  0  0  0  0  0  0  0
    1.1685    2.2385   -0.7239 O   0  0  0  0  0  0  0  0  0  0  0  0
    2.6579    0.4698   -0.3698 C   0  0  0  0  0  0  0  0  0  0  0  0
    2.8500   -0.8989   -0.1151 C   0  0  0  0  0  0  0  0  0  0  0  0
    4.1460   -1.4186    0.0135 C   0  0  0  0  0  0  0  0  0  0  0  0
    5.2615   -0.5766   -0.1105 C   0  0  0  0  0  0  0  0  0  0  0  0
    6.5145   -1.0611    0.0103 O   0  0  0  0  0  0  0  0  0  0  0  0
    5.0748    0.7838   -0.3633 C   0  0  0  0  0  0  0  0  0  0  0  0
    3.7856    1.3052   -0.4918 C   0  0  0  0  0  0  0  0  0  0  0  0
   -2.9354    1.6098    2.4071 H   0  0  0  0  0  0  0  0  0  0  0  0
   -2.7649    2.5175    0.8691 H   0  0  0  0  0  0  0  0  0  0  0  0
   -1.3220    2.2387    1.9024 H   0  0  0  0  0  0  0  0  0  0  0  0
   -1.9945   -0.7156    2.6756 H   0  0  0  0  0  0  0  0  0  0  0  0
   -0.3814   -0.0328    2.2467 H   0  0  0  0  0  0  0  0  0  0  0  0
   -0.9867   -1.4599    1.3775 H   0  0  0  0  0  0  0  0  0  0  0  0
   -4.1677   -0.0490    0.8497 H   0  0  0  0  0  0  0  0  0  0  0  0
   -4.0487   -1.9266   -0.7084 H   0  0  0  0  0  0  0  0  0  0  0  0
   -2.8362   -2.3453    0.5191 H   0  0  0  0  0  0  0  0  0  0  0  0
   -2.4431   -1.9865   -2.2864 H   0  0  0  0  0  0  0  0  0  0  0  0
   -1.0477   -1.8936   -1.1328 H   0  0  0  0  0  0  0  0  0  0  0  0
   -1.5666    0.3333   -2.5900 H   0  0  0  0  0  0  0  0  0  0  0  0
   -4.1524    0.1283   -1.8497 H   0  0  0  0  0  0  0  0  0  0  0  0
   -3.4491    1.6356   -1.1576 H   0  0  0  0  0  0  0  0  0  0  0  0
   -1.1423    1.8009   -0.7027 H   0  0  0  0  0  0  0  0  0  0  0  0
    2.0053   -1.5681   -0.0144 H   0  0  0  0  0  0  0  0  0  0  0  0
    4.2823   -2.4746    0.2099 H   0  0  0  0  0  0  0  0  0  0  0  0
    6.6911   -1.9962    0.1847 H   0  0  0  0  0  0  0  0  0  0  0  0
    5.9303    1.4413   -0.4599 H   0  0  0  0  0  0  0  0  0  0  0  0
    3.6736    2.3644   -0.6870 H   0  0  0  0  0  0  0  0  0  0  0  0
  1  2  1  0  0  0  0
  1 20  1  0  0  0  0
  1 21  1  0  0  0  0
  1 22  1  0  0  0  0
  2  3  1  0  0  0  0
  2  4  1  0  0  0  0
  3 23  1  0  0  0  0
  3 24  1  0  0  0  0
  3 25  1  0  0  0  0
  4  5  1  0  0  0  0
  4 26  1  1  0  0  0
  5  6  1  0  0  0  0
  5 27  1  0  0  0  0
  5 28  1  0  0  0  0
  6 29  1  0  0  0  0
  6 30  1  0  0  0  0
  7  6  1  0  0  0  0
  7  8  1  0  0  0  0
  7  9  1  0  0  0  0
  7 31  1  6  0  0  0
  8  4  1  0  0  0  0
  8 32  1  0  0  0  0
  8 33  1  0  0  0  0
  9 10  1  0  0  0  0
  9  2  1  0  0  0  0
  9 34  1  6  0  0  0
 10 11  1  0  0  0  0
 11 12  2  0  0  0  0
 11 13  1  0  0  0  0
 13 14  2  0  0  0  0
 14 15  1  0  0  0  0
 14 35  1  0  0  0  0
 15 16  2  0  0  0  0
 15 36  1  0  0  0  0
 16 17  1  0  0  0  0
 16 18  1  0  0  0  0
 17 37  1  0  0  0  0
 18 19  2  0  0  0  0
 18 38  1  0  0  0  0
 19 13  1  0  0  0  0
 19 39  1  0  0  0  0
M  END
>  <IDENTIFIER>
CNP0562122.1

>  <Energy>
490.621

$$$$
