
 OpenBabel09082518203D

 39 39  0  0  0  0  0  0  0  0999 V2000
   -4.1658    2.0421    2.1783 C   0  0  0  0  0  0  0  0  0  0  0  0
   -2.8602    1.2445    2.0612 C   0  0  1  0  0  0  0  0  0  0  0  0
   -3.0998   -0.1672    2.3737 N   0  0  0  0  0  0  0  0  0  0  0  0
   -2.2341    1.4291    0.6842 C   0  0  0  0  0  0  0  0  0  0  0  0
   -2.0473    2.5711    0.2875 O   0  0  0  0  0  0  0  0  0  0  0  0
   -1.8035    0.3647   -0.0609 N   0  0  0  0  0  0  0  0  0  0  0  0
   -1.1834    0.4950   -1.3454 C   0  0  0  0  0  0  0  0  0  0  0  0
   -1.7510    1.3817   -2.2850 C   0  0  0  0  0  0  0  0  0  0  0  0
   -1.2074    1.5315   -3.5547 C   0  0  0  0  0  0  0  0  0  0  0  0
   -0.0815    0.8065   -3.9154 C   0  0  0  0  0  0  0  0  0  0  0  0
    0.5140   -0.0681   -3.0078 C   0  0  0  0  0  0  0  0  0  0  0  0
   -0.0089   -0.2526   -1.7022 C   0  0  0  0  0  0  0  0  0  0  0  0
    0.7087   -1.1533   -0.7129 C   0  0  0  0  0  0  0  0  0  0  0  0
    0.2023   -1.3697    0.3752 O   0  0  0  0  0  0  0  0  0  0  0  0
    1.9474   -1.6795   -0.9646 N   0  0  0  0  0  0  0  0  0  0  0  0
    2.6871   -2.4683    0.0158 C   0  0  1  0  0  0  0  0  0  0  0  0
    2.9782   -3.7364   -0.5132 O   0  0  0  0  0  0  0  0  0  0  0  0
    3.9863   -1.7410    0.4238 C   0  0  0  0  0  0  0  0  0  0  0  0
    3.7426   -0.3538    1.0387 C   0  0  0  0  0  0  0  0  0  0  0  0
    2.7969   -0.4444    2.5967 S   0  0  0  0  0  0  0  0  0  0  0  0
   -4.5861    1.9309    3.2004 H   0  0  0  0  0  0  0  0  0  0  0  0
   -4.9118    1.6879    1.4365 H   0  0  0  0  0  0  0  0  0  0  0  0
   -3.9692    3.1226    2.0075 H   0  0  0  0  0  0  0  0  0  0  0  0
   -2.1466    1.6584    2.8085 H   0  0  0  0  0  0  0  0  0  0  0  0
   -3.8326   -0.5529    1.7343 H   0  0  0  0  0  0  0  0  0  0  0  0
   -3.4475   -0.2545    3.3573 H   0  0  0  0  0  0  0  0  0  0  0  0
   -1.8855   -0.5752    0.3395 H   0  0  0  0  0  0  0  0  0  0  0  0
   -2.6416    1.9477   -2.0418 H   0  0  0  0  0  0  0  0  0  0  0  0
   -1.6646    2.2097   -4.2640 H   0  0  0  0  0  0  0  0  0  0  0  0
    0.3389    0.9265   -4.9063 H   0  0  0  0  0  0  0  0  0  0  0  0
    1.3879   -0.5843   -3.3648 H   0  0  0  0  0  0  0  0  0  0  0  0
    2.4347   -1.4951   -1.8480 H   0  0  0  0  0  0  0  0  0  0  0  0
    2.0924   -2.6337    0.9382 H   0  0  0  0  0  0  0  0  0  0  0  0
    3.5255   -3.6015   -1.3305 H   0  0  0  0  0  0  0  0  0  0  0  0
    4.6255   -1.6109   -0.4762 H   0  0  0  0  0  0  0  0  0  0  0  0
    4.5437   -2.3651    1.1556 H   0  0  0  0  0  0  0  0  0  0  0  0
    3.2128    0.3033    0.3158 H   0  0  0  0  0  0  0  0  0  0  0  0
    4.7126    0.1389    1.2596 H   0  0  0  0  0  0  0  0  0  0  0  0
    1.6621    0.1905    2.0557 H   0  0  0  0  0  0  0  0  0  0  0  0
  1 21  1  0  0  0  0
  1 22  1  0  0  0  0
  1 23  1  0  0  0  0
  2  1  1  0  0  0  0
  2  3  1  0  0  0  0
  2  4  1  0  0  0  0
  2 24  1  1  0  0  0
  3 25  1  0  0  0  0
  3 26  1  0  0  0  0
  4  5  2  0  0  0  0
  4  6  1  0  0  0  0
  6  7  1  0  0  0  0
  6 27  1  0  0  0  0
  7  8  2  0  0  0  0
  8  9  1  0  0  0  0
  8 28  1  0  0  0  0
  9 10  2  0  0  0  0
  9 29  1  0  0  0  0
 10 11  1  0  0  0  0
 10 30  1  0  0  0  0
 11 12  2  0  0  0  0
 11 31  1  0  0  0  0
 12 13  1  0  0  0  0
 12  7  1  0  0  0  0
 13 14  2  0  0  0  0
 13 15  1  0  0  0  0
 15 16  1  0  0  0  0
 15 32  1  0  0  0  0
 16 17  1  0  0  0  0
 16 18  1  0  0  0  0
 16 33  1  1  0  0  0
 17 34  1  0  0  0  0
 18 19  1  0  0  0  0
 18 35  1  0  0  0  0
 18 36  1  0  0  0  0
 19 20  1  0  0  0  0
 19 37  1  0  0  0  0
 19 38  1  0  0  0  0
 20 39  1  0  0  0  0
M  END
>  <IDENTIFIER>
CNP0364405.1

>  <Energy>
318.552

$$$$
