
 OpenBabel09112520003D

 41 40  0  0  0  0  0  0  0  0999 V2000
    6.3317    0.2308    0.5644 C   0  0  0  0  0  0  0  0  0  0  0  0
    4.9843    0.0294   -0.1239 C   0  0  0  0  0  0  0  0  0  0  0  0
    3.8462   -0.0338    0.9066 C   0  0  0  0  0  0  0  0  0  0  0  0
    2.4652   -0.3164    0.2871 C   0  0  0  0  0  0  0  0  0  0  0  0
    1.9724    0.8060   -0.6378 C   0  0  0  0  0  0  0  0  0  0  0  0
    0.6243    0.5641   -1.3565 C   0  0  0  0  0  0  0  0  0  0  0  0
   -0.6282    0.4420   -0.4642 C   0  0  0  0  0  0  0  0  0  0  0  0
   -0.9017   -0.9829    0.0604 C   0  0  0  0  0  0  0  0  0  0  0  0
   -2.0542   -1.1075    1.0838 C   0  0  0  0  0  0  0  0  0  0  0  0
   -3.5315   -1.1693    0.5949 C   0  0  0  0  0  0  0  0  0  0  0  0
   -4.1497    0.0590    0.0274 N   0  3  0  0  0  0  0  0  0  0  0  0
   -3.8901    1.2674    0.8333 C   0  0  0  0  0  0  0  0  0  0  0  0
   -5.6080   -0.1390   -0.0904 C   0  0  0  0  0  0  0  0  0  0  0  0
   -3.6849    0.2551   -1.2307 O   0  5  0  0  0  0  0  0  0  0  0  0
    7.1371    0.2723   -0.1989 H   0  0  0  0  0  0  0  0  0  0  0  0
    6.5417   -0.6119    1.2571 H   0  0  0  0  0  0  0  0  0  0  0  0
    6.3342    1.1831    1.1367 H   0  0  0  0  0  0  0  0  0  0  0  0
    5.0159   -0.9192   -0.7022 H   0  0  0  0  0  0  0  0  0  0  0  0
    4.8302    0.8749   -0.8248 H   0  0  0  0  0  0  0  0  0  0  0  0
    3.8067    0.9165    1.4836 H   0  0  0  0  0  0  0  0  0  0  0  0
    4.0669   -0.8604    1.6177 H   0  0  0  0  0  0  0  0  0  0  0  0
    1.7723   -0.3973    1.1450 H   0  0  0  0  0  0  0  0  0  0  0  0
    2.4975   -1.2800   -0.2662 H   0  0  0  0  0  0  0  0  0  0  0  0
    2.7152    0.9578   -1.4467 H   0  0  0  0  0  0  0  0  0  0  0  0
    1.9068    1.7482   -0.0504 H   0  0  0  0  0  0  0  0  0  0  0  0
    0.6795   -0.2914   -2.0643 H   0  0  0  0  0  0  0  0  0  0  0  0
    0.4815    1.4820   -1.9700 H   0  0  0  0  0  0  0  0  0  0  0  0
   -1.4745    0.7231   -1.1027 H   0  0  0  0  0  0  0  0  0  0  0  0
   -0.5556    1.1832    0.3597 H   0  0  0  0  0  0  0  0  0  0  0  0
   -0.0093   -1.3241    0.6026 H   0  0  0  0  0  0  0  0  0  0  0  0
   -1.0516   -1.6976   -0.7781 H   0  0  0  0  0  0  0  0  0  0  0  0
   -1.9231   -0.3654    1.8998 H   0  0  0  0  0  0  0  0  0  0  0  0
   -1.9005   -2.1049    1.5553 H   0  0  0  0  0  0  0  0  0  0  0  0
   -4.1102   -1.4589    1.5032 H   0  0  0  0  0  0  0  0  0  0  0  0
   -3.6339   -2.0108   -0.1276 H   0  0  0  0  0  0  0  0  0  0  0  0
   -4.2469    1.1303    1.8781 H   0  0  0  0  0  0  0  0  0  0  0  0
   -4.4044    2.1516    0.3959 H   0  0  0  0  0  0  0  0  0  0  0  0
   -2.8118    1.5137    0.8607 H   0  0  0  0  0  0  0  0  0  0  0  0
   -6.0748   -0.2829    0.9101 H   0  0  0  0  0  0  0  0  0  0  0  0
   -5.8368   -1.0305   -0.7159 H   0  0  0  0  0  0  0  0  0  0  0  0
   -6.0900    0.7417   -0.5716 H   0  0  0  0  0  0  0  0  0  0  0  0
  1  2  1  0  0  0  0
  1 15  1  0  0  0  0
  1 16  1  0  0  0  0
  1 17  1  0  0  0  0
  2  3  1  0  0  0  0
  2 18  1  0  0  0  0
  2 19  1  0  0  0  0
  3  4  1  0  0  0  0
  3 20  1  0  0  0  0
  3 21  1  0  0  0  0
  4  5  1  0  0  0  0
  4 22  1  0  0  0  0
  4 23  1  0  0  0  0
  5  6  1  0  0  0  0
  5 24  1  0  0  0  0
  5 25  1  0  0  0  0
  6  7  1  0  0  0  0
  6 26  1  0  0  0  0
  6 27  1  0  0  0  0
  7  8  1  0  0  0  0
  7 28  1  0  0  0  0
  7 29  1  0  0  0  0
  8  9  1  0  0  0  0
  8 30  1  0  0  0  0
  8 31  1  0  0  0  0
  9 10  1  0  0  0  0
  9 32  1  0  0  0  0
  9 33  1  0  0  0  0
 10 11  1  0  0  0  0
 10 34  1  0  0  0  0
 10 35  1  0  0  0  0
 11 12  1  0  0  0  0
 11 13  1  0  0  0  0
 11 14  1  0  0  0  0
 12 36  1  0  0  0  0
 12 37  1  0  0  0  0
 12 38  1  0  0  0  0
 13 39  1  0  0  0  0
 13 40  1  0  0  0  0
 13 41  1  0  0  0  0
M  CHG  2  11   1  14  -1
M  END
>  <IDENTIFIER>
CNP0478268.0

>  <Energy>
204.501

$$$$
