
 OpenBabel09082503363D

 60 64  0  0  0  0  0  0  0  0999 V2000
   -4.4948   -3.1047   -1.6766 C   0  0  0  0  0  0  0  0  0  0  0  0
   -3.5963   -2.2912   -1.1126 C   0  0  0  0  0  0  0  0  0  0  0  0
   -3.2354   -2.3953    0.3569 C   0  0  1  0  0  0  0  0  0  0  0  0
   -1.7218   -2.7334    0.5693 C   0  0  0  0  0  0  0  0  0  0  0  0
   -0.9907   -1.5673    1.1363 N   0  0  2  0  0  0  0  0  0  0  0  0
   -1.4795   -1.3432    2.5277 C   0  0  0  0  0  0  0  0  0  0  0  0
   -3.0307   -1.2727    2.5673 C   0  0  0  0  0  0  0  0  0  0  0  0
   -3.5465   -1.0760    1.1235 C   0  0  1  0  0  0  0  0  0  0  0  0
   -2.7464    0.1051    0.5164 C   0  0  0  0  0  0  0  0  0  0  0  0
   -1.2774   -0.3742    0.2830 C   0  0  1  0  0  0  0  0  0  0  0  0
   -0.2277    0.7489    0.4675 C   0  0  1  0  0  0  0  0  0  0  0  0
    1.0196    0.2503    0.1199 O   0  0  0  0  0  0  0  0  0  0  0  0
    2.1131    0.1507    0.9202 C   0  0  0  0  0  0  0  0  0  0  0  0
    2.0851    0.5751    2.0675 O   0  0  0  0  0  0  0  0  0  0  0  0
    3.3476   -0.4835    0.3898 C   0  0  0  0  0  0  0  0  0  0  0  0
    3.3775   -0.9944   -0.9209 C   0  0  0  0  0  0  0  0  0  0  0  0
    4.5353   -1.5967   -1.4238 C   0  0  0  0  0  0  0  0  0  0  0  0
    5.6901   -1.6986   -0.6233 C   0  0  0  0  0  0  0  0  0  0  0  0
    6.8396   -2.2746   -1.0624 O   0  0  0  0  0  0  0  0  0  0  0  0
    7.0400   -2.8313   -2.3094 C   0  0  0  0  0  0  0  0  0  0  0  0
    5.6591   -1.1890    0.6798 C   0  0  0  0  0  0  0  0  0  0  0  0
    4.5019   -0.5885    1.1848 C   0  0  0  0  0  0  0  0  0  0  0  0
   -0.5395    1.9576   -0.4121 C   0  0  0  0  0  0  0  0  0  0  0  0
   -0.3686    1.8133   -1.8022 C   0  0  0  0  0  0  0  0  0  0  0  0
   -0.6146    2.8811   -2.6601 C   0  0  0  0  0  0  0  0  0  0  0  0
   -1.0338    4.0699   -2.1662 N   0  0  0  0  0  0  0  0  0  0  0  0
   -1.2318    4.2677   -0.8379 C   0  0  0  0  0  0  0  0  0  0  0  0
   -1.6855    5.5172   -0.3991 C   0  0  0  0  0  0  0  0  0  0  0  0
   -1.9147    5.7467    0.9559 C   0  0  0  0  0  0  0  0  0  0  0  0
   -1.6905    4.7310    1.8817 C   0  0  0  0  0  0  0  0  0  0  0  0
   -1.2321    3.4791    1.4629 C   0  0  0  0  0  0  0  0  0  0  0  0
   -0.9897    3.2177    0.0910 C   0  0  0  0  0  0  0  0  0  0  0  0
   -4.7265   -3.0073   -2.7321 H   0  0  0  0  0  0  0  0  0  0  0  0
   -5.0031   -3.8714   -1.1000 H   0  0  0  0  0  0  0  0  0  0  0  0
   -3.1175   -1.5477   -1.7401 H   0  0  0  0  0  0  0  0  0  0  0  0
   -3.8294   -3.2264    0.8021 H   0  0  0  0  0  0  0  0  0  0  0  0
   -1.2452   -3.0975   -0.3670 H   0  0  0  0  0  0  0  0  0  0  0  0
   -1.6360   -3.5791    1.2897 H   0  0  0  0  0  0  0  0  0  0  0  0
   -1.0690   -0.3877    2.9110 H   0  0  0  0  0  0  0  0  0  0  0  0
   -1.1106   -2.1226    3.2282 H   0  0  0  0  0  0  0  0  0  0  0  0
   -3.3456   -0.4550    3.2522 H   0  0  0  0  0  0  0  0  0  0  0  0
   -3.4603   -2.2197    2.9626 H   0  0  0  0  0  0  0  0  0  0  0  0
   -4.6377   -0.8629    1.1344 H   0  0  0  0  0  0  0  0  0  0  0  0
   -2.7996    0.9426    1.2470 H   0  0  0  0  0  0  0  0  0  0  0  0
   -3.1664    0.4811   -0.4414 H   0  0  0  0  0  0  0  0  0  0  0  0
   -1.1953   -0.7026   -0.7785 H   0  0  0  0  0  0  0  0  0  0  0  0
   -0.2331    1.0327    1.5251 H   0  0  0  0  0  0  0  0  0  0  0  0
    2.5048   -0.9318   -1.5595 H   0  0  0  0  0  0  0  0  0  0  0  0
    4.5219   -1.9797   -2.4354 H   0  0  0  0  0  0  0  0  0  0  0  0
    8.0772   -3.2191   -2.3703 H   0  0  0  0  0  0  0  0  0  0  0  0
    6.9019   -2.0628   -3.0995 H   0  0  0  0  0  0  0  0  0  0  0  0
    6.3359   -3.6755   -2.4693 H   0  0  0  0  0  0  0  0  0  0  0  0
    6.5387   -1.2600    1.3073 H   0  0  0  0  0  0  0  0  0  0  0  0
    4.5119   -0.2056    2.1973 H   0  0  0  0  0  0  0  0  0  0  0  0
   -0.0288    0.8756   -2.2244 H   0  0  0  0  0  0  0  0  0  0  0  0
   -0.4691    2.7650   -3.7257 H   0  0  0  0  0  0  0  0  0  0  0  0
   -1.8676    6.3128   -1.1111 H   0  0  0  0  0  0  0  0  0  0  0  0
   -2.2712    6.7127    1.2896 H   0  0  0  0  0  0  0  0  0  0  0  0
   -1.8769    4.9119    2.9329 H   0  0  0  0  0  0  0  0  0  0  0  0
   -1.0937    2.7467    2.2386 H   0  0  0  0  0  0  0  0  0  0  0  0
  1  2  2  0  0  0  0
  1 33  1  0  0  0  0
  1 34  1  0  0  0  0
  2 35  1  0  0  0  0
  3  2  1  0  0  0  0
  3  4  1  0  0  0  0
  3 36  1  1  0  0  0
  4 37  1  0  0  0  0
  4 38  1  0  0  0  0
  5  4  1  6  0  0  0
  5  6  1  0  0  0  0
  6  7  1  0  0  0  0
  6 39  1  0  0  0  0
  6 40  1  0  0  0  0
  7 41  1  0  0  0  0
  7 42  1  0  0  0  0
  8  7  1  0  0  0  0
  8  9  1  0  0  0  0
  8  3  1  0  0  0  0
  8 43  1  6  0  0  0
  9 44  1  0  0  0  0
  9 45  1  0  0  0  0
 10  9  1  0  0  0  0
 10 11  1  0  0  0  0
 10  5  1  0  0  0  0
 10 46  1  6  0  0  0
 11 12  1  0  0  0  0
 11 23  1  0  0  0  0
 11 47  1  1  0  0  0
 12 13  1  0  0  0  0
 13 14  2  0  0  0  0
 13 15  1  0  0  0  0
 15 16  2  0  0  0  0
 16 17  1  0  0  0  0
 16 48  1  0  0  0  0
 17 18  2  0  0  0  0
 17 49  1  0  0  0  0
 18 19  1  0  0  0  0
 18 21  1  0  0  0  0
 19 20  1  0  0  0  0
 20 50  1  0  0  0  0
 20 51  1  0  0  0  0
 20 52  1  0  0  0  0
 21 22  2  0  0  0  0
 21 53  1  0  0  0  0
 22 15  1  0  0  0  0
 22 54  1  0  0  0  0
 23 24  2  0  0  0  0
 24 25  1  0  0  0  0
 24 55  1  0  0  0  0
 25 26  2  0  0  0  0
 25 56  1  0  0  0  0
 26 27  1  0  0  0  0
 27 28  2  0  0  0  0
 28 29  1  0  0  0  0
 28 57  1  0  0  0  0
 29 30  2  0  0  0  0
 29 58  1  0  0  0  0
 30 31  1  0  0  0  0
 30 59  1  0  0  0  0
 31 32  2  0  0  0  0
 31 60  1  0  0  0  0
 32 23  1  0  0  0  0
 32 27  1  0  0  0  0
M  END
>  <IDENTIFIER>
CNP0247573.4

>  <Energy>
583.231

$$$$
