
 OpenBabel09122504033D

 80 86  0  0  0  0  0  0  0  0999 V2000
   -3.8037   -0.2184    3.5248 C   0  0  0  0  0  0  0  0  0  0  0  0
   -3.4611   -0.7120    2.2841 O   0  0  0  0  0  0  0  0  0  0  0  0
   -2.7193   -1.8326    2.0922 C   0  0  0  0  0  0  0  0  0  0  0  0
   -2.3847   -2.5204    3.0503 O   0  0  0  0  0  0  0  0  0  0  0  0
   -2.2761   -2.2052    0.6863 C   0  0  2  0  0  0  0  0  0  0  0  0
   -3.4820   -2.4624   -0.2105 C   0  0  0  0  0  0  0  0  0  0  0  0
   -3.1917   -2.8052   -1.4845 C   0  0  0  0  0  0  0  0  0  0  0  0
   -4.1251   -3.1149   -2.4254 O   0  0  0  0  0  0  0  0  0  0  0  0
   -5.4461   -3.4173   -2.1704 C   0  0  0  0  0  0  0  0  0  0  0  0
   -1.7095   -2.8703   -1.8034 C   0  0  1  0  0  0  0  0  0  0  0  0
   -1.4255   -3.3210   -3.5352 Cl  0  0  0  0  0  0  0  0  0  0  0  0
   -0.9415   -1.5516   -1.4181 C   0  0  2  0  0  0  0  0  0  0  0  0
   -1.1442   -0.5670   -2.4047 O   0  0  0  0  0  0  0  0  0  0  0  0
    0.4969   -2.0916   -1.3229 C   0  0  0  0  0  0  0  0  0  0  0  0
    1.8258   -1.3520   -1.4855 C   0  0  0  0  0  0  0  0  0  0  0  0
    2.9958   -2.0217   -1.3060 C   0  0  0  0  0  0  0  0  0  0  0  0
    4.3217   -1.2951   -1.3551 C   0  0  2  0  0  0  0  0  0  0  0  0
    5.3570   -2.1160   -0.8814 O   0  0  0  0  0  0  0  0  0  0  0  0
    4.2625    0.0361   -0.5750 C   0  0  2  0  0  0  0  0  0  0  0  0
    3.2623    0.0891    0.4337 O   0  0  0  0  0  0  0  0  0  0  0  0
    3.0031    0.8100   -0.7583 C   0  0  1  0  0  0  0  0  0  0  0  0
    3.1691    2.3445   -0.6882 C   0  0  0  0  0  0  0  0  0  0  0  0
    3.8108    2.8016    0.6079 C   0  0  0  0  0  0  0  0  0  0  0  0
    4.9769    3.4759    0.7574 C   0  0  0  0  0  0  0  0  0  0  0  0
    5.4372    3.8419    2.1467 C   0  0  0  0  0  0  0  0  0  0  0  0
    5.8822    3.8959   -0.3763 C   0  0  0  0  0  0  0  0  0  0  0  0
    1.9980    0.1573   -1.7629 C   0  0  2  0  0  0  0  0  0  0  0  0
    0.7983    0.8719   -1.8089 O   0  0  0  0  0  0  0  0  0  0  0  0
    0.4131   -3.3922   -0.9927 C   0  0  0  0  0  0  0  0  0  0  0  0
   -0.9983   -3.8482   -0.8281 C   0  0  2  0  0  0  0  0  0  0  0  0
   -1.1657   -5.3448   -1.1467 C   0  0  0  0  0  0  0  0  0  0  0  0
   -1.4616   -3.5381    0.6498 C   0  0  0  0  0  0  0  0  0  0  0  0
   -1.4409   -1.0541    0.0195 C   0  0  2  0  0  0  0  0  0  0  0  0
   -0.3593   -0.7635    0.8518 O   0  0  0  0  0  0  0  0  0  0  0  0
   -0.1361    0.4083    1.4920 C   0  0  0  0  0  0  0  0  0  0  0  0
    0.8347    0.4968    2.2218 O   0  0  0  0  0  0  0  0  0  0  0  0
   -1.0601    1.5432    1.2721 C   0  0  0  0  0  0  0  0  0  0  0  0
   -0.9362    2.8413    1.8456 C   0  0  0  0  0  0  0  0  0  0  0  0
    0.0629    3.2028    2.6814 O   0  0  0  0  0  0  0  0  0  0  0  0
   -1.8904    3.8199    1.5392 C   0  0  0  0  0  0  0  0  0  0  0  0
   -2.9592    3.5416    0.6781 C   0  0  0  0  0  0  0  0  0  0  0  0
   -3.9790    4.5927    0.3529 C   0  0  0  0  0  0  0  0  0  0  0  0
   -3.0739    2.2648    0.1180 C   0  0  0  0  0  0  0  0  0  0  0  0
   -2.1331    1.2739    0.4098 C   0  0  0  0  0  0  0  0  0  0  0  0
   -2.2824    0.0479   -0.1494 O   0  0  0  0  0  0  0  0  0  0  0  0
   -4.4007    0.7075    3.3960 H   0  0  0  0  0  0  0  0  0  0  0  0
   -2.8856    0.0296    4.1002 H   0  0  0  0  0  0  0  0  0  0  0  0
   -4.4075   -0.9646    4.0830 H   0  0  0  0  0  0  0  0  0  0  0  0
   -4.4994   -2.3871    0.1595 H   0  0  0  0  0  0  0  0  0  0  0  0
   -5.9603   -3.6271   -3.1308 H   0  0  0  0  0  0  0  0  0  0  0  0
   -5.9587   -2.5720   -1.6675 H   0  0  0  0  0  0  0  0  0  0  0  0
   -5.5022   -4.3301   -1.5378 H   0  0  0  0  0  0  0  0  0  0  0  0
   -0.5757   -0.7865   -3.1879 H   0  0  0  0  0  0  0  0  0  0  0  0
    3.0370   -3.0679   -1.0459 H   0  0  0  0  0  0  0  0  0  0  0  0
    4.5475   -1.0314   -2.4104 H   0  0  0  0  0  0  0  0  0  0  0  0
    5.1830   -2.2823    0.0826 H   0  0  0  0  0  0  0  0  0  0  0  0
    5.1786    0.6158   -0.3329 H   0  0  0  0  0  0  0  0  0  0  0  0
    2.1657    2.8168   -0.7122 H   0  0  0  0  0  0  0  0  0  0  0  0
    3.6881    2.6685   -1.6063 H   0  0  0  0  0  0  0  0  0  0  0  0
    3.2490    2.5446    1.5028 H   0  0  0  0  0  0  0  0  0  0  0  0
    4.7292    3.5028    2.9336 H   0  0  0  0  0  0  0  0  0  0  0  0
    5.5376    4.9445    2.2263 H   0  0  0  0  0  0  0  0  0  0  0  0
    6.4236    3.3736    2.3470 H   0  0  0  0  0  0  0  0  0  0  0  0
    5.5360    3.6073   -1.3817 H   0  0  0  0  0  0  0  0  0  0  0  0
    6.8822    3.4363   -0.2291 H   0  0  0  0  0  0  0  0  0  0  0  0
    5.9947    5.0001   -0.3630 H   0  0  0  0  0  0  0  0  0  0  0  0
    2.4642    0.2701   -2.7659 H   0  0  0  0  0  0  0  0  0  0  0  0
    0.5324    1.0750   -0.8822 H   0  0  0  0  0  0  0  0  0  0  0  0
    1.2349   -4.0679   -0.8232 H   0  0  0  0  0  0  0  0  0  0  0  0
   -0.5934   -5.9565   -0.4173 H   0  0  0  0  0  0  0  0  0  0  0  0
   -0.7934   -5.5882   -2.1632 H   0  0  0  0  0  0  0  0  0  0  0  0
   -2.2382   -5.6290   -1.0870 H   0  0  0  0  0  0  0  0  0  0  0  0
   -0.5955   -3.5477    1.3485 H   0  0  0  0  0  0  0  0  0  0  0  0
   -2.1587   -4.3322    1.0047 H   0  0  0  0  0  0  0  0  0  0  0  0
    0.7873    2.6410    2.9734 H   0  0  0  0  0  0  0  0  0  0  0  0
   -1.7930    4.8065    1.9768 H   0  0  0  0  0  0  0  0  0  0  0  0
   -3.7575    5.5511    0.8692 H   0  0  0  0  0  0  0  0  0  0  0  0
   -4.9855    4.2483    0.6705 H   0  0  0  0  0  0  0  0  0  0  0  0
   -3.9872    4.7789   -0.7419 H   0  0  0  0  0  0  0  0  0  0  0  0
   -3.8973    2.0389   -0.5487 H   0  0  0  0  0  0  0  0  0  0  0  0
  1  2  1  0  0  0  0
  1 46  1  0  0  0  0
  1 47  1  0  0  0  0
  1 48  1  0  0  0  0
  2  3  1  0  0  0  0
  3  4  2  0  0  0  0
  5  3  1  1  0  0  0
  5  6  1  0  0  0  0
  6  7  2  0  0  0  0
  6 49  1  0  0  0  0
  7  8  1  0  0  0  0
  7 10  1  0  0  0  0
  8  9  1  0  0  0  0
  9 50  1  0  0  0  0
  9 51  1  0  0  0  0
  9 52  1  0  0  0  0
 10 11  1  6  0  0  0
 10 12  1  0  0  0  0
 12 13  1  6  0  0  0
 12 14  1  0  0  0  0
 12 33  1  0  0  0  0
 13 53  1  0  0  0  0
 14 15  1  0  0  0  0
 14 29  2  0  0  0  0
 15 16  2  0  0  0  0
 16 17  1  0  0  0  0
 16 54  1  0  0  0  0
 17 18  1  0  0  0  0
 17 19  1  0  0  0  0
 17 55  1  6  0  0  0
 18 56  1  0  0  0  0
 19 20  1  0  0  0  0
 19 57  1  1  0  0  0
 20 21  1  0  0  0  0
 21 22  1  1  0  0  0
 21 27  1  0  0  0  0
 21 19  1  0  0  0  0
 22 23  1  0  0  0  0
 22 58  1  0  0  0  0
 22 59  1  0  0  0  0
 23 24  2  0  0  0  0
 23 60  1  0  0  0  0
 24 25  1  0  0  0  0
 24 26  1  0  0  0  0
 25 61  1  0  0  0  0
 25 62  1  0  0  0  0
 25 63  1  0  0  0  0
 26 64  1  0  0  0  0
 26 65  1  0  0  0  0
 26 66  1  0  0  0  0
 27 28  1  0  0  0  0
 27 15  1  0  0  0  0
 27 67  1  6  0  0  0
 28 68  1  0  0  0  0
 29 30  1  0  0  0  0
 29 69  1  0  0  0  0
 30 31  1  6  0  0  0
 30 32  1  0  0  0  0
 30 10  1  0  0  0  0
 31 70  1  0  0  0  0
 31 71  1  0  0  0  0
 31 72  1  0  0  0  0
 32  5  1  0  0  0  0
 32 73  1  0  0  0  0
 32 74  1  0  0  0  0
 33 34  1  1  0  0  0
 33  5  1  0  0  0  0
 34 35  1  0  0  0  0
 35 36  2  0  0  0  0
 35 37  1  0  0  0  0
 37 38  2  0  0  0  0
 38 39  1  0  0  0  0
 38 40  1  0  0  0  0
 39 75  1  0  0  0  0
 40 41  2  0  0  0  0
 40 76  1  0  0  0  0
 41 42  1  0  0  0  0
 41 43  1  0  0  0  0
 42 77  1  0  0  0  0
 42 78  1  0  0  0  0
 42 79  1  0  0  0  0
 43 44  2  0  0  0  0
 43 80  1  0  0  0  0
 44 45  1  0  0  0  0
 44 37  1  0  0  0  0
 45 33  1  0  0  0  0
M  END
>  <IDENTIFIER>
CNP0210013.1

>  <Energy>
2409.03

$$$$
