
 OpenBabel09112502373D

 71 76  0  0  0  0  0  0  0  0999 V2000
   -4.6632    0.7677    2.4893 C   0  0  0  0  0  0  0  0  0  0  0  0
   -4.7254    0.6242    0.9572 C   0  0  0  0  0  0  0  0  0  0  0  0
   -3.6861   -0.4315    0.4420 C   0  0  1  0  0  0  0  0  0  0  0  0
   -3.8881   -0.7530   -1.0657 C   0  0  0  0  0  0  0  0  0  0  0  0
   -2.5340   -1.2500   -1.5600 C   0  0  0  0  0  0  0  0  0  0  0  0
   -1.6337   -0.2413   -0.8634 C   0  0  2  0  0  0  0  0  0  0  0  0
   -0.0945   -0.3034   -1.0425 C   0  0  2  0  0  0  0  0  0  0  0  0
    0.5375   -1.7023   -1.2350 C   0  0  0  0  0  0  0  0  0  0  0  0
    2.0786   -1.6584   -1.1014 C   0  0  0  0  0  0  0  0  0  0  0  0
    2.6497   -0.2717   -1.4992 C   0  0  2  0  0  0  0  0  0  0  0  0
    4.1811   -0.2623   -1.5396 C   0  0  0  0  0  0  0  0  0  0  0  0
    4.8404   -0.4631   -0.1433 C   0  0  0  0  0  0  0  0  0  0  0  0
    3.9690    0.0951    1.0219 C   0  0  0  0  0  0  0  0  0  0  0  0
    3.1654    1.3018    0.5478 C   0  0  0  0  0  0  0  0  0  0  0  0
    2.1041    0.9163   -0.5645 C   0  0  1  0  0  0  0  0  0  0  0  0
    1.9433    2.1897   -1.4457 C   0  0  0  0  0  0  0  0  0  0  0  0
    0.6899    0.4954    0.0557 C   0  0  1  0  0  0  0  0  0  0  0  0
   -0.2206    1.6471    0.6052 C   0  0  2  0  0  0  0  0  0  0  0  0
    0.4254    2.4868    1.5229 O   0  0  0  0  0  0  0  0  0  0  0  0
   -1.5877    1.1538    1.2054 C   0  0  0  0  0  0  0  0  0  0  0  0
   -2.1123   -0.1986    0.5932 C   0  0  1  0  0  0  0  0  0  0  0  0
   -1.5171   -1.3493    1.4279 C   0  0  0  0  0  0  0  0  0  0  0  0
   -1.7507   -2.5839    1.1546 N   0  0  0  0  0  0  0  0  0  0  0  0
   -1.2460   -3.5429    1.9005 O   0  0  0  0  0  0  0  0  0  0  0  0
    6.0781    0.2351   -0.1696 O   0  0  0  0  0  0  0  0  0  0  0  0
    7.0130   -0.7631   -0.4070 C   0  0  0  0  0  0  0  0  0  0  0  0
    6.4452   -1.9332    0.3183 C   0  0  0  0  0  0  0  0  0  0  0  0
    5.0724   -1.8444    0.0871 O   0  0  0  0  0  0  0  0  0  0  0  0
   -4.4979    1.8944    0.3588 O   0  0  0  0  0  0  0  0  0  0  0  0
   -5.6456    2.1649   -0.3865 C   0  0  0  0  0  0  0  0  0  0  0  0
   -6.7037    1.3305    0.2462 C   0  0  0  0  0  0  0  0  0  0  0  0
   -6.0303    0.1717    0.6216 O   0  0  0  0  0  0  0  0  0  0  0  0
   -3.6848    1.1376    2.8381 H   0  0  0  0  0  0  0  0  0  0  0  0
   -4.8669   -0.2098    2.9748 H   0  0  0  0  0  0  0  0  0  0  0  0
   -5.4269    1.4943    2.8373 H   0  0  0  0  0  0  0  0  0  0  0  0
   -3.9370   -1.3840    0.9616 H   0  0  0  0  0  0  0  0  0  0  0  0
   -4.0599    0.1919   -1.6180 H   0  0  0  0  0  0  0  0  0  0  0  0
   -4.7480   -1.4200   -1.2854 H   0  0  0  0  0  0  0  0  0  0  0  0
   -2.4514   -1.2351   -2.6677 H   0  0  0  0  0  0  0  0  0  0  0  0
   -2.3407   -2.2805   -1.2026 H   0  0  0  0  0  0  0  0  0  0  0  0
   -1.9231    0.7538   -1.2904 H   0  0  0  0  0  0  0  0  0  0  0  0
    0.0526    0.2055   -2.0190 H   0  0  0  0  0  0  0  0  0  0  0  0
    0.2445   -2.0449   -2.2518 H   0  0  0  0  0  0  0  0  0  0  0  0
    0.1711   -2.4583   -0.5141 H   0  0  0  0  0  0  0  0  0  0  0  0
    2.5161   -2.4905   -1.6943 H   0  0  0  0  0  0  0  0  0  0  0  0
    2.3325   -1.8644   -0.0490 H   0  0  0  0  0  0  0  0  0  0  0  0
    2.2918   -0.1186   -2.5436 H   0  0  0  0  0  0  0  0  0  0  0  0
    4.4557    0.7483   -1.9119 H   0  0  0  0  0  0  0  0  0  0  0  0
    4.5981   -0.9824   -2.2764 H   0  0  0  0  0  0  0  0  0  0  0  0
    4.6288    0.3397    1.8829 H   0  0  0  0  0  0  0  0  0  0  0  0
    3.2446   -0.6477    1.4042 H   0  0  0  0  0  0  0  0  0  0  0  0
    3.9290    2.0031    0.1423 H   0  0  0  0  0  0  0  0  0  0  0  0
    2.7009    1.8291    1.3968 H   0  0  0  0  0  0  0  0  0  0  0  0
    1.6222    3.0603   -0.8363 H   0  0  0  0  0  0  0  0  0  0  0  0
    1.2079    2.0487   -2.2618 H   0  0  0  0  0  0  0  0  0  0  0  0
    2.9054    2.4709   -1.9215 H   0  0  0  0  0  0  0  0  0  0  0  0
    0.8655   -0.1902    0.9129 H   0  0  0  0  0  0  0  0  0  0  0  0
   -0.4756    2.2622   -0.2847 H   0  0  0  0  0  0  0  0  0  0  0  0
    0.6093    1.9441    2.3334 H   0  0  0  0  0  0  0  0  0  0  0  0
   -2.2722    2.0024    1.0361 H   0  0  0  0  0  0  0  0  0  0  0  0
   -1.5237    1.0407    2.3089 H   0  0  0  0  0  0  0  0  0  0  0  0
   -0.9047   -1.1230    2.2979 H   0  0  0  0  0  0  0  0  0  0  0  0
   -1.4339   -4.4674    1.6907 H   0  0  0  0  0  0  0  0  0  0  0  0
    8.0251   -0.4990   -0.0338 H   0  0  0  0  0  0  0  0  0  0  0  0
    7.0543   -0.9535   -1.5035 H   0  0  0  0  0  0  0  0  0  0  0  0
    6.6200   -1.8280    1.4118 H   0  0  0  0  0  0  0  0  0  0  0  0
    6.8828   -2.8839   -0.0537 H   0  0  0  0  0  0  0  0  0  0  0  0
   -5.4748    1.8409   -1.4340 H   0  0  0  0  0  0  0  0  0  0  0  0
   -5.9182    3.2412   -0.3791 H   0  0  0  0  0  0  0  0  0  0  0  0
   -7.5402    1.1368   -0.4579 H   0  0  0  0  0  0  0  0  0  0  0  0
   -7.0939    1.8254    1.1635 H   0  0  0  0  0  0  0  0  0  0  0  0
  1  2  1  0  0  0  0
  1 33  1  0  0  0  0
  1 34  1  0  0  0  0
  1 35  1  0  0  0  0
  2 29  1  0  0  0  0
  3  2  1  0  0  0  0
  3  4  1  0  0  0  0
  3 36  1  1  0  0  0
  4  5  1  0  0  0  0
  4 37  1  0  0  0  0
  4 38  1  0  0  0  0
  5 39  1  0  0  0  0
  5 40  1  0  0  0  0
  6  5  1  0  0  0  0
  6  7  1  0  0  0  0
  6 41  1  6  0  0  0
  7  8  1  0  0  0  0
  7 42  1  6  0  0  0
  8  9  1  0  0  0  0
  8 43  1  0  0  0  0
  8 44  1  0  0  0  0
  9 45  1  0  0  0  0
  9 46  1  0  0  0  0
 10  9  1  0  0  0  0
 10 11  1  0  0  0  0
 10 47  1  6  0  0  0
 11 12  1  0  0  0  0
 11 48  1  0  0  0  0
 11 49  1  0  0  0  0
 12 13  1  0  0  0  0
 12 25  1  0  0  0  0
 13 14  1  0  0  0  0
 13 50  1  0  0  0  0
 13 51  1  0  0  0  0
 14 15  1  0  0  0  0
 14 52  1  0  0  0  0
 14 53  1  0  0  0  0
 15 16  1  6  0  0  0
 15 17  1  0  0  0  0
 15 10  1  0  0  0  0
 16 54  1  0  0  0  0
 16 55  1  0  0  0  0
 16 56  1  0  0  0  0
 17 18  1  0  0  0  0
 17  7  1  0  0  0  0
 17 57  1  1  0  0  0
 18 19  1  0  0  0  0
 18 20  1  0  0  0  0
 18 58  1  6  0  0  0
 19 59  1  0  0  0  0
 20 21  1  0  0  0  0
 20 60  1  0  0  0  0
 20 61  1  0  0  0  0
 21 22  1  1  0  0  0
 21  3  1  0  0  0  0
 21  6  1  0  0  0  0
 22 23  2  0  0  0  0
 22 62  1  0  0  0  0
 23 24  1  0  0  0  0
 24 63  1  0  0  0  0
 25 26  1  0  0  0  0
 26 27  1  0  0  0  0
 26 64  1  0  0  0  0
 26 65  1  0  0  0  0
 27 28  1  0  0  0  0
 27 66  1  0  0  0  0
 27 67  1  0  0  0  0
 28 12  1  0  0  0  0
 29 30  1  0  0  0  0
 30 31  1  0  0  0  0
 30 68  1  0  0  0  0
 30 69  1  0  0  0  0
 31 32  1  0  0  0  0
 31 70  1  0  0  0  0
 31 71  1  0  0  0  0
 32  2  1  0  0  0  0
M  END
>  <IDENTIFIER>
CNP0125283.2

>  <Energy>
1135.48

$$$$
