
 OpenBabel09122506203D

 86 91  0  0  0  0  0  0  0  0999 V2000
    7.3712    1.8365    2.8833 C   0  0  0  0  0  0  0  0  0  0  0  0
    7.1426    1.0644    1.6239 C   0  0  0  0  0  0  0  0  0  0  0  0
    8.0883    0.5329    1.0597 O   0  0  0  0  0  0  0  0  0  0  0  0
    5.8781    0.9527    1.1371 O   0  0  0  0  0  0  0  0  0  0  0  0
    5.5056    0.2401    0.0065 C   0  0  2  0  0  0  0  0  0  0  0  0
    4.8782    1.1907   -1.0356 C   0  0  0  0  0  0  0  0  0  0  0  0
    3.3774    1.4382   -0.8901 C   0  0  0  0  0  0  0  0  0  0  0  0
    2.5483    0.1524   -0.5584 C   0  0  2  0  0  0  0  0  0  0  0  0
    3.3711   -1.2267   -0.5236 C   0  0  2  0  0  0  0  0  0  0  0  0
    3.9002   -1.8219   -1.8704 C   0  0  0  0  0  0  0  0  0  0  0  0
    2.4430   -2.3222    0.1032 C   0  0  0  0  0  0  0  0  0  0  0  0
    1.0204   -2.4005   -0.5155 C   0  0  0  0  0  0  0  0  0  0  0  0
    0.3256   -1.0308   -0.3252 C   0  0  1  0  0  0  0  0  0  0  0  0
    1.0934    0.0994   -1.1707 C   0  0  2  0  0  0  0  0  0  0  0  0
    1.2084   -0.1554   -2.7205 C   0  0  0  0  0  0  0  0  0  0  0  0
    0.3138    1.4719   -1.0454 C   0  0  0  0  0  0  0  0  0  0  0  0
   -1.2646    1.3129   -1.0852 C   0  0  1  0  0  0  0  0  0  0  0  0
   -1.6369    0.5673   -2.1892 O   0  0  0  0  0  0  0  0  0  0  0  0
   -1.5602   -0.7538   -1.8898 C   0  0  0  0  0  0  0  0  0  0  0  0
   -1.5533   -1.6334   -2.7376 O   0  0  0  0  0  0  0  0  0  0  0  0
   -1.2474   -0.9491   -0.4561 C   0  0  1  0  0  0  0  0  0  0  0  0
   -2.0663   -2.0842    0.2040 C   0  0  0  0  0  0  0  0  0  0  0  0
   -3.5786   -2.0595   -0.1762 C   0  0  0  0  0  0  0  0  0  0  0  0
   -4.2480   -0.6388   -0.2986 C   0  0  1  0  0  0  0  0  0  0  0  0
   -4.6216   -0.3517   -1.7960 C   0  0  0  0  0  0  0  0  0  0  0  0
   -5.6031   -0.6520    0.4927 C   0  0  0  0  0  0  0  0  0  0  0  0
   -6.3006    0.7278    0.5006 C   0  0  0  0  0  0  0  0  0  0  0  0
   -5.3936    1.8550    1.0681 C   0  0  0  0  0  0  0  0  0  0  0  0
   -6.0668    3.2173    0.7964 C   0  0  0  0  0  0  0  0  0  0  0  0
   -5.2424    1.7100    2.6041 C   0  0  0  0  0  0  0  0  0  0  0  0
   -3.9951    1.8401    0.3751 C   0  0  0  0  0  0  0  0  0  0  0  0
   -3.3284    0.4324    0.3907 C   0  0  2  0  0  0  0  0  0  0  0  0
   -1.7414    0.4422    0.1047 C   0  0  2  0  0  0  0  0  0  0  0  0
   -1.1212    0.9071    1.4865 C   0  0  0  0  0  0  0  0  0  0  0  0
    4.5793   -0.9360    0.4539 C   0  0  1  0  0  0  0  0  0  0  0  0
    5.4345   -2.1518    0.8658 C   0  0  0  0  0  0  0  0  0  0  0  0
    8.4473    1.8286    3.1605 H   0  0  0  0  0  0  0  0  0  0  0  0
    6.7857    1.3792    3.7082 H   0  0  0  0  0  0  0  0  0  0  0  0
    7.0430    2.8865    2.7399 H   0  0  0  0  0  0  0  0  0  0  0  0
    6.4026   -0.1691   -0.5132 H   0  0  0  0  0  0  0  0  0  0  0  0
    5.0069    0.7436   -2.0308 H   0  0  0  0  0  0  0  0  0  0  0  0
    5.4499    2.1410   -1.1123 H   0  0  0  0  0  0  0  0  0  0  0  0
    3.0459    1.9191   -1.8322 H   0  0  0  0  0  0  0  0  0  0  0  0
    3.2016    2.1910   -0.0882 H   0  0  0  0  0  0  0  0  0  0  0  0
    2.3371    0.3275    0.5228 H   0  0  0  0  0  0  0  0  0  0  0  0
    3.1237   -2.2282   -2.5244 H   0  0  0  0  0  0  0  0  0  0  0  0
    4.5167   -2.7186   -1.6643 H   0  0  0  0  0  0  0  0  0  0  0  0
    4.5287   -1.1642   -2.4793 H   0  0  0  0  0  0  0  0  0  0  0  0
    2.3016   -2.0939    1.1835 H   0  0  0  0  0  0  0  0  0  0  0  0
    2.9211   -3.3247    0.0580 H   0  0  0  0  0  0  0  0  0  0  0  0
    0.4883   -3.1806    0.0641 H   0  0  0  0  0  0  0  0  0  0  0  0
    1.0230   -2.7308   -1.5712 H   0  0  0  0  0  0  0  0  0  0  0  0
    0.4696   -0.8726    0.7552 H   0  0  0  0  0  0  0  0  0  0  0  0
    0.2988    0.0107   -3.3113 H   0  0  0  0  0  0  0  0  0  0  0  0
    1.5008   -1.1628   -3.0003 H   0  0  0  0  0  0  0  0  0  0  0  0
    1.9295    0.5491   -3.1796 H   0  0  0  0  0  0  0  0  0  0  0  0
    0.6421    2.1690   -1.8470 H   0  0  0  0  0  0  0  0  0  0  0  0
    0.5944    2.0088   -0.1228 H   0  0  0  0  0  0  0  0  0  0  0  0
   -1.7219    2.3239   -1.0808 H   0  0  0  0  0  0  0  0  0  0  0  0
   -1.9479   -1.9768    1.3038 H   0  0  0  0  0  0  0  0  0  0  0  0
   -1.6955   -3.0915   -0.0733 H   0  0  0  0  0  0  0  0  0  0  0  0
   -4.0920   -2.7029    0.5718 H   0  0  0  0  0  0  0  0  0  0  0  0
   -3.7138   -2.5925   -1.1428 H   0  0  0  0  0  0  0  0  0  0  0  0
   -5.3631   -1.1055   -2.1391 H   0  0  0  0  0  0  0  0  0  0  0  0
   -3.8184   -0.4096   -2.5289 H   0  0  0  0  0  0  0  0  0  0  0  0
   -5.0710    0.6427   -1.9567 H   0  0  0  0  0  0  0  0  0  0  0  0
   -5.4210   -0.9600    1.5448 H   0  0  0  0  0  0  0  0  0  0  0  0
   -6.2967   -1.4078    0.0623 H   0  0  0  0  0  0  0  0  0  0  0  0
   -7.2462    0.6684    1.0828 H   0  0  0  0  0  0  0  0  0  0  0  0
   -6.6059    0.9784   -0.5336 H   0  0  0  0  0  0  0  0  0  0  0  0
   -7.0675    3.2668    1.2780 H   0  0  0  0  0  0  0  0  0  0  0  0
   -6.2035    3.3744   -0.2959 H   0  0  0  0  0  0  0  0  0  0  0  0
   -5.4454    4.0513    1.1878 H   0  0  0  0  0  0  0  0  0  0  0  0
   -6.2366    1.7721    3.0964 H   0  0  0  0  0  0  0  0  0  0  0  0
   -4.6107    2.5303    3.0079 H   0  0  0  0  0  0  0  0  0  0  0  0
   -4.7865    0.7516    2.9160 H   0  0  0  0  0  0  0  0  0  0  0  0
   -3.3607    2.5975    0.8776 H   0  0  0  0  0  0  0  0  0  0  0  0
   -4.0825    2.1663   -0.6816 H   0  0  0  0  0  0  0  0  0  0  0  0
   -3.3711    0.0688    1.4359 H   0  0  0  0  0  0  0  0  0  0  0  0
   -1.4826    1.9153    1.7663 H   0  0  0  0  0  0  0  0  0  0  0  0
   -0.0244    0.9749    1.5542 H   0  0  0  0  0  0  0  0  0  0  0  0
   -1.3951    0.2035    2.3012 H   0  0  0  0  0  0  0  0  0  0  0  0
    4.0946   -0.6003    1.4002 H   0  0  0  0  0  0  0  0  0  0  0  0
    5.9999   -2.5597    0.0039 H   0  0  0  0  0  0  0  0  0  0  0  0
    4.8104   -2.9550    1.3059 H   0  0  0  0  0  0  0  0  0  0  0  0
    6.1707   -1.8484    1.6403 H   0  0  0  0  0  0  0  0  0  0  0  0
  1  2  1  0  0  0  0
  1 37  1  0  0  0  0
  1 38  1  0  0  0  0
  1 39  1  0  0  0  0
  2  3  2  0  0  0  0
  2  4  1  0  0  0  0
  5  4  1  0  0  0  0
  5  6  1  0  0  0  0
  5 40  1  6  0  0  0
  6  7  1  0  0  0  0
  6 41  1  0  0  0  0
  6 42  1  0  0  0  0
  7 43  1  0  0  0  0
  7 44  1  0  0  0  0
  8  7  1  0  0  0  0
  8  9  1  0  0  0  0
  8 45  1  1  0  0  0
  9 10  1  6  0  0  0
  9 11  1  0  0  0  0
  9 35  1  0  0  0  0
 10 46  1  0  0  0  0
 10 47  1  0  0  0  0
 10 48  1  0  0  0  0
 11 12  1  0  0  0  0
 11 49  1  0  0  0  0
 11 50  1  0  0  0  0
 12 51  1  0  0  0  0
 12 52  1  0  0  0  0
 13 12  1  0  0  0  0
 13 14  1  0  0  0  0
 13 53  1  1  0  0  0
 14 15  1  6  0  0  0
 14 16  1  0  0  0  0
 14  8  1  0  0  0  0
 15 54  1  0  0  0  0
 15 55  1  0  0  0  0
 15 56  1  0  0  0  0
 16 57  1  0  0  0  0
 16 58  1  0  0  0  0
 17 16  1  0  0  0  0
 17 18  1  0  0  0  0
 17 59  1  1  0  0  0
 18 19  1  0  0  0  0
 19 20  2  0  0  0  0
 21 19  1  6  0  0  0
 21 22  1  0  0  0  0
 21 13  1  0  0  0  0
 22 23  1  0  0  0  0
 22 60  1  0  0  0  0
 22 61  1  0  0  0  0
 23 24  1  0  0  0  0
 23 62  1  0  0  0  0
 23 63  1  0  0  0  0
 24 25  1  6  0  0  0
 24 26  1  0  0  0  0
 25 64  1  0  0  0  0
 25 65  1  0  0  0  0
 25 66  1  0  0  0  0
 26 27  1  0  0  0  0
 26 67  1  0  0  0  0
 26 68  1  0  0  0  0
 27 28  1  0  0  0  0
 27 69  1  0  0  0  0
 27 70  1  0  0  0  0
 28 29  1  0  0  0  0
 28 30  1  0  0  0  0
 28 31  1  0  0  0  0
 29 71  1  0  0  0  0
 29 72  1  0  0  0  0
 29 73  1  0  0  0  0
 30 74  1  0  0  0  0
 30 75  1  0  0  0  0
 30 76  1  0  0  0  0
 31 77  1  0  0  0  0
 31 78  1  0  0  0  0
 32 31  1  0  0  0  0
 32 33  1  0  0  0  0
 32 24  1  0  0  0  0
 32 79  1  1  0  0  0
 33 34  1  1  0  0  0
 33 17  1  0  0  0  0
 33 21  1  0  0  0  0
 34 80  1  0  0  0  0
 34 81  1  0  0  0  0
 34 82  1  0  0  0  0
 35 36  1  0  0  0  0
 35  5  1  0  0  0  0
 35 83  1  1  0  0  0
 36 84  1  0  0  0  0
 36 85  1  0  0  0  0
 36 86  1  0  0  0  0
M  END
>  <IDENTIFIER>
CNP0202605.1

>  <Energy>
1272.84

$$$$
