
 OpenBabel09062510223D

 79 81  0  0  0  0  0  0  0  0999 V2000
    0.9597    1.9028    1.3313 C   0  0  0  0  0  0  0  0  0  0  0  0
    0.5840    0.7983    0.3601 C   0  0  0  0  0  0  0  0  0  0  0  0
   -0.6058    0.7188   -0.2522 C   0  0  0  0  0  0  0  0  0  0  0  0
   -1.7865    1.6374   -0.1194 C   0  0  0  0  0  0  0  0  0  0  0  0
   -2.9285    1.0187    0.7402 C   0  0  1  0  0  0  0  0  0  0  0  0
   -4.2841    1.7605    0.5231 C   0  0  2  0  0  0  0  0  0  0  0  0
   -4.4544    3.2082    1.1035 C   0  0  0  0  0  0  0  0  0  0  0  0
   -5.8450    3.7763    0.7365 C   0  0  0  0  0  0  0  0  0  0  0  0
   -4.3015    3.2322    2.6341 C   0  0  0  0  0  0  0  0  0  0  0  0
   -3.4706    4.0617    0.5690 O   0  0  0  0  0  0  0  0  0  0  0  0
   -5.3780    0.7327    0.9094 C   0  0  0  0  0  0  0  0  0  0  0  0
   -4.6253   -0.5549    1.2412 C   0  0  0  0  0  0  0  0  0  0  0  0
   -3.2791   -0.4839    0.4838 C   0  0  1  0  0  0  0  0  0  0  0  0
   -3.5446   -0.7703   -1.0362 C   0  0  0  0  0  0  0  0  0  0  0  0
   -2.1933   -1.4817    1.1354 C   0  0  1  0  0  0  0  0  0  0  0  0
   -2.4873   -1.7905    2.4773 O   0  0  0  0  0  0  0  0  0  0  0  0
   -1.9855   -2.7449    0.3409 C   0  0  0  0  0  0  0  0  0  0  0  0
   -0.8195   -3.2778   -0.1351 C   0  0  0  0  0  0  0  0  0  0  0  0
   -0.8908   -4.5661   -0.9594 C   0  0  0  0  0  0  0  0  0  0  0  0
   -2.1969   -5.0220   -1.2007 O   0  0  0  0  0  0  0  0  0  0  0  0
    0.6485   -2.8302    0.0588 C   0  0  0  0  0  0  0  0  0  0  0  0
    1.2730   -1.6364    0.8539 C   0  0  0  0  0  0  0  0  0  0  0  0
    1.5859   -0.3114    0.0823 C   0  0  2  0  0  0  0  0  0  0  0  0
    2.8813    0.1576    0.4618 O   0  0  0  0  0  0  0  0  0  0  0  0
    3.8240    0.1244   -0.6071 C   0  0  2  0  0  0  0  0  0  0  0  0
    4.6778   -0.9942   -0.4244 O   0  0  0  0  0  0  0  0  0  0  0  0
    5.5650   -1.1454   -1.5246 C   0  0  2  0  0  0  0  0  0  0  0  0
    6.3525   -2.4488   -1.3174 C   0  0  0  0  0  0  0  0  0  0  0  0
    7.2113   -2.7120   -2.3944 O   0  0  0  0  0  0  0  0  0  0  0  0
    6.5130    0.0843   -1.6216 C   0  0  1  0  0  0  0  0  0  0  0  0
    7.4035   -0.0205   -2.7045 O   0  0  0  0  0  0  0  0  0  0  0  0
    5.6784    1.3750   -1.7354 C   0  0  2  0  0  0  0  0  0  0  0  0
    6.4960    2.5167   -1.7458 O   0  0  0  0  0  0  0  0  0  0  0  0
    4.6486    1.4273   -0.5906 C   0  0  1  0  0  0  0  0  0  0  0  0
    3.8251    2.5600   -0.7172 O   0  0  0  0  0  0  0  0  0  0  0  0
    0.1658    2.6423    1.5274 H   0  0  0  0  0  0  0  0  0  0  0  0
    1.8425    2.4567    0.9561 H   0  0  0  0  0  0  0  0  0  0  0  0
    1.2170    1.4449    2.3093 H   0  0  0  0  0  0  0  0  0  0  0  0
   -0.7488   -0.1392   -0.8946 H   0  0  0  0  0  0  0  0  0  0  0  0
   -2.1290    1.8294   -1.1576 H   0  0  0  0  0  0  0  0  0  0  0  0
   -1.5242    2.6222    0.3005 H   0  0  0  0  0  0  0  0  0  0  0  0
   -2.6421    1.0696    1.8140 H   0  0  0  0  0  0  0  0  0  0  0  0
   -4.3865    1.8705   -0.5792 H   0  0  0  0  0  0  0  0  0  0  0  0
   -6.6637    3.1746    1.1823 H   0  0  0  0  0  0  0  0  0  0  0  0
   -5.9823    3.7878   -0.3662 H   0  0  0  0  0  0  0  0  0  0  0  0
   -5.9456    4.8194    1.1061 H   0  0  0  0  0  0  0  0  0  0  0  0
   -5.0570    2.5904    3.1315 H   0  0  0  0  0  0  0  0  0  0  0  0
   -4.4280    4.2700    3.0116 H   0  0  0  0  0  0  0  0  0  0  0  0
   -3.2895    2.8964    2.9383 H   0  0  0  0  0  0  0  0  0  0  0  0
   -3.5897    4.0920   -0.4169 H   0  0  0  0  0  0  0  0  0  0  0  0
   -6.0368    0.5818    0.0255 H   0  0  0  0  0  0  0  0  0  0  0  0
   -6.0248    1.0084    1.7685 H   0  0  0  0  0  0  0  0  0  0  0  0
   -5.2183   -1.4855    1.1097 H   0  0  0  0  0  0  0  0  0  0  0  0
   -4.4106   -0.4560    2.3288 H   0  0  0  0  0  0  0  0  0  0  0  0
   -3.9571   -1.7893   -1.1768 H   0  0  0  0  0  0  0  0  0  0  0  0
   -2.6373   -0.6950   -1.6577 H   0  0  0  0  0  0  0  0  0  0  0  0
   -4.2947   -0.0950   -1.4873 H   0  0  0  0  0  0  0  0  0  0  0  0
   -1.2161   -1.0244    1.1925 H   0  0  0  0  0  0  0  0  0  0  0  0
   -3.1881   -2.4951    2.4875 H   0  0  0  0  0  0  0  0  0  0  0  0
   -2.9135   -3.2700    0.1485 H   0  0  0  0  0  0  0  0  0  0  0  0
   -0.2939   -5.3699   -0.4700 H   0  0  0  0  0  0  0  0  0  0  0  0
   -0.4182   -4.3828   -1.9483 H   0  0  0  0  0  0  0  0  0  0  0  0
   -2.4470   -5.5951   -0.4283 H   0  0  0  0  0  0  0  0  0  0  0  0
    1.1325   -2.8175   -0.9420 H   0  0  0  0  0  0  0  0  0  0  0  0
    1.0662   -3.7212    0.5828 H   0  0  0  0  0  0  0  0  0  0  0  0
    2.3017   -2.0346    1.0185 H   0  0  0  0  0  0  0  0  0  0  0  0
    0.9002   -1.4997    1.8915 H   0  0  0  0  0  0  0  0  0  0  0  0
    1.5320   -0.5518   -1.0026 H   0  0  0  0  0  0  0  0  0  0  0  0
    3.3431    0.0843   -1.6144 H   0  0  0  0  0  0  0  0  0  0  0  0
    4.9791   -1.2632   -2.4675 H   0  0  0  0  0  0  0  0  0  0  0  0
    5.6498   -3.3039   -1.1828 H   0  0  0  0  0  0  0  0  0  0  0  0
    6.9566   -2.3820   -0.3872 H   0  0  0  0  0  0  0  0  0  0  0  0
    6.6420   -3.0482   -3.1353 H   0  0  0  0  0  0  0  0  0  0  0  0
    7.1101    0.1330   -0.6823 H   0  0  0  0  0  0  0  0  0  0  0  0
    6.8589   -0.1007   -3.5317 H   0  0  0  0  0  0  0  0  0  0  0  0
    5.1230    1.3452   -2.7004 H   0  0  0  0  0  0  0  0  0  0  0  0
    6.9805    2.5458   -0.8788 H   0  0  0  0  0  0  0  0  0  0  0  0
    5.1787    1.4913    0.3858 H   0  0  0  0  0  0  0  0  0  0  0  0
    3.2934    2.4579   -1.5499 H   0  0  0  0  0  0  0  0  0  0  0  0
  1  2  1  0  0  0  0
  1 36  1  0  0  0  0
  1 37  1  0  0  0  0
  1 38  1  0  0  0  0
  2  3  2  0  0  0  0
  3  4  1  0  0  0  0
  3 39  1  0  0  0  0
  4 40  1  0  0  0  0
  4 41  1  0  0  0  0
  5  4  1  0  0  0  0
  5  6  1  0  0  0  0
  5 42  1  1  0  0  0
  6  7  1  0  0  0  0
  6 11  1  0  0  0  0
  6 43  1  6  0  0  0
  7  8  1  0  0  0  0
  7  9  1  0  0  0  0
  7 10  1  0  0  0  0
  8 44  1  0  0  0  0
  8 45  1  0  0  0  0
  8 46  1  0  0  0  0
  9 47  1  0  0  0  0
  9 48  1  0  0  0  0
  9 49  1  0  0  0  0
 10 50  1  0  0  0  0
 11 12  1  0  0  0  0
 11 51  1  0  0  0  0
 11 52  1  0  0  0  0
 12 13  1  0  0  0  0
 12 53  1  0  0  0  0
 12 54  1  0  0  0  0
 13 14  1  6  0  0  0
 13 15  1  0  0  0  0
 13  5  1  0  0  0  0
 14 55  1  0  0  0  0
 14 56  1  0  0  0  0
 14 57  1  0  0  0  0
 15 16  1  0  0  0  0
 15 17  1  0  0  0  0
 15 58  1  1  0  0  0
 16 59  1  0  0  0  0
 17 18  2  0  0  0  0
 17 60  1  0  0  0  0
 18 19  1  0  0  0  0
 18 21  1  0  0  0  0
 19 20  1  0  0  0  0
 19 61  1  0  0  0  0
 19 62  1  0  0  0  0
 20 63  1  0  0  0  0
 21 22  1  0  0  0  0
 21 64  1  0  0  0  0
 21 65  1  0  0  0  0
 22 23  1  0  0  0  0
 22 66  1  0  0  0  0
 22 67  1  0  0  0  0
 23 24  1  0  0  0  0
 23  2  1  0  0  0  0
 23 68  1  6  0  0  0
 25 24  1  0  0  0  0
 25 26  1  0  0  0  0
 25 69  1  6  0  0  0
 26 27  1  0  0  0  0
 27 28  1  0  0  0  0
 27 30  1  0  0  0  0
 27 70  1  6  0  0  0
 28 29  1  0  0  0  0
 28 71  1  0  0  0  0
 28 72  1  0  0  0  0
 29 73  1  0  0  0  0
 30 31  1  0  0  0  0
 30 32  1  0  0  0  0
 30 74  1  1  0  0  0
 31 75  1  0  0  0  0
 32 33  1  0  0  0  0
 32 34  1  0  0  0  0
 32 76  1  6  0  0  0
 33 77  1  0  0  0  0
 34 35  1  0  0  0  0
 34 25  1  0  0  0  0
 34 78  1  1  0  0  0
 35 79  1  0  0  0  0
M  END
>  <IDENTIFIER>
CNP0296607.1

>  <Energy>
1064.39

$$$$
