
 OpenBabel09042519283D

 56 58  0  0  0  0  0  0  0  0999 V2000
   -1.8733    4.0938   -1.1448 C   0  0  0  0  0  0  0  0  0  0  0  0
   -2.2273    2.6509   -0.8797 C   0  0  0  0  0  0  0  0  0  0  0  0
   -1.4889    1.9194    0.0537 C   0  0  0  0  0  0  0  0  0  0  0  0
   -1.7658    0.5562    0.3458 C   0  0  0  0  0  0  0  0  0  0  0  0
   -2.8546   -0.0800   -0.3350 C   0  0  0  0  0  0  0  0  0  0  0  0
   -3.5764    0.6902   -1.2862 C   0  0  0  0  0  0  0  0  0  0  0  0
   -3.2810    2.0289   -1.5585 C   0  0  0  0  0  0  0  0  0  0  0  0
   -4.1016    2.7798   -2.5799 C   0  0  0  0  0  0  0  0  0  0  0  0
   -3.1931   -1.4025   -0.0764 N   0  3  0  0  0  0  0  0  0  0  0  0
   -4.7697   -2.0303   -0.7196 S   0  0  0  0  0  0  0  0  0  0  0  0
   -4.5928   -2.7107   -2.0859 O   0  0  0  0  0  0  0  0  0  0  0  0
   -5.3361   -3.1023    0.2247 O   0  0  0  0  0  0  0  0  0  0  0  0
   -6.0277   -0.8601   -0.8117 O   0  5  0  0  0  0  0  0  0  0  0  0
   -2.3852   -2.1517    0.7669 C   0  0  0  0  0  0  0  0  0  0  0  0
   -2.4683   -3.5688    1.0070 C   0  0  0  0  0  0  0  0  0  0  0  0
   -3.1990   -4.4341    0.2805 O   0  0  0  0  0  0  0  0  0  0  0  0
   -1.6952   -4.1362    1.9660 N   0  0  0  0  0  0  0  0  0  0  0  0
   -0.8047   -3.4435    2.7013 C   0  0  0  0  0  0  0  0  0  0  0  0
   -0.1503   -4.0111    3.5570 O   0  0  0  0  0  0  0  0  0  0  0  0
   -0.6058   -2.1340    2.4632 N   0  0  0  0  0  0  0  0  0  0  0  0
   -1.3091   -1.4490    1.5252 C   0  0  0  0  0  0  0  0  0  0  0  0
   -1.0300   -0.1319    1.2916 N   0  0  0  0  0  0  0  0  0  0  0  0
    0.0129    0.5401    2.1232 C   0  0  0  0  0  0  0  0  0  0  0  0
    1.4449    0.5855    1.5145 C   0  0  2  0  0  0  0  0  0  0  0  0
    1.4399    1.1949    0.2507 O   0  0  0  0  0  0  0  0  0  0  0  0
    2.1832   -0.7912    1.4922 C   0  0  2  0  0  0  0  0  0  0  0  0
    2.0660   -1.4243    2.7442 O   0  0  0  0  0  0  0  0  0  0  0  0
    3.6999   -0.7328    1.1295 C   0  0  2  0  0  0  0  0  0  0  0  0
    4.4212    0.0047    2.0885 O   0  0  0  0  0  0  0  0  0  0  0  0
    4.0427   -0.2513   -0.2917 C   0  0  0  0  0  0  0  0  0  0  0  0
    5.4334   -0.3838   -0.4708 O   0  0  0  0  0  0  0  0  0  0  0  0
    5.8621    0.2449   -2.0446 P   0  0  0  0  0  0  0  0  0  0  0  0
    5.1798   -0.6284   -3.1328 O   0  0  0  0  0  0  0  0  0  0  0  0
    7.5737    0.1130   -2.3064 O   0  0  0  0  0  0  0  0  0  0  0  0
    5.3525    1.8926   -2.2603 O   0  0  0  0  0  0  0  0  0  0  0  0
   -1.0121    4.4315   -0.5303 H   0  0  0  0  0  0  0  0  0  0  0  0
   -2.7393    4.7452   -0.9048 H   0  0  0  0  0  0  0  0  0  0  0  0
   -1.6000    4.2245   -2.2128 H   0  0  0  0  0  0  0  0  0  0  0  0
   -0.6878    2.4496    0.5382 H   0  0  0  0  0  0  0  0  0  0  0  0
   -4.3698    0.2679   -1.8679 H   0  0  0  0  0  0  0  0  0  0  0  0
   -4.8999    2.1466   -3.0221 H   0  0  0  0  0  0  0  0  0  0  0  0
   -3.4496    3.1327   -3.4056 H   0  0  0  0  0  0  0  0  0  0  0  0
   -4.5916    3.6528   -2.0997 H   0  0  0  0  0  0  0  0  0  0  0  0
   -3.4827   -4.2783   -0.6241 H   0  0  0  0  0  0  0  0  0  0  0  0
    0.0657    0.0853    3.1352 H   0  0  0  0  0  0  0  0  0  0  0  0
   -0.3282    1.5577    2.3992 H   0  0  0  0  0  0  0  0  0  0  0  0
    2.0206    1.2387    2.2029 H   0  0  0  0  0  0  0  0  0  0  0  0
    1.0364    0.5503   -0.3873 H   0  0  0  0  0  0  0  0  0  0  0  0
    1.6719   -1.4434    0.7512 H   0  0  0  0  0  0  0  0  0  0  0  0
    2.4343   -0.8127    3.4344 H   0  0  0  0  0  0  0  0  0  0  0  0
    4.0673   -1.7819    1.1833 H   0  0  0  0  0  0  0  0  0  0  0  0
    4.2662    0.9694    1.9153 H   0  0  0  0  0  0  0  0  0  0  0  0
    3.7432    0.8120   -0.4006 H   0  0  0  0  0  0  0  0  0  0  0  0
    3.4986   -0.8911   -1.0215 H   0  0  0  0  0  0  0  0  0  0  0  0
    7.8369   -0.7222   -1.8434 H   0  0  0  0  0  0  0  0  0  0  0  0
    4.4479    1.8337   -2.6585 H   0  0  0  0  0  0  0  0  0  0  0  0
  1  2  1  0  0  0  0
  1 36  1  0  0  0  0
  1 37  1  0  0  0  0
  1 38  1  0  0  0  0
  2  3  2  0  0  0  0
  3  4  1  0  0  0  0
  3 39  1  0  0  0  0
  4  5  2  0  0  0  0
  5  6  1  0  0  0  0
  5  9  1  0  0  0  0
  6  7  2  0  0  0  0
  6 40  1  0  0  0  0
  7  8  1  0  0  0  0
  7  2  1  0  0  0  0
  8 41  1  0  0  0  0
  8 42  1  0  0  0  0
  8 43  1  0  0  0  0
  9 10  1  0  0  0  0
  9 14  2  0  0  0  0
 10 11  2  0  0  0  0
 10 12  2  0  0  0  0
 10 13  1  0  0  0  0
 14 15  1  0  0  0  0
 15 16  1  0  0  0  0
 15 17  2  0  0  0  0
 16 44  1  0  0  0  0
 17 18  1  0  0  0  0
 18 19  2  0  0  0  0
 18 20  1  0  0  0  0
 20 21  2  0  0  0  0
 21 22  1  0  0  0  0
 21 14  1  0  0  0  0
 22 23  1  0  0  0  0
 22  4  1  0  0  0  0
 23 24  1  0  0  0  0
 23 45  1  0  0  0  0
 23 46  1  0  0  0  0
 24 25  1  0  0  0  0
 24 26  1  0  0  0  0
 24 47  1  1  0  0  0
 25 48  1  0  0  0  0
 26 27  1  0  0  0  0
 26 28  1  0  0  0  0
 26 49  1  6  0  0  0
 27 50  1  0  0  0  0
 28 29  1  0  0  0  0
 28 30  1  0  0  0  0
 28 51  1  1  0  0  0
 29 52  1  0  0  0  0
 30 31  1  0  0  0  0
 30 53  1  0  0  0  0
 30 54  1  0  0  0  0
 31 32  1  0  0  0  0
 32 33  2  0  0  0  0
 32 34  1  0  0  0  0
 32 35  1  0  0  0  0
 34 55  1  0  0  0  0
 35 56  1  0  0  0  0
M  CHG  2   9   1  13  -1
M  END
>  <IDENTIFIER>
CNP0548011.1

>  <Energy>
1349.16

$$$$
