
 OpenBabel09112510273D

 45 48  0  0  0  0  0  0  0  0999 V2000
    2.6918    1.6413   -1.9622 C   0  0  0  0  0  0  0  0  0  0  0  0
    1.4271    1.7099   -1.5252 C   0  0  0  0  0  0  0  0  0  0  0  0
    0.3298    2.3662   -2.2166 C   0  0  0  0  0  0  0  0  0  0  0  0
    0.4236    2.9837   -3.2671 O   0  0  0  0  0  0  0  0  0  0  0  0
   -0.8170    2.2542   -1.5283 O   0  0  0  0  0  0  0  0  0  0  0  0
   -0.6659    1.3017   -0.5406 C   0  0  1  0  0  0  0  0  0  0  0  0
    0.8529    1.2505   -0.2140 C   0  0  1  0  0  0  0  0  0  0  0  0
    1.4039   -0.0760    0.4041 C   0  0  2  0  0  0  0  0  0  0  0  0
    2.7496    0.1214    0.6796 O   0  0  0  0  0  0  0  0  0  0  0  0
    3.3314    0.1279    1.9089 C   0  0  0  0  0  0  0  0  0  0  0  0
    4.8003    0.3814    2.0201 C   0  0  0  0  0  0  0  0  0  0  0  0
    2.6761   -0.0634    2.9231 O   0  0  0  0  0  0  0  0  0  0  0  0
    1.2934   -1.3742   -0.4557 C   0  0  0  0  0  0  0  0  0  0  0  0
   -0.1334   -1.9138   -0.7497 C   0  0  1  0  0  0  0  0  0  0  0  0
   -0.5596   -2.0582   -2.2205 C   0  0  0  0  0  0  0  0  0  0  0  0
   -0.4078   -3.1353   -0.0758 O   0  0  0  0  0  0  0  0  0  0  0  0
   -1.0654   -1.9961    0.4159 C   0  0  2  0  0  0  0  0  0  0  0  0
   -2.5900   -1.9578    0.1954 C   0  0  0  0  0  0  0  0  0  0  0  0
   -3.1332   -0.5519   -0.1693 C   0  0  0  0  0  0  0  0  0  0  0  0
   -2.8295    0.6206    0.8195 C   0  0  1  0  0  0  0  0  0  0  0  0
   -3.9337    1.0540    1.7828 C   0  0  0  0  0  0  0  0  0  0  0  0
   -1.6161    0.4419    1.5171 O   0  0  0  0  0  0  0  0  0  0  0  0
   -1.6377    1.5317    0.6329 C   0  0  1  0  0  0  0  0  0  0  0  0
    2.9587    2.0568   -2.9289 H   0  0  0  0  0  0  0  0  0  0  0  0
    3.4723    1.1730   -1.3789 H   0  0  0  0  0  0  0  0  0  0  0  0
   -0.8824    0.3724   -1.0468 H   0  0  0  0  0  0  0  0  0  0  0  0
    1.0777    2.0731    0.5027 H   0  0  0  0  0  0  0  0  0  0  0  0
    0.8629   -0.2364    1.3547 H   0  0  0  0  0  0  0  0  0  0  0  0
    5.2414    0.5359    1.0124 H   0  0  0  0  0  0  0  0  0  0  0  0
    5.2954   -0.4881    2.5005 H   0  0  0  0  0  0  0  0  0  0  0  0
    4.9775    1.2899    2.6325 H   0  0  0  0  0  0  0  0  0  0  0  0
    1.8426   -2.1761    0.0868 H   0  0  0  0  0  0  0  0  0  0  0  0
    1.8391   -1.2230   -1.4125 H   0  0  0  0  0  0  0  0  0  0  0  0
    0.2209   -2.6253   -2.7700 H   0  0  0  0  0  0  0  0  0  0  0  0
   -0.6609   -1.0674   -2.7050 H   0  0  0  0  0  0  0  0  0  0  0  0
   -1.5126   -2.6103   -2.3373 H   0  0  0  0  0  0  0  0  0  0  0  0
   -0.6766   -1.7561    1.4234 H   0  0  0  0  0  0  0  0  0  0  0  0
   -3.0719   -2.3115    1.1305 H   0  0  0  0  0  0  0  0  0  0  0  0
   -2.8951   -2.6608   -0.6068 H   0  0  0  0  0  0  0  0  0  0  0  0
   -4.2370   -0.6344   -0.2665 H   0  0  0  0  0  0  0  0  0  0  0  0
   -2.8202   -0.2896   -1.1961 H   0  0  0  0  0  0  0  0  0  0  0  0
   -4.3159    0.1734    2.3397 H   0  0  0  0  0  0  0  0  0  0  0  0
   -4.7663    1.5022    1.2009 H   0  0  0  0  0  0  0  0  0  0  0  0
   -3.5686    1.8088    2.5118 H   0  0  0  0  0  0  0  0  0  0  0  0
   -1.5557    2.4668    1.2263 H   0  0  0  0  0  0  0  0  0  0  0  0
  1  2  2  0  0  0  0
  1 24  1  0  0  0  0
  1 25  1  0  0  0  0
  2  3  1  0  0  0  0
  3  4  2  0  0  0  0
  3  5  1  0  0  0  0
  6  5  1  0  0  0  0
  6  7  1  0  0  0  0
  6 26  1  6  0  0  0
  7  8  1  0  0  0  0
  7  2  1  0  0  0  0
  7 27  1  1  0  0  0
  8  9  1  0  0  0  0
  8 13  1  0  0  0  0
  8 28  1  1  0  0  0
  9 10  1  0  0  0  0
 10 11  1  0  0  0  0
 10 12  2  0  0  0  0
 11 29  1  0  0  0  0
 11 30  1  0  0  0  0
 11 31  1  0  0  0  0
 13 14  1  0  0  0  0
 13 32  1  0  0  0  0
 13 33  1  0  0  0  0
 14 15  1  6  0  0  0
 14 16  1  0  0  0  0
 15 34  1  0  0  0  0
 15 35  1  0  0  0  0
 15 36  1  0  0  0  0
 16 17  1  0  0  0  0
 17 18  1  0  0  0  0
 17 14  1  0  0  0  0
 17 37  1  1  0  0  0
 18 19  1  0  0  0  0
 18 38  1  0  0  0  0
 18 39  1  0  0  0  0
 19 20  1  0  0  0  0
 19 40  1  0  0  0  0
 19 41  1  0  0  0  0
 20 21  1  1  0  0  0
 20 22  1  0  0  0  0
 21 42  1  0  0  0  0
 21 43  1  0  0  0  0
 21 44  1  0  0  0  0
 23 22  1  0  0  0  0
 23 20  1  0  0  0  0
 23  6  1  0  0  0  0
 23 45  1  1  0  0  0
M  END
>  <IDENTIFIER>
CNP0255680.2

>  <Energy>
3479.75

$$$$
