
 OpenBabel09112514423D

 56 61  0  0  0  0  0  0  0  0999 V2000
    8.9108   -0.6914    0.4468 C   0  0  0  0  0  0  0  0  0  0  0  0
    7.4816   -1.1225    0.1603 C   0  0  0  0  0  0  0  0  0  0  0  0
    6.6077   -0.1399    0.5816 O   0  0  0  0  0  0  0  0  0  0  0  0
    5.2539   -0.1959    0.4894 C   0  0  0  0  0  0  0  0  0  0  0  0
    4.5084    0.8848    0.9791 C   0  0  0  0  0  0  0  0  0  0  0  0
    3.1124    0.8725    0.9115 C   0  0  0  0  0  0  0  0  0  0  0  0
    2.4460   -0.2236    0.3520 C   0  0  0  0  0  0  0  0  0  0  0  0
    1.0311   -0.2344    0.2864 N   0  0  0  0  0  0  0  0  0  0  0  0
    0.2899    0.2380   -0.7536 C   0  0  0  0  0  0  0  0  0  0  0  0
    0.7561    0.7151   -1.7770 O   0  0  0  0  0  0  0  0  0  0  0  0
   -1.1264    0.3181   -0.3068 C   0  0  2  0  0  0  0  0  0  0  0  0
   -1.1608   -0.8840    0.6451 C   0  0  1  0  0  0  0  0  0  0  0  0
    0.2016   -0.7443    1.2422 C   0  0  0  0  0  0  0  0  0  0  0  0
    0.5899   -1.2780    2.2701 O   0  0  0  0  0  0  0  0  0  0  0  0
   -2.6146   -1.0731    1.1816 C   0  0  1  0  0  0  0  0  0  0  0  0
   -3.3184    0.2580    1.4045 C   0  0  0  0  0  0  0  0  0  0  0  0
   -3.9601    0.6175    2.5907 C   0  0  0  0  0  0  0  0  0  0  0  0
   -4.6273    1.8448    2.6627 C   0  0  0  0  0  0  0  0  0  0  0  0
   -4.6599    2.7022    1.5538 C   0  0  0  0  0  0  0  0  0  0  0  0
   -4.0205    2.3485    0.3587 C   0  0  0  0  0  0  0  0  0  0  0  0
   -3.3408    1.1228    0.2710 C   0  0  0  0  0  0  0  0  0  0  0  0
   -2.5381    0.5864   -0.9522 C   0  0  1  0  0  0  0  0  0  0  0  0
   -2.4098    1.6095   -2.0909 C   0  0  0  0  0  0  0  0  0  0  0  0
   -1.7478    2.9479   -1.8830 C   0  0  0  0  0  0  0  0  0  0  0  0
   -2.8109    1.3604   -3.2136 O   0  0  0  0  0  0  0  0  0  0  0  0
   -3.2457   -0.7766   -1.2257 C   0  0  0  0  0  0  0  0  0  0  0  0
   -3.8362   -1.2325   -2.4217 C   0  0  0  0  0  0  0  0  0  0  0  0
   -4.4711   -2.4809   -2.4564 C   0  0  0  0  0  0  0  0  0  0  0  0
   -4.5314   -3.2866   -1.3141 C   0  0  0  0  0  0  0  0  0  0  0  0
   -3.9546   -2.8579   -0.1173 C   0  0  0  0  0  0  0  0  0  0  0  0
   -3.3197   -1.6148   -0.0680 C   0  0  0  0  0  0  0  0  0  0  0  0
    3.1805   -1.3068   -0.1425 C   0  0  0  0  0  0  0  0  0  0  0  0
    4.5764   -1.2970   -0.0760 C   0  0  0  0  0  0  0  0  0  0  0  0
    9.6136   -1.4830    0.1113 H   0  0  0  0  0  0  0  0  0  0  0  0
    9.0469   -0.5271    1.5369 H   0  0  0  0  0  0  0  0  0  0  0  0
    9.1409    0.2498   -0.0961 H   0  0  0  0  0  0  0  0  0  0  0  0
    7.2749   -2.0694    0.7055 H   0  0  0  0  0  0  0  0  0  0  0  0
    7.3652   -1.2889   -0.9330 H   0  0  0  0  0  0  0  0  0  0  0  0
    5.0131    1.7376    1.4157 H   0  0  0  0  0  0  0  0  0  0  0  0
    2.5483    1.7137    1.2948 H   0  0  0  0  0  0  0  0  0  0  0  0
   -0.9942    1.2322    0.3315 H   0  0  0  0  0  0  0  0  0  0  0  0
   -0.9751   -1.8306    0.0705 H   0  0  0  0  0  0  0  0  0  0  0  0
   -2.6681   -1.7867    2.0320 H   0  0  0  0  0  0  0  0  0  0  0  0
   -3.9512   -0.0476    3.4446 H   0  0  0  0  0  0  0  0  0  0  0  0
   -5.1283    2.1308    3.5783 H   0  0  0  0  0  0  0  0  0  0  0  0
   -5.1835    3.6468    1.6221 H   0  0  0  0  0  0  0  0  0  0  0  0
   -4.0630    3.0302   -0.4771 H   0  0  0  0  0  0  0  0  0  0  0  0
   -1.4185    3.0963   -0.8358 H   0  0  0  0  0  0  0  0  0  0  0  0
   -2.4579    3.7609   -2.1405 H   0  0  0  0  0  0  0  0  0  0  0  0
   -0.8599    3.0277   -2.5445 H   0  0  0  0  0  0  0  0  0  0  0  0
   -3.8365   -0.6623   -3.3320 H   0  0  0  0  0  0  0  0  0  0  0  0
   -4.9243   -2.8258   -3.3770 H   0  0  0  0  0  0  0  0  0  0  0  0
   -5.0249   -4.2488   -1.3593 H   0  0  0  0  0  0  0  0  0  0  0  0
   -3.9958   -3.4902    0.7603 H   0  0  0  0  0  0  0  0  0  0  0  0
    2.6695   -2.1564   -0.5778 H   0  0  0  0  0  0  0  0  0  0  0  0
    5.1172   -2.1487   -0.4655 H   0  0  0  0  0  0  0  0  0  0  0  0
  1  2  1  0  0  0  0
  1 34  1  0  0  0  0
  1 35  1  0  0  0  0
  1 36  1  0  0  0  0
  2  3  1  0  0  0  0
  2 37  1  0  0  0  0
  2 38  1  0  0  0  0
  3  4  1  0  0  0  0
  4  5  2  0  0  0  0
  5  6  1  0  0  0  0
  5 39  1  0  0  0  0
  6  7  2  0  0  0  0
  6 40  1  0  0  0  0
  7  8  1  0  0  0  0
  7 32  1  0  0  0  0
  8  9  1  0  0  0  0
  9 10  2  0  0  0  0
 11  9  1  0  0  0  0
 11 12  1  0  0  0  0
 11 41  1  1  0  0  0
 12 13  1  0  0  0  0
 12 15  1  0  0  0  0
 12 42  1  6  0  0  0
 13 14  2  0  0  0  0
 13  8  1  0  0  0  0
 15 16  1  0  0  0  0
 15 43  1  1  0  0  0
 16 17  2  0  0  0  0
 17 18  1  0  0  0  0
 17 44  1  0  0  0  0
 18 19  2  0  0  0  0
 18 45  1  0  0  0  0
 19 20  1  0  0  0  0
 19 46  1  0  0  0  0
 20 21  2  0  0  0  0
 20 47  1  0  0  0  0
 21 22  1  0  0  0  0
 21 16  1  0  0  0  0
 22 23  1  6  0  0  0
 22 26  1  0  0  0  0
 22 11  1  0  0  0  0
 23 24  1  0  0  0  0
 23 25  2  0  0  0  0
 24 48  1  0  0  0  0
 24 49  1  0  0  0  0
 24 50  1  0  0  0  0
 26 27  2  0  0  0  0
 27 28  1  0  0  0  0
 27 51  1  0  0  0  0
 28 29  2  0  0  0  0
 28 52  1  0  0  0  0
 29 30  1  0  0  0  0
 29 53  1  0  0  0  0
 30 31  2  0  0  0  0
 30 54  1  0  0  0  0
 31 15  1  0  0  0  0
 31 26  1  0  0  0  0
 32 33  2  0  0  0  0
 32 55  1  0  0  0  0
 33  4  1  0  0  0  0
 33 56  1  0  0  0  0
M  END
>  <IDENTIFIER>
CNP0067194.9

>  <Energy>
1061.57

$$$$
