
 OpenBabel09102523103D

198208  0  0  0  0  0  0  0  0999 V2000
    8.3029   -0.9792   -3.3333 C   0  0  0  0  0  0  0  0  0  0  0  0
    7.7057   -2.3086   -2.8668 C   0  0  2  0  0  0  0  0  0  0  0  0
    6.2756   -2.2418   -3.0430 O   0  0  0  0  0  0  0  0  0  0  0  0
    5.4893   -2.7189   -1.9471 C   0  0  2  0  0  0  0  0  0  0  0  0
    5.5156   -1.7437   -0.9172 O   0  0  0  0  0  0  0  0  0  0  0  0
    4.2946   -1.4539   -0.2593 C   0  0  2  0  0  0  0  0  0  0  0  0
    4.3252    0.0794   -0.0829 C   0  0  1  0  0  0  0  0  0  0  0  0
    3.2834    0.5388    0.6904 O   0  0  0  0  0  0  0  0  0  0  0  0
    2.4187    1.5300    0.3726 C   0  0  0  0  0  0  0  0  0  0  0  0
    2.1851    1.7963   -0.7984 O   0  0  0  0  0  0  0  0  0  0  0  0
    1.8194    2.3255    1.5355 C   0  0  1  0  0  0  0  0  0  0  0  0
    3.0306    2.8666    2.3606 C   0  0  0  0  0  0  0  0  0  0  0  0
    3.9109    3.8088    1.4935 C   0  0  0  0  0  0  0  0  0  0  0  0
    3.1292    5.0407    0.9461 C   0  0  0  0  0  0  0  0  0  0  0  0
    4.0118    5.7823   -0.0773 C   0  0  0  0  0  0  0  0  0  0  0  0
    2.8352    6.0308    2.1056 C   0  0  0  0  0  0  0  0  0  0  0  0
    1.8074    4.5849    0.2332 C   0  0  0  0  0  0  0  0  0  0  0  0
    1.0109    3.6061    1.1309 C   0  0  1  0  0  0  0  0  0  0  0  0
   -0.4363    3.2659    0.8183 C   0  0  0  0  0  0  0  0  0  0  0  0
   -0.9212    3.2963   -0.4264 C   0  0  0  0  0  0  0  0  0  0  0  0
   -2.3353    2.9362   -0.7784 C   0  0  0  0  0  0  0  0  0  0  0  0
   -3.3506    2.7817    0.4168 C   0  0  1  0  0  0  0  0  0  0  0  0
   -4.7707    2.1546   -0.0471 C   0  0  2  0  0  0  0  0  0  0  0  0
   -5.0171    2.5597   -1.5587 C   0  0  0  0  0  0  0  0  0  0  0  0
   -5.9459    2.7972    0.7671 C   0  0  0  0  0  0  0  0  0  0  0  0
   -7.3230    2.4324    0.1750 C   0  0  2  0  0  0  0  0  0  0  0  0
   -8.3688    3.0888    0.8538 O   0  0  0  0  0  0  0  0  0  0  0  0
   -7.5601    0.9020    0.0963 C   0  0  1  0  0  0  0  0  0  0  0  0
   -8.3433    0.5619   -1.0560 O   0  0  0  0  0  0  0  0  0  0  0  0
   -9.7416    0.4525   -0.7689 C   0  0  1  0  0  0  0  0  0  0  0  0
  -10.4262    1.5642   -1.3274 O   0  0  0  0  0  0  0  0  0  0  0  0
  -11.7807    1.5852   -0.8872 C   0  0  1  0  0  0  0  0  0  0  0  0
  -12.4218    2.8924   -1.3674 C   0  0  0  0  0  0  0  0  0  0  0  0
  -13.7084    3.0513   -0.8283 O   0  0  0  0  0  0  0  0  0  0  0  0
  -12.5359    0.3196   -1.4070 C   0  0  2  0  0  0  0  0  0  0  0  0
  -13.8716    0.3009   -0.9703 O   0  0  0  0  0  0  0  0  0  0  0  0
  -11.7972   -0.9390   -0.9175 C   0  0  1  0  0  0  0  0  0  0  0  0
  -12.3905   -2.1342   -1.4148 O   0  0  0  0  0  0  0  0  0  0  0  0
  -12.5660   -3.1202   -0.3935 C   0  0  1  0  0  0  0  0  0  0  0  0
  -13.9383   -3.2096   -0.0119 O   0  0  0  0  0  0  0  0  0  0  0  0
  -14.7763   -3.8336   -0.9877 C   0  0  1  0  0  0  0  0  0  0  0  0
  -15.1242   -2.9002   -2.1694 C   0  0  0  0  0  0  0  0  0  0  0  0
  -15.6991   -1.7124   -1.6979 O   0  0  0  0  0  0  0  0  0  0  0  0
  -14.2505   -5.2393   -1.4154 C   0  0  2  0  0  0  0  0  0  0  0  0
  -14.3525   -6.1785   -0.3636 O   0  0  0  0  0  0  0  0  0  0  0  0
  -12.7894   -5.1585   -1.8918 C   0  0  1  0  0  0  0  0  0  0  0  0
  -12.7053   -4.4234   -3.0841 O   0  0  0  0  0  0  0  0  0  0  0  0
  -11.9508   -4.4967   -0.7912 C   0  0  2  0  0  0  0  0  0  0  0  0
  -11.8466   -5.3833    0.3064 O   0  0  0  0  0  0  0  0  0  0  0  0
  -10.3213   -0.8532   -1.3512 C   0  0  2  0  0  0  0  0  0  0  0  0
   -9.6180   -1.9797   -0.9033 O   0  0  0  0  0  0  0  0  0  0  0  0
   -6.3053   -0.0825    0.3439 C   0  0  0  0  0  0  0  0  0  0  0  0
   -6.4511   -0.5621    1.8577 C   0  0  0  0  0  0  0  0  0  0  0  0
   -7.7055   -1.1612    2.1021 O   0  0  0  0  0  0  0  0  0  0  0  0
   -6.4231   -1.3959   -0.4808 C   0  0  0  0  0  0  0  0  0  0  0  0
   -6.3704   -1.1323   -1.8603 O   0  0  0  0  0  0  0  0  0  0  0  0
   -4.8344    0.5567    0.0305 C   0  0  2  0  0  0  0  0  0  0  0  0
   -3.7183   -0.1555    0.8888 C   0  0  0  0  0  0  0  0  0  0  0  0
   -2.4042    0.5945    1.0962 C   0  0  0  0  0  0  0  0  0  0  0  0
   -2.6412    2.0465    1.6181 C   0  0  2  0  0  0  0  0  0  0  0  0
   -3.5503    1.9976    2.8975 C   0  0  0  0  0  0  0  0  0  0  0  0
   -1.2796    2.8390    2.0322 C   0  0  2  0  0  0  0  0  0  0  0  0
   -1.6630    4.1736    2.7785 C   0  0  0  0  0  0  0  0  0  0  0  0
   -0.3159    2.0549    3.0409 C   0  0  0  0  0  0  0  0  0  0  0  0
    0.9036    1.3387    2.3857 C   0  0  1  0  0  0  0  0  0  0  0  0
    0.4628    0.2317    1.6394 O   0  0  0  0  0  0  0  0  0  0  0  0
    5.5502    0.5073    0.5246 O   0  0  0  0  0  0  0  0  0  0  0  0
    6.0456   -0.3346    1.5738 C   0  0  0  0  0  0  0  0  0  0  0  0
    4.9677   -1.2326    2.2123 C   0  0  2  0  0  0  0  0  0  0  0  0
    5.4589   -1.9881    3.2888 O   0  0  0  0  0  0  0  0  0  0  0  0
    4.2984   -2.1324    1.1434 C   0  0  1  0  0  0  0  0  0  0  0  0
    3.0068   -2.4953    1.5644 O   0  0  0  0  0  0  0  0  0  0  0  0
    6.0342   -4.0805   -1.4431 C   0  0  1  0  0  0  0  0  0  0  0  0
    5.8972   -5.0513   -2.4555 O   0  0  0  0  0  0  0  0  0  0  0  0
    7.5233   -3.9676   -0.9843 C   0  0  2  0  0  0  0  0  0  0  0  0
    7.6478   -4.1575    0.4018 O   0  0  0  0  0  0  0  0  0  0  0  0
    8.1533   -2.6208   -1.4127 C   0  0  1  0  0  0  0  0  0  0  0  0
    9.5736   -2.6500   -1.2802 O   0  0  0  0  0  0  0  0  0  0  0  0
   10.0267   -1.9726   -0.0988 C   0  0  1  0  0  0  0  0  0  0  0  0
   10.1801   -2.8977    0.9603 O   0  0  0  0  0  0  0  0  0  0  0  0
   11.1749   -3.8932    0.7008 C   0  0  0  0  0  0  0  0  0  0  0  0
   12.2518   -3.5073   -0.3547 C   0  0  2  0  0  0  0  0  0  0  0  0
   13.3715   -4.3534   -0.2597 O   0  0  0  0  0  0  0  0  0  0  0  0
   12.6135   -2.0378   -0.1390 C   0  0  1  0  0  0  0  0  0  0  0  0
   13.6206   -1.6486   -1.0545 O   0  0  0  0  0  0  0  0  0  0  0  0
   14.7251   -0.9884   -0.4600 C   0  0  1  0  0  0  0  0  0  0  0  0
   15.9182   -1.5208   -1.0146 O   0  0  0  0  0  0  0  0  0  0  0  0
   16.6311   -0.4351   -1.5736 C   0  0  0  0  0  0  0  0  0  0  0  0
   16.1668    0.8267   -0.8506 C   0  0  1  0  0  0  0  0  0  0  0  0
   16.6926    0.8571    0.4579 O   0  0  0  0  0  0  0  0  0  0  0  0
   16.5064    2.1272   -1.6071 C   0  0  0  0  0  0  0  0  0  0  0  0
   16.0157    3.2481   -0.9213 O   0  0  0  0  0  0  0  0  0  0  0  0
   14.6924    0.5025   -0.8143 C   0  0  2  0  0  0  0  0  0  0  0  0
   13.9306    1.2966    0.0626 O   0  0  0  0  0  0  0  0  0  0  0  0
   11.3440   -1.1862   -0.3741 C   0  0  2  0  0  0  0  0  0  0  0  0
   11.4223   -0.0089    0.3922 O   0  0  0  0  0  0  0  0  0  0  0  0
    8.0081   -0.7857   -4.3865 H   0  0  0  0  0  0  0  0  0  0  0  0
    9.4119   -1.0087   -3.2854 H   0  0  0  0  0  0  0  0  0  0  0  0
    7.9329   -0.1450   -2.7000 H   0  0  0  0  0  0  0  0  0  0  0  0
    8.1024   -3.1068   -3.5318 H   0  0  0  0  0  0  0  0  0  0  0  0
    4.4605   -2.8856   -2.3361 H   0  0  0  0  0  0  0  0  0  0  0  0
    3.4036   -1.7747   -0.8447 H   0  0  0  0  0  0  0  0  0  0  0  0
    4.2971    0.5336   -1.0988 H   0  0  0  0  0  0  0  0  0  0  0  0
    3.6608    2.0233    2.7195 H   0  0  0  0  0  0  0  0  0  0  0  0
    2.6774    3.3956    3.2706 H   0  0  0  0  0  0  0  0  0  0  0  0
    4.3121    3.2235    0.6387 H   0  0  0  0  0  0  0  0  0  0  0  0
    4.7919    4.1454    2.0825 H   0  0  0  0  0  0  0  0  0  0  0  0
    4.9633    6.1158    0.3910 H   0  0  0  0  0  0  0  0  0  0  0  0
    3.4837    6.6734   -0.4795 H   0  0  0  0  0  0  0  0  0  0  0  0
    4.2645    5.1151   -0.9297 H   0  0  0  0  0  0  0  0  0  0  0  0
    3.7874    6.3808    2.5604 H   0  0  0  0  0  0  0  0  0  0  0  0
    2.2372    5.5973    2.9282 H   0  0  0  0  0  0  0  0  0  0  0  0
    2.2909    6.9213    1.7249 H   0  0  0  0  0  0  0  0  0  0  0  0
    2.0391    4.1073   -0.7353 H   0  0  0  0  0  0  0  0  0  0  0  0
    1.1927    5.4820   -0.0009 H   0  0  0  0  0  0  0  0  0  0  0  0
    0.8932    4.2075    2.0351 H   0  0  0  0  0  0  0  0  0  0  0  0
   -0.2622    3.5534   -1.2493 H   0  0  0  0  0  0  0  0  0  0  0  0
   -2.2536    2.0104   -1.3811 H   0  0  0  0  0  0  0  0  0  0  0  0
   -2.7083    3.7442   -1.4434 H   0  0  0  0  0  0  0  0  0  0  0  0
   -3.5442    3.8298    0.7170 H   0  0  0  0  0  0  0  0  0  0  0  0
   -5.0850    3.6634   -1.6753 H   0  0  0  0  0  0  0  0  0  0  0  0
   -5.9050    2.0776   -2.0089 H   0  0  0  0  0  0  0  0  0  0  0  0
   -4.2340    2.1849   -2.2444 H   0  0  0  0  0  0  0  0  0  0  0  0
   -5.8597    3.9054    0.7197 H   0  0  0  0  0  0  0  0  0  0  0  0
   -5.9412    2.5273    1.8291 H   0  0  0  0  0  0  0  0  0  0  0  0
   -7.3844    2.8483   -0.8442 H   0  0  0  0  0  0  0  0  0  0  0  0
   -8.2774    2.8882    1.8216 H   0  0  0  0  0  0  0  0  0  0  0  0
   -8.1527    0.7780    1.0121 H   0  0  0  0  0  0  0  0  0  0  0  0
   -9.9533    0.3954    0.3237 H   0  0  0  0  0  0  0  0  0  0  0  0
  -11.8093    1.6213    0.2285 H   0  0  0  0  0  0  0  0  0  0  0  0
  -12.4353    2.9397   -2.4811 H   0  0  0  0  0  0  0  0  0  0  0  0
  -11.8041    3.7476   -1.0175 H   0  0  0  0  0  0  0  0  0  0  0  0
  -14.3571    2.8032   -1.5365 H   0  0  0  0  0  0  0  0  0  0  0  0
  -12.5314    0.3303   -2.5194 H   0  0  0  0  0  0  0  0  0  0  0  0
  -13.8649    0.3026    0.0233 H   0  0  0  0  0  0  0  0  0  0  0  0
  -11.8401   -0.8681    0.1962 H   0  0  0  0  0  0  0  0  0  0  0  0
  -11.9897   -2.8715    0.5265 H   0  0  0  0  0  0  0  0  0  0  0  0
  -15.7580   -4.0209   -0.4987 H   0  0  0  0  0  0  0  0  0  0  0  0
  -15.8315   -3.4141   -2.8603 H   0  0  0  0  0  0  0  0  0  0  0  0
  -14.2539   -2.6332   -2.7919 H   0  0  0  0  0  0  0  0  0  0  0  0
  -16.6544   -1.9086   -1.5139 H   0  0  0  0  0  0  0  0  0  0  0  0
  -14.8944   -5.6286   -2.2330 H   0  0  0  0  0  0  0  0  0  0  0  0
  -14.4541   -5.7116    0.5062 H   0  0  0  0  0  0  0  0  0  0  0  0
  -12.4222   -6.1925   -2.0947 H   0  0  0  0  0  0  0  0  0  0  0  0
  -11.8050   -4.5981   -3.4651 H   0  0  0  0  0  0  0  0  0  0  0  0
  -10.9128   -4.3321   -1.1521 H   0  0  0  0  0  0  0  0  0  0  0  0
  -12.2800   -4.9981    1.1113 H   0  0  0  0  0  0  0  0  0  0  0  0
  -10.2481   -0.8269   -2.4627 H   0  0  0  0  0  0  0  0  0  0  0  0
   -9.6920   -2.0098    0.0856 H   0  0  0  0  0  0  0  0  0  0  0  0
   -6.3118    0.3085    2.5344 H   0  0  0  0  0  0  0  0  0  0  0  0
   -5.7282   -1.3512    2.1342 H   0  0  0  0  0  0  0  0  0  0  0  0
   -8.1139   -0.7033    2.8839 H   0  0  0  0  0  0  0  0  0  0  0  0
   -7.3509   -1.9369   -0.2148 H   0  0  0  0  0  0  0  0  0  0  0  0
   -5.5954   -2.0916   -0.2266 H   0  0  0  0  0  0  0  0  0  0  0  0
   -7.1417   -1.5937   -2.2816 H   0  0  0  0  0  0  0  0  0  0  0  0
   -4.5118    0.2663   -0.9934 H   0  0  0  0  0  0  0  0  0  0  0  0
   -3.5300   -1.1793    0.4974 H   0  0  0  0  0  0  0  0  0  0  0  0
   -4.0147   -0.3255    1.9202 H   0  0  0  0  0  0  0  0  0  0  0  0
   -1.8421    0.5707    0.1482 H   0  0  0  0  0  0  0  0  0  0  0  0
   -1.8439    0.0050    1.8472 H   0  0  0  0  0  0  0  0  0  0  0  0
   -3.0384    1.5093    3.7479 H   0  0  0  0  0  0  0  0  0  0  0  0
   -4.4791    1.4471    2.7907 H   0  0  0  0  0  0  0  0  0  0  0  0
   -3.9079    2.9991    3.1991 H   0  0  0  0  0  0  0  0  0  0  0  0
   -2.1352    3.9809    3.7621 H   0  0  0  0  0  0  0  0  0  0  0  0
   -2.3213    4.8249    2.1744 H   0  0  0  0  0  0  0  0  0  0  0  0
   -0.7985    4.8036    3.0545 H   0  0  0  0  0  0  0  0  0  0  0  0
   -0.8710    1.3766    3.7166 H   0  0  0  0  0  0  0  0  0  0  0  0
    0.1775    2.7856    3.7196 H   0  0  0  0  0  0  0  0  0  0  0  0
    1.5381    0.8931    3.1829 H   0  0  0  0  0  0  0  0  0  0  0  0
    0.2098    0.5411    0.7359 H   0  0  0  0  0  0  0  0  0  0  0  0
    6.4618    0.3194    2.3690 H   0  0  0  0  0  0  0  0  0  0  0  0
    6.8749   -0.9557    1.1810 H   0  0  0  0  0  0  0  0  0  0  0  0
    4.2153   -0.5269    2.6241 H   0  0  0  0  0  0  0  0  0  0  0  0
    6.2329   -2.5108    2.9537 H   0  0  0  0  0  0  0  0  0  0  0  0
    4.8644   -3.0745    1.0336 H   0  0  0  0  0  0  0  0  0  0  0  0
    2.4367   -1.6850    1.5351 H   0  0  0  0  0  0  0  0  0  0  0  0
    5.4128   -4.4492   -0.6028 H   0  0  0  0  0  0  0  0  0  0  0  0
    6.4458   -4.7764   -3.2342 H   0  0  0  0  0  0  0  0  0  0  0  0
    8.0881   -4.7918   -1.4731 H   0  0  0  0  0  0  0  0  0  0  0  0
    7.1882   -3.4010    0.8475 H   0  0  0  0  0  0  0  0  0  0  0  0
    7.7196   -1.8009   -0.8232 H   0  0  0  0  0  0  0  0  0  0  0  0
    9.3190   -1.1770    0.2220 H   0  0  0  0  0  0  0  0  0  0  0  0
   10.7038   -4.8619    0.4297 H   0  0  0  0  0  0  0  0  0  0  0  0
   11.7010   -4.0373    1.6689 H   0  0  0  0  0  0  0  0  0  0  0  0
   11.8430   -3.6083   -1.3834 H   0  0  0  0  0  0  0  0  0  0  0  0
   13.8194   -4.1670    0.6073 H   0  0  0  0  0  0  0  0  0  0  0  0
   12.9144   -1.9695    0.9342 H   0  0  0  0  0  0  0  0  0  0  0  0
   14.8273   -1.1200    0.6433 H   0  0  0  0  0  0  0  0  0  0  0  0
   16.3686   -0.3893   -2.6557 H   0  0  0  0  0  0  0  0  0  0  0  0
   17.7289   -0.5758   -1.4849 H   0  0  0  0  0  0  0  0  0  0  0  0
   17.6811    0.9207    0.3805 H   0  0  0  0  0  0  0  0  0  0  0  0
   16.1050    2.0970   -2.6480 H   0  0  0  0  0  0  0  0  0  0  0  0
   17.6081    2.2297   -1.7025 H   0  0  0  0  0  0  0  0  0  0  0  0
   15.0970    3.4129   -1.2590 H   0  0  0  0  0  0  0  0  0  0  0  0
   14.2878    0.6082   -1.8482 H   0  0  0  0  0  0  0  0  0  0  0  0
   14.2724    1.1522    0.9831 H   0  0  0  0  0  0  0  0  0  0  0  0
   11.2738   -0.8745   -1.4397 H   0  0  0  0  0  0  0  0  0  0  0  0
   11.2949   -0.2625    1.3434 H   0  0  0  0  0  0  0  0  0  0  0  0
  1 97  1  0  0  0  0
  1 98  1  0  0  0  0
  1 99  1  0  0  0  0
  2  1  1  0  0  0  0
  2  3  1  0  0  0  0
  2100  1  6  0  0  0
  3  4  1  0  0  0  0
  4  5  1  0  0  0  0
  4 73  1  0  0  0  0
  4101  1  6  0  0  0
  6  5  1  0  0  0  0
  6  7  1  0  0  0  0
  6102  1  6  0  0  0
  7  8  1  0  0  0  0
  7 67  1  0  0  0  0
  7103  1  6  0  0  0
  8  9  1  0  0  0  0
  9 10  2  0  0  0  0
 11  9  1  6  0  0  0
 11 12  1  0  0  0  0
 12 13  1  0  0  0  0
 12104  1  0  0  0  0
 12105  1  0  0  0  0
 13 14  1  0  0  0  0
 13106  1  0  0  0  0
 13107  1  0  0  0  0
 14 15  1  0  0  0  0
 14 16  1  0  0  0  0
 14 17  1  0  0  0  0
 15108  1  0  0  0  0
 15109  1  0  0  0  0
 15110  1  0  0  0  0
 16111  1  0  0  0  0
 16112  1  0  0  0  0
 16113  1  0  0  0  0
 17114  1  0  0  0  0
 17115  1  0  0  0  0
 18 17  1  0  0  0  0
 18 19  1  0  0  0  0
 18 11  1  0  0  0  0
 18116  1  1  0  0  0
 19 20  2  0  0  0  0
 20 21  1  0  0  0  0
 20117  1  0  0  0  0
 21118  1  0  0  0  0
 21119  1  0  0  0  0
 22 21  1  0  0  0  0
 22 23  1  0  0  0  0
 22120  1  1  0  0  0
 23 24  1  6  0  0  0
 23 25  1  0  0  0  0
 24121  1  0  0  0  0
 24122  1  0  0  0  0
 24123  1  0  0  0  0
 25 26  1  0  0  0  0
 25124  1  0  0  0  0
 25125  1  0  0  0  0
 26 27  1  0  0  0  0
 26 28  1  0  0  0  0
 26126  1  6  0  0  0
 27127  1  0  0  0  0
 28 29  1  0  0  0  0
 28 52  1  0  0  0  0
 28128  1  1  0  0  0
 30 29  1  0  0  0  0
 30 31  1  0  0  0  0
 30129  1  1  0  0  0
 31 32  1  0  0  0  0
 32 33  1  0  0  0  0
 32 35  1  0  0  0  0
 32130  1  1  0  0  0
 33 34  1  0  0  0  0
 33131  1  0  0  0  0
 33132  1  0  0  0  0
 34133  1  0  0  0  0
 35 36  1  0  0  0  0
 35 37  1  0  0  0  0
 35134  1  6  0  0  0
 36135  1  0  0  0  0
 37 38  1  0  0  0  0
 37 50  1  0  0  0  0
 37136  1  1  0  0  0
 39 38  1  0  0  0  0
 39 40  1  0  0  0  0
 39137  1  1  0  0  0
 40 41  1  0  0  0  0
 41 42  1  0  0  0  0
 41 44  1  0  0  0  0
 41138  1  1  0  0  0
 42 43  1  0  0  0  0
 42139  1  0  0  0  0
 42140  1  0  0  0  0
 43141  1  0  0  0  0
 44 45  1  0  0  0  0
 44 46  1  0  0  0  0
 44142  1  6  0  0  0
 45143  1  0  0  0  0
 46 47  1  0  0  0  0
 46 48  1  0  0  0  0
 46144  1  6  0  0  0
 47145  1  0  0  0  0
 48 49  1  0  0  0  0
 48 39  1  0  0  0  0
 48146  1  6  0  0  0
 49147  1  0  0  0  0
 50 51  1  0  0  0  0
 50 30  1  0  0  0  0
 50148  1  6  0  0  0
 51149  1  0  0  0  0
 52 53  1  0  0  0  0
 52 55  1  0  0  0  0
 52 57  1  0  0  0  0
 53 54  1  0  0  0  0
 53150  1  0  0  0  0
 53151  1  0  0  0  0
 54152  1  0  0  0  0
 55 56  1  0  0  0  0
 55153  1  0  0  0  0
 55154  1  0  0  0  0
 56155  1  0  0  0  0
 57 58  1  0  0  0  0
 57 23  1  0  0  0  0
 57156  1  6  0  0  0
 58 59  1  0  0  0  0
 58157  1  0  0  0  0
 58158  1  0  0  0  0
 59 60  1  0  0  0  0
 59159  1  0  0  0  0
 59160  1  0  0  0  0
 60 61  1  1  0  0  0
 60 62  1  0  0  0  0
 60 22  1  0  0  0  0
 61161  1  0  0  0  0
 61162  1  0  0  0  0
 61163  1  0  0  0  0
 62 63  1  1  0  0  0
 62 64  1  0  0  0  0
 62 19  1  0  0  0  0
 63164  1  0  0  0  0
 63165  1  0  0  0  0
 63166  1  0  0  0  0
 64 65  1  0  0  0  0
 64167  1  0  0  0  0
 64168  1  0  0  0  0
 65 66  1  0  0  0  0
 65 11  1  0  0  0  0
 65169  1  1  0  0  0
 66170  1  0  0  0  0
 67 68  1  0  0  0  0
 68 69  1  0  0  0  0
 68171  1  0  0  0  0
 68172  1  0  0  0  0
 69 70  1  0  0  0  0
 69 71  1  0  0  0  0
 69173  1  1  0  0  0
 70174  1  0  0  0  0
 71 72  1  0  0  0  0
 71  6  1  0  0  0  0
 71175  1  6  0  0  0
 72176  1  0  0  0  0
 73 74  1  0  0  0  0
 73 75  1  0  0  0  0
 73177  1  1  0  0  0
 74178  1  0  0  0  0
 75 76  1  0  0  0  0
 75 77  1  0  0  0  0
 75179  1  6  0  0  0
 76180  1  0  0  0  0
 77 78  1  0  0  0  0
 77  2  1  0  0  0  0
 77181  1  1  0  0  0
 79 78  1  0  0  0  0
 79 80  1  0  0  0  0
 79182  1  1  0  0  0
 80 81  1  0  0  0  0
 81 82  1  0  0  0  0
 81183  1  0  0  0  0
 81184  1  0  0  0  0
 82 83  1  0  0  0  0
 82 84  1  0  0  0  0
 82185  1  6  0  0  0
 83186  1  0  0  0  0
 84 85  1  0  0  0  0
 84 95  1  0  0  0  0
 84187  1  1  0  0  0
 86 85  1  0  0  0  0
 86 87  1  0  0  0  0
 86188  1  1  0  0  0
 87 88  1  0  0  0  0
 88 89  1  0  0  0  0
 88189  1  0  0  0  0
 88190  1  0  0  0  0
 89 90  1  1  0  0  0
 89 91  1  0  0  0  0
 89 93  1  0  0  0  0
 90191  1  0  0  0  0
 91 92  1  0  0  0  0
 91192  1  0  0  0  0
 91193  1  0  0  0  0
 92194  1  0  0  0  0
 93 94  1  0  0  0  0
 93 86  1  0  0  0  0
 93195  1  6  0  0  0
 94196  1  0  0  0  0
 95 96  1  0  0  0  0
 95 79  1  0  0  0  0
 95197  1  6  0  0  0
 96198  1  0  0  0  0
M  END
>  <IDENTIFIER>
CNP0196036.4

>  <Energy>
3118.23

$$$$
