
 OpenBabel09092508243D

156156  0  0  0  0  0  0  0  0999 V2000
  -17.9682    0.9919    1.3954 C   0  0  0  0  0  0  0  0  0  0  0  0
  -16.8287    1.6066    0.6188 C   0  0  0  0  0  0  0  0  0  0  0  0
  -16.6817    3.1079    0.5899 C   0  0  0  0  0  0  0  0  0  0  0  0
  -15.9163    0.8605   -0.0456 C   0  0  0  0  0  0  0  0  0  0  0  0
  -15.9154   -0.6512   -0.1337 C   0  0  0  0  0  0  0  0  0  0  0  0
  -14.8171   -1.3697    0.6883 C   0  0  0  0  0  0  0  0  0  0  0  0
  -13.2967   -1.1997    0.3365 C   0  0  2  0  0  0  0  0  0  0  0  0
  -12.7778    0.2179    0.6594 C   0  0  0  0  0  0  0  0  0  0  0  0
  -13.0946   -1.5176   -1.0140 O   0  0  0  0  0  0  0  0  0  0  0  0
  -12.5240   -2.2324    1.2191 C   0  0  0  0  0  0  0  0  0  0  0  0
  -10.9731   -2.2246    1.3590 C   0  0  0  0  0  0  0  0  0  0  0  0
  -10.0464   -2.7604    0.2299 C   0  0  0  0  0  0  0  0  0  0  0  0
   -9.5740   -1.8283   -0.9340 C   0  0  2  0  0  0  0  0  0  0  0  0
   -8.9133   -0.5607   -0.3228 C   0  0  0  0  0  0  0  0  0  0  0  0
  -10.6711   -1.5288   -1.7598 O   0  0  0  0  0  0  0  0  0  0  0  0
   -8.5118   -2.6249   -1.7642 C   0  0  0  0  0  0  0  0  0  0  0  0
   -8.1180   -2.1322   -3.1869 C   0  0  0  0  0  0  0  0  0  0  0  0
   -7.6605   -0.6863   -3.5114 C   0  0  0  0  0  0  0  0  0  0  0  0
   -6.1931   -0.1404   -3.3175 C   0  0  2  0  0  0  0  0  0  0  0  0
   -6.1946    1.2824   -3.9507 C   0  0  0  0  0  0  0  0  0  0  0  0
   -5.2753   -0.9553   -4.0111 O   0  0  0  0  0  0  0  0  0  0  0  0
   -5.6680    0.0549   -1.8610 C   0  0  0  0  0  0  0  0  0  0  0  0
   -5.0731   -1.1764   -1.1661 C   0  0  0  0  0  0  0  0  0  0  0  0
   -4.7086   -0.9739    0.3290 C   0  0  0  0  0  0  0  0  0  0  0  0
   -3.5623    0.0042    0.7613 C   0  0  1  0  0  0  0  0  0  0  0  0
   -3.9209    1.4998    0.5399 C   0  0  0  0  0  0  0  0  0  0  0  0
   -3.3575   -0.1828    2.1448 O   0  0  0  0  0  0  0  0  0  0  0  0
   -2.2322   -0.3717    0.0390 C   0  0  0  0  0  0  0  0  0  0  0  0
   -1.0590    0.5343    0.4527 C   0  0  0  0  0  0  0  0  0  0  0  0
    0.2759    0.1456   -0.2135 C   0  0  0  0  0  0  0  0  0  0  0  0
    1.4438    1.1513    0.0727 C   0  0  2  0  0  0  0  0  0  0  0  0
    1.1244    2.5516   -0.5052 C   0  0  0  0  0  0  0  0  0  0  0  0
    2.6090    0.6842   -0.5621 O   0  0  0  0  0  0  0  0  0  0  0  0
    1.7191    1.3229    1.6039 C   0  0  0  0  0  0  0  0  0  0  0  0
    2.2300    0.0725    2.3560 C   0  0  0  0  0  0  0  0  0  0  0  0
    3.6521   -0.4323    2.0154 C   0  0  0  0  0  0  0  0  0  0  0  0
    4.7730    0.5350    2.3916 C   0  0  0  0  0  0  0  0  0  0  0  0
    4.9595    1.8349    1.6368 C   0  0  0  0  0  0  0  0  0  0  0  0
    5.6408    0.1853    3.3745 C   0  0  0  0  0  0  0  0  0  0  0  0
    6.8053    1.0358    3.8301 C   0  0  0  0  0  0  0  0  0  0  0  0
    8.1661    0.4352    3.4446 C   0  0  0  0  0  0  0  0  0  0  0  0
    8.3399    0.3692    1.9350 C   0  0  0  0  0  0  0  0  0  0  0  0
    7.6317   -0.7193    1.1566 C   0  0  0  0  0  0  0  0  0  0  0  0
    9.1063    1.2989    1.3155 C   0  0  0  0  0  0  0  0  0  0  0  0
    9.3344    1.3668   -0.1767 C   0  0  0  0  0  0  0  0  0  0  0  0
   10.8272    1.3507   -0.5211 C   0  0  0  0  0  0  0  0  0  0  0  0
   11.5506    0.1150   -0.0184 C   0  0  0  0  0  0  0  0  0  0  0  0
   11.0984   -1.2493   -0.4876 C   0  0  0  0  0  0  0  0  0  0  0  0
   12.6037    0.2665    0.8212 C   0  0  0  0  0  0  0  0  0  0  0  0
   13.4579   -0.8746    1.3439 C   0  0  0  0  0  0  0  0  0  0  0  0
   14.8171   -0.7200    0.9743 O   0  0  0  0  0  0  0  0  0  0  0  0
   14.9863   -0.6705   -0.4407 C   0  0  1  0  0  0  0  0  0  0  0  0
   15.2585    0.6619   -0.8355 O   0  0  0  0  0  0  0  0  0  0  0  0
   16.5176    1.1701   -0.3847 C   0  0  2  0  0  0  0  0  0  0  0  0
   16.7968    2.4538   -1.1871 C   0  0  0  0  0  0  0  0  0  0  0  0
   15.7952    3.4062   -0.9574 O   0  0  0  0  0  0  0  0  0  0  0  0
   17.7061    0.1565   -0.5572 C   0  0  1  0  0  0  0  0  0  0  0  0
   18.1175   -0.3822    0.6791 O   0  0  0  0  0  0  0  0  0  0  0  0
   17.3103   -0.9754   -1.5139 C   0  0  2  0  0  0  0  0  0  0  0  0
   17.1037   -0.4678   -2.8181 O   0  0  0  0  0  0  0  0  0  0  0  0
   16.0699   -1.6831   -0.9278 C   0  0  2  0  0  0  0  0  0  0  0  0
   15.5564   -2.6431   -1.8206 O   0  0  0  0  0  0  0  0  0  0  0  0
  -18.5940    1.7675    1.8841 H   0  0  0  0  0  0  0  0  0  0  0  0
  -17.5667    0.3274    2.1896 H   0  0  0  0  0  0  0  0  0  0  0  0
  -18.6234    0.4092    0.7149 H   0  0  0  0  0  0  0  0  0  0  0  0
  -17.4787    3.6138    1.1735 H   0  0  0  0  0  0  0  0  0  0  0  0
  -16.7358    3.4709   -0.4583 H   0  0  0  0  0  0  0  0  0  0  0  0
  -15.7002    3.3967    1.0230 H   0  0  0  0  0  0  0  0  0  0  0  0
  -15.1411    1.3886   -0.5788 H   0  0  0  0  0  0  0  0  0  0  0  0
  -15.8770   -0.9513   -1.2014 H   0  0  0  0  0  0  0  0  0  0  0  0
  -16.8735   -1.0461    0.2607 H   0  0  0  0  0  0  0  0  0  0  0  0
  -15.0522   -2.4521    0.5753 H   0  0  0  0  0  0  0  0  0  0  0  0
  -14.9724   -1.1133    1.7603 H   0  0  0  0  0  0  0  0  0  0  0  0
  -13.2202    0.9960    0.0283 H   0  0  0  0  0  0  0  0  0  0  0  0
  -11.7036    0.2895    0.4483 H   0  0  0  0  0  0  0  0  0  0  0  0
  -12.9506    0.4693    1.7274 H   0  0  0  0  0  0  0  0  0  0  0  0
  -13.5122   -0.8031   -1.5620 H   0  0  0  0  0  0  0  0  0  0  0  0
  -12.8444   -3.2615    0.9428 H   0  0  0  0  0  0  0  0  0  0  0  0
  -12.8754   -2.0575    2.2621 H   0  0  0  0  0  0  0  0  0  0  0  0
  -10.8150   -2.9632    2.1783 H   0  0  0  0  0  0  0  0  0  0  0  0
  -10.6057   -1.2695    1.7794 H   0  0  0  0  0  0  0  0  0  0  0  0
  -10.4840   -3.7021   -0.1692 H   0  0  0  0  0  0  0  0  0  0  0  0
   -9.1076   -3.0482    0.7570 H   0  0  0  0  0  0  0  0  0  0  0  0
   -9.5991    0.0094    0.3178 H   0  0  0  0  0  0  0  0  0  0  0  0
   -8.5920    0.1584   -1.0814 H   0  0  0  0  0  0  0  0  0  0  0  0
   -8.0349   -0.8409    0.2948 H   0  0  0  0  0  0  0  0  0  0  0  0
  -10.6907   -0.5565   -1.9560 H   0  0  0  0  0  0  0  0  0  0  0  0
   -8.9308   -3.6394   -1.9549 H   0  0  0  0  0  0  0  0  0  0  0  0
   -7.6418   -2.8147   -1.1254 H   0  0  0  0  0  0  0  0  0  0  0  0
   -9.0587   -2.2571   -3.7704 H   0  0  0  0  0  0  0  0  0  0  0  0
   -7.3842   -2.8431   -3.6257 H   0  0  0  0  0  0  0  0  0  0  0  0
   -8.4113    0.0303   -3.1384 H   0  0  0  0  0  0  0  0  0  0  0  0
   -7.7964   -0.6450   -4.6171 H   0  0  0  0  0  0  0  0  0  0  0  0
   -6.5100    1.2529   -5.0155 H   0  0  0  0  0  0  0  0  0  0  0  0
   -5.1813    1.7381   -3.9240 H   0  0  0  0  0  0  0  0  0  0  0  0
   -6.8929    1.9527   -3.4019 H   0  0  0  0  0  0  0  0  0  0  0  0
   -5.4608   -0.8840   -4.9838 H   0  0  0  0  0  0  0  0  0  0  0  0
   -6.4333    0.5575   -1.2396 H   0  0  0  0  0  0  0  0  0  0  0  0
   -4.8032    0.7251   -1.9466 H   0  0  0  0  0  0  0  0  0  0  0  0
   -4.1923   -1.5478   -1.7301 H   0  0  0  0  0  0  0  0  0  0  0  0
   -5.8048   -1.9800   -1.1953 H   0  0  0  0  0  0  0  0  0  0  0  0
   -4.4118   -1.9812    0.6973 H   0  0  0  0  0  0  0  0  0  0  0  0
   -5.6338   -0.6963    0.8796 H   0  0  0  0  0  0  0  0  0  0  0  0
   -4.9243    1.7287    0.9548 H   0  0  0  0  0  0  0  0  0  0  0  0
   -3.8688    1.8205   -0.5106 H   0  0  0  0  0  0  0  0  0  0  0  0
   -3.2041    2.1526    1.0803 H   0  0  0  0  0  0  0  0  0  0  0  0
   -4.1723    0.1189    2.6271 H   0  0  0  0  0  0  0  0  0  0  0  0
   -2.3604   -0.2885   -1.0615 H   0  0  0  0  0  0  0  0  0  0  0  0
   -1.9777   -1.4271    0.2829 H   0  0  0  0  0  0  0  0  0  0  0  0
   -0.9525    0.4849    1.5537 H   0  0  0  0  0  0  0  0  0  0  0  0
   -1.3111    1.5607    0.1421 H   0  0  0  0  0  0  0  0  0  0  0  0
    0.1205    0.1006   -1.3137 H   0  0  0  0  0  0  0  0  0  0  0  0
    0.5598   -0.8746    0.1183 H   0  0  0  0  0  0  0  0  0  0  0  0
    0.9075    2.4855   -1.5929 H   0  0  0  0  0  0  0  0  0  0  0  0
    1.9991    3.2246   -0.3721 H   0  0  0  0  0  0  0  0  0  0  0  0
    0.2647    3.0340    0.0022 H   0  0  0  0  0  0  0  0  0  0  0  0
    2.4322    0.6197   -1.5373 H   0  0  0  0  0  0  0  0  0  0  0  0
    0.7849    1.6578    2.0965 H   0  0  0  0  0  0  0  0  0  0  0  0
    2.4109    2.1596    1.7942 H   0  0  0  0  0  0  0  0  0  0  0  0
    1.5073   -0.7549    2.2004 H   0  0  0  0  0  0  0  0  0  0  0  0
    2.2228    0.3035    3.4438 H   0  0  0  0  0  0  0  0  0  0  0  0
    3.7510   -0.7287    0.9522 H   0  0  0  0  0  0  0  0  0  0  0  0
    3.7760   -1.3741    2.5942 H   0  0  0  0  0  0  0  0  0  0  0  0
    4.2747    1.9284    0.7787 H   0  0  0  0  0  0  0  0  0  0  0  0
    5.9772    1.8798    1.1993 H   0  0  0  0  0  0  0  0  0  0  0  0
    4.8136    2.6993    2.3189 H   0  0  0  0  0  0  0  0  0  0  0  0
    5.5312   -0.7758    3.8681 H   0  0  0  0  0  0  0  0  0  0  0  0
    6.7379    1.1477    4.9331 H   0  0  0  0  0  0  0  0  0  0  0  0
    6.7725    2.0603    3.4077 H   0  0  0  0  0  0  0  0  0  0  0  0
    8.3275   -0.5681    3.8942 H   0  0  0  0  0  0  0  0  0  0  0  0
    8.9320    1.1125    3.8833 H   0  0  0  0  0  0  0  0  0  0  0  0
    7.0695   -1.4002    1.8264 H   0  0  0  0  0  0  0  0  0  0  0  0
    8.3695   -1.3407    0.6116 H   0  0  0  0  0  0  0  0  0  0  0  0
    6.9195   -0.2742    0.4302 H   0  0  0  0  0  0  0  0  0  0  0  0
    9.5806    2.0756    1.9096 H   0  0  0  0  0  0  0  0  0  0  0  0
    8.9053    2.3204   -0.5522 H   0  0  0  0  0  0  0  0  0  0  0  0
    8.8205    0.5521   -0.7217 H   0  0  0  0  0  0  0  0  0  0  0  0
   11.2888    2.2740   -0.1054 H   0  0  0  0  0  0  0  0  0  0  0  0
   10.9349    1.3989   -1.6261 H   0  0  0  0  0  0  0  0  0  0  0  0
   10.2410   -1.1768   -1.1859 H   0  0  0  0  0  0  0  0  0  0  0  0
   10.7859   -1.8596    0.3862 H   0  0  0  0  0  0  0  0  0  0  0  0
   11.9144   -1.7717   -1.0252 H   0  0  0  0  0  0  0  0  0  0  0  0
   12.9015    1.2649    1.1305 H   0  0  0  0  0  0  0  0  0  0  0  0
   13.1034   -1.8806    1.0383 H   0  0  0  0  0  0  0  0  0  0  0  0
   13.3972   -0.8481    2.4516 H   0  0  0  0  0  0  0  0  0  0  0  0
   14.0581   -0.9606   -0.9787 H   0  0  0  0  0  0  0  0  0  0  0  0
   16.4482    1.5019    0.6765 H   0  0  0  0  0  0  0  0  0  0  0  0
   16.8903    2.2383   -2.2748 H   0  0  0  0  0  0  0  0  0  0  0  0
   17.7643    2.8935   -0.8591 H   0  0  0  0  0  0  0  0  0  0  0  0
   15.0350    3.1731   -1.5521 H   0  0  0  0  0  0  0  0  0  0  0  0
   18.6021    0.6829   -0.9529 H   0  0  0  0  0  0  0  0  0  0  0  0
   17.3216   -0.5521    1.2514 H   0  0  0  0  0  0  0  0  0  0  0  0
   18.1337   -1.7154   -1.5952 H   0  0  0  0  0  0  0  0  0  0  0  0
   16.1856   -0.1053   -2.8992 H   0  0  0  0  0  0  0  0  0  0  0  0
   16.3965   -2.2505   -0.0290 H   0  0  0  0  0  0  0  0  0  0  0  0
   15.1492   -2.1634   -2.5879 H   0  0  0  0  0  0  0  0  0  0  0  0
  1  2  1  0  0  0  0
  1 63  1  0  0  0  0
  1 64  1  0  0  0  0
  1 65  1  0  0  0  0
  2  3  1  0  0  0  0
  2  4  2  0  0  0  0
  3 66  1  0  0  0  0
  3 67  1  0  0  0  0
  3 68  1  0  0  0  0
  4  5  1  0  0  0  0
  4 69  1  0  0  0  0
  5  6  1  0  0  0  0
  5 70  1  0  0  0  0
  5 71  1  0  0  0  0
  6  7  1  0  0  0  0
  6 72  1  0  0  0  0
  6 73  1  0  0  0  0
  7  8  1  0  0  0  0
  7  9  1  6  0  0  0
  7 10  1  0  0  0  0
  8 74  1  0  0  0  0
  8 75  1  0  0  0  0
  8 76  1  0  0  0  0
  9 77  1  0  0  0  0
 10 11  1  0  0  0  0
 10 78  1  0  0  0  0
 10 79  1  0  0  0  0
 11 12  1  0  0  0  0
 11 80  1  0  0  0  0
 11 81  1  0  0  0  0
 12 13  1  0  0  0  0
 12 82  1  0  0  0  0
 12 83  1  0  0  0  0
 13 14  1  0  0  0  0
 13 15  1  6  0  0  0
 13 16  1  0  0  0  0
 14 84  1  0  0  0  0
 14 85  1  0  0  0  0
 14 86  1  0  0  0  0
 15 87  1  0  0  0  0
 16 17  1  0  0  0  0
 16 88  1  0  0  0  0
 16 89  1  0  0  0  0
 17 18  1  0  0  0  0
 17 90  1  0  0  0  0
 17 91  1  0  0  0  0
 18 19  1  0  0  0  0
 18 92  1  0  0  0  0
 18 93  1  0  0  0  0
 19 20  1  0  0  0  0
 19 21  1  6  0  0  0
 19 22  1  0  0  0  0
 20 94  1  0  0  0  0
 20 95  1  0  0  0  0
 20 96  1  0  0  0  0
 21 97  1  0  0  0  0
 22 23  1  0  0  0  0
 22 98  1  0  0  0  0
 22 99  1  0  0  0  0
 23 24  1  0  0  0  0
 23100  1  0  0  0  0
 23101  1  0  0  0  0
 24 25  1  0  0  0  0
 24102  1  0  0  0  0
 24103  1  0  0  0  0
 25 26  1  0  0  0  0
 25 27  1  1  0  0  0
 25 28  1  0  0  0  0
 26104  1  0  0  0  0
 26105  1  0  0  0  0
 26106  1  0  0  0  0
 27107  1  0  0  0  0
 28 29  1  0  0  0  0
 28108  1  0  0  0  0
 28109  1  0  0  0  0
 29 30  1  0  0  0  0
 29110  1  0  0  0  0
 29111  1  0  0  0  0
 30 31  1  0  0  0  0
 30112  1  0  0  0  0
 30113  1  0  0  0  0
 31 32  1  0  0  0  0
 31 33  1  6  0  0  0
 31 34  1  0  0  0  0
 32114  1  0  0  0  0
 32115  1  0  0  0  0
 32116  1  0  0  0  0
 33117  1  0  0  0  0
 34 35  1  0  0  0  0
 34118  1  0  0  0  0
 34119  1  0  0  0  0
 35 36  1  0  0  0  0
 35120  1  0  0  0  0
 35121  1  0  0  0  0
 36 37  1  0  0  0  0
 36122  1  0  0  0  0
 36123  1  0  0  0  0
 37 38  1  0  0  0  0
 37 39  2  0  0  0  0
 38124  1  0  0  0  0
 38125  1  0  0  0  0
 38126  1  0  0  0  0
 39 40  1  0  0  0  0
 39127  1  0  0  0  0
 40 41  1  0  0  0  0
 40128  1  0  0  0  0
 40129  1  0  0  0  0
 41 42  1  0  0  0  0
 41130  1  0  0  0  0
 41131  1  0  0  0  0
 42 43  1  0  0  0  0
 42 44  2  0  0  0  0
 43132  1  0  0  0  0
 43133  1  0  0  0  0
 43134  1  0  0  0  0
 44 45  1  0  0  0  0
 44135  1  0  0  0  0
 45 46  1  0  0  0  0
 45136  1  0  0  0  0
 45137  1  0  0  0  0
 46 47  1  0  0  0  0
 46138  1  0  0  0  0
 46139  1  0  0  0  0
 47 48  1  0  0  0  0
 47 49  2  0  0  0  0
 48140  1  0  0  0  0
 48141  1  0  0  0  0
 48142  1  0  0  0  0
 49 50  1  0  0  0  0
 49143  1  0  0  0  0
 50 51  1  0  0  0  0
 50144  1  0  0  0  0
 50145  1  0  0  0  0
 52 51  1  0  0  0  0
 52 53  1  0  0  0  0
 52146  1  6  0  0  0
 53 54  1  0  0  0  0
 54 55  1  0  0  0  0
 54 57  1  0  0  0  0
 54147  1  1  0  0  0
 55 56  1  0  0  0  0
 55148  1  0  0  0  0
 55149  1  0  0  0  0
 56150  1  0  0  0  0
 57 58  1  0  0  0  0
 57 59  1  0  0  0  0
 57151  1  6  0  0  0
 58152  1  0  0  0  0
 59 60  1  0  0  0  0
 59 61  1  0  0  0  0
 59153  1  6  0  0  0
 60154  1  0  0  0  0
 61 62  1  0  0  0  0
 61 52  1  0  0  0  0
 61155  1  1  0  0  0
 62156  1  0  0  0  0
M  END
>  <IDENTIFIER>
CNP0180530.8

>  <Energy>
1294.55

$$$$
