
 OpenBabel09132511582D

 72 76  0  0  0  0  0  0  0  0999 V2000
  -22.8820   29.1637    0.0000 C   0  0  0  0  0  0  0  0  0  0  0  0
  -21.7673   28.1600    0.0000 O   0  0  0  0  0  0  0  0  0  0  0  0
  -22.0624   26.7465   -0.0971 O   0  0  0  0  0  0  0  0  0  0  0  0
  -20.9644   25.6891    0.0000 C   0  0  0  0  0  0  0  0  0  0  0  0
  -19.8497   24.6854    0.0000 C   0  0  0  0  0  0  0  0  0  0  0  0
  -18.7350   23.6817    0.0000 C   0  0  0  0  0  0  0  0  0  0  0  0
  -17.6203   22.6780    0.0000 C   0  0  0  0  0  0  0  0  0  0  0  0
  -16.5056   21.6743    0.0000 C   0  0  0  0  0  0  0  0  0  0  0  0
  -15.3909   20.6706    0.0000 C   0  0  0  0  0  0  0  0  0  0  0  0
  -14.2761   19.6669    0.0000 C   0  0  0  0  0  0  0  0  0  0  0  0
  -13.1614   18.6632    0.0000 C   0  0  0  0  0  0  0  0  0  0  0  0
  -12.0467   17.6595    0.0000 C   0  0  0  0  0  0  0  0  0  0  0  0
  -10.9320   16.6558    0.0000 C   0  0  0  0  0  0  0  0  0  0  0  0
   -9.8173   15.6521    0.0000 C   0  0  0  0  0  0  0  0  0  0  0  0
   -8.8108   14.7493    0.0100 C   0  0  0  0  0  0  0  0  0  0  0  0
   -7.5878   13.6448    0.0000 C   0  0  0  0  0  0  0  0  0  0  0  0
   -6.4731   12.6411    0.0000 C   0  0  0  0  0  0  0  0  0  0  0  0
   -5.3584   11.6374    0.0000 C   0  0  0  0  0  0  0  0  0  0  0  0
   -4.2437   10.6337   -0.0000 C   0  0  0  0  0  0  0  0  0  0  0  0
   -3.1290    9.6300    0.0000 C   0  0  0  0  0  0  0  0  0  0  0  0
   -1.9196    9.0230    0.0628 C   0  0  0  0  0  0  0  0  0  0  0  0
   -0.8995    7.6226    0.0000 C   0  0  1  0  0  0  0  0  0  0  0  0
    0.5271    8.0861    0.0000 C   0  0  0  0  0  0  0  0  0  0  0  0
    1.6792    7.0269    0.0251 C   0  0  0  0  0  0  0  0  0  0  0  0
    1.4183    5.5551   -0.4655 C   0  0  0  0  0  0  0  0  0  0  0  0
   -0.0604    4.9280   -0.3991 C   0  0  2  0  0  0  0  0  0  0  0  0
   -0.0668    3.5473    0.5287 C   0  0  2  0  0  0  0  0  0  0  0  0
   -1.6075    2.9785    0.8633 C   0  0  1  0  0  0  0  0  0  0  0  0
   -2.9444    3.8366    0.8732 C   0  0  0  0  0  0  0  0  0  0  0  0
   -2.6380    5.6918    0.0000 C   0  0  0  0  0  0  0  0  0  0  0  0
   -0.6889    6.1356    0.4347 C   0  0  1  0  0  0  0  0  0  0  0  0
   -2.1470    1.7537    0.0000 C   0  0  1  0  0  0  0  0  0  0  0  0
   -2.9419    0.4816    0.0000 C   0  0  0  0  0  0  0  0  0  0  0  0
   -0.8027    0.7366   -0.1336 C   0  0  0  0  0  0  0  0  0  0  0  0
    0.5392    1.0906   -0.1197 C   0  0  0  0  0  0  0  0  0  0  0  0
    1.3365    0.0161   -0.1143 O   0  0  0  0  0  0  0  0  0  0  0  0
    0.6313   -1.0818   -0.1179 C   0  0  0  0  0  0  0  0  0  0  0  0
   -0.6728   -0.7357   -0.1445 C   0  0  0  0  0  0  0  0  0  0  0  0
    1.0740    2.4309    0.1738 C   0  0  2  0  0  0  0  0  0  0  0  0
    2.0962    2.8460   -0.7075 O   0  0  0  0  0  0  0  0  0  0  0  0
   -1.3291    4.8366   -1.4232 C   0  0  1  0  0  0  0  0  0  0  0  0
   -2.1686    4.0254   -2.2738 O   0  0  0  0  0  0  0  0  0  0  0  0
   -2.6380    5.6918    0.0000 O   0  0  0  0  0  0  0  0  0  0  0  0
   -2.3261    7.1591    0.0000 C   0  0  0  0  0  0  0  0  0  0  0  0
  -22.3221   30.1213   -0.0049 H   0  0  0  0  0  0  0  0  0  0  0  0
  -23.7870   28.5207    0.0137 H   0  0  0  0  0  0  0  0  0  0  0  0
  -23.6772   29.8797    0.0000 H   0  0  0  0  0  0  0  0  0  0  0  0
    0.5387    8.8135    0.8405 H   0  0  0  0  0  0  0  0  0  0  0  0
    0.9311    8.9894   -0.5059 H   0  0  0  0  0  0  0  0  0  0  0  0
    2.6784    7.4751    0.2220 H   0  0  0  0  0  0  0  0  0  0  0  0
    2.6962    7.2914   -0.2986 H   0  0  0  0  0  0  0  0  0  0  0  0
    2.2274    5.1802   -1.1246 H   0  0  0  0  0  0  0  0  0  0  0  0
    1.8271    5.1356    0.4632 H   0  0  0  0  0  0  0  0  0  0  0  0
    0.3486    3.8993    1.4931 H   0  0  0  0  0  0  0  0  0  0  0  0
   -1.7620    3.7535    1.6226 H   0  0  0  0  0  0  0  0  0  0  0  0
   -3.7843    3.6621    1.6140 H   0  0  0  0  0  0  0  0  0  0  0  0
   -3.7455    3.4648    0.2388 H   0  0  0  0  0  0  0  0  0  0  0  0
   -4.3188    6.1471   -0.2709 H   0  0  0  0  0  0  0  0  0  0  0  0
   -4.3188    6.1471   -0.2709 H   0  0  0  0  0  0  0  0  0  0  0  0
   -0.3938    6.0354    1.4469 H   0  0  0  0  0  0  0  0  0  0  0  0
   -2.5643    1.5695    1.0254 H   0  0  0  0  0  0  0  0  0  0  0  0
   -3.9489    0.8808   -0.3040 H   0  0  0  0  0  0  0  0  0  0  0  0
   -2.8763   -0.4785    0.5430 H   0  0  0  0  0  0  0  0  0  0  0  0
   -3.5089   -0.4258    0.0000 H   0  0  0  0  0  0  0  0  0  0  0  0
    0.9927   -2.1164   -0.0560 H   0  0  0  0  0  0  0  0  0  0  0  0
   -1.3639   -1.5801   -0.1148 H   0  0  0  0  0  0  0  0  0  0  0  0
    1.6457    2.0464    1.0633 H   0  0  0  0  0  0  0  0  0  0  0  0
    2.8299    3.2332   -0.1371 H   0  0  0  0  0  0  0  0  0  0  0  0
   -1.0359    3.7867   -1.3866 H   0  0  0  0  0  0  0  0  0  0  0  0
   -2.9910    3.6806   -1.7734 H   0  0  0  0  0  0  0  0  0  0  0  0
   -2.9312    7.4836    1.0719 H   0  0  0  0  0  0  0  0  0  0  0  0
   -2.8132    7.4967   -1.1113 H   0  0  0  0  0  0  0  0  0  0  0  0
  1  2  1  0  0  0  0
  1 45  1  0  0  0  0
  1 46  1  0  0  0  0
  1 47  1  0  0  0  0
  2  3  1  0  0  0  0
  3  4  1  0  0  0  0
  4  5  3  0  0  0  0
  5  6  1  0  0  0  0
  6  7  3  0  0  0  0
  7  8  1  0  0  0  0
  8  9  3  0  0  0  0
  9 10  1  0  0  0  0
 10 11  3  0  0  0  0
 11 12  1  0  0  0  0
 12 13  3  0  0  0  0
 13 14  1  0  0  0  0
 14 15  3  0  0  0  0
 15 16  1  0  0  0  0
 16 17  3  0  0  0  0
 17 18  1  0  0  0  0
 18 19  3  0  0  0  0
 19 20  1  0  0  0  0
 20 21  3  0  0  0  0
 22 21  1  1  0  0  0
 22 23  1  0  0  0  0
 23 24  1  0  0  0  0
 23 48  1  0  0  0  0
 23 49  1  0  0  0  0
 24 25  1  0  0  0  0
 24 50  1  0  0  0  0
 24 51  1  0  0  0  0
 25 52  1  0  0  0  0
 25 53  1  0  0  0  0
 26 25  1  1  0  0  0
 26 27  1  0  0  0  0
 26 41  1  0  0  0  0
 27 28  1  0  0  0  0
 27 39  1  0  0  0  0
 27 54  1  6  0  0  0
 28 29  1  0  0  0  0
 28 32  1  0  0  0  0
 28 55  1  1  0  0  0
 29 30  1  0  0  0  0
 29 56  1  0  0  0  0
 29 57  1  0  0  0  0
 30 58  1  0  0  0  0
 30 59  1  0  0  0  0
 31 30  1  0  0  0  0
 31 22  1  0  0  0  0
 31 26  1  0  0  0  0
 31 60  1  6  0  0  0
 32 33  1  0  0  0  0
 32 34  1  0  0  0  0
 32 61  1  1  0  0  0
 33 62  1  0  0  0  0
 33 63  1  0  0  0  0
 33 64  1  0  0  0  0
 34 35  2  0  0  0  0
 35 36  1  0  0  0  0
 35 39  1  0  0  0  0
 36 37  1  0  0  0  0
 37 38  2  0  0  0  0
 37 65  1  0  0  0  0
 38 34  1  0  0  0  0
 38 66  1  0  0  0  0
 39 40  1  0  0  0  0
 39 67  1  6  0  0  0
 40 68  1  0  0  0  0
 41 42  1  0  0  0  0
 41 43  1  0  0  0  0
 41 69  1  6  0  0  0
 42 70  1  0  0  0  0
 43 44  1  0  0  0  0
 44 22  1  0  0  0  0
 44 71  1  0  0  0  0
 44 72  1  0  0  0  0
M  END
>  <IDENTIFIER>
CNP0344948.1

>  <Energy>
1.99252e+36

$$$$
