
 OpenBabel09122510342D

170169  0  0  0  0  0  0  0  0999 V2000
   27.2798   15.7500    0.0000 C   0  0  0  0  0  0  0  0  0  0  0  0
   25.9808   15.0000    0.0000 C   0  0  0  0  0  0  0  0  0  0  0  0
   24.3297   14.6888    0.0094 C   0  0  0  0  0  0  0  0  0  0  0  0
   23.7284   13.0968    0.0044 C   0  0  0  0  0  0  0  0  0  0  0  0
   22.0836   12.7500    0.0000 C   0  0  0  0  0  0  0  0  0  0  0  0
   20.7846   12.0000    0.0000 C   0  0  0  0  0  2  0  0  0  0  0  0
   19.4856   11.2500    0.0000 C   0  0  0  0  0  0  0  0  0  0  0  0
   18.1865   10.5000    0.0000 C   0  0  0  0  0  0  0  0  0  0  0  0
   16.8875    9.7500    0.0000 C   0  0  0  0  0  2  0  0  0  0  0  0
   15.5885    9.0000    0.0000 C   0  0  0  0  0  0  0  0  0  0  0  0
   14.2376    8.1459    0.5209 C   0  0  0  0  0  0  0  0  0  0  0  0
   13.0007    7.6540   -0.5390 C   0  0  0  0  0  0  0  0  0  0  0  0
   11.6913    6.7500    0.0000 C   0  0  0  0  0  0  0  0  0  0  0  0
   10.3923    6.0000    0.0000 C   0  0  0  0  0  0  0  0  0  0  0  0
    9.0933    5.2500    0.0000 C   0  0  0  0  0  0  0  0  0  0  0  0
    7.7942    4.5000    0.0000 C   0  0  0  0  0  0  0  0  0  0  0  0
    6.4952    3.7500    0.0000 C   0  0  0  0  0  0  0  0  0  0  0  0
    5.1962    3.0000    0.0000 C   0  0  0  0  0  0  0  0  0  0  0  0
    4.3747    1.8807    0.8868 C   0  0  0  0  0  0  0  0  0  0  0  0
    3.0764    1.1514    0.1402 C   0  0  0  0  0  0  0  0  0  0  0  0
    2.0752    0.0502    0.8676 C   0  0  0  0  0  0  0  0  0  0  0  0
    0.8832   -0.6770    0.0309 C   0  0  0  0  0  0  0  0  0  0  0  0
    0.8364   -0.4313   -1.1644 O   0  0  0  0  0  0  0  0  0  0  0  0
   -0.1087   -1.5721    0.5810 O   0  0  0  0  0  0  0  0  0  0  0  0
   -1.2990   -2.2500    0.0000 C   0  0  1  0  0  0  0  0  0  0  0  0
   -2.0490   -0.9510   -0.0000 C   0  0  0  0  0  0  0  0  0  0  0  0
   -2.8977   -0.0708    0.8237 O   0  0  0  0  0  0  0  0  0  0  0  0
   -3.9092    0.8168    0.2581 C   0  0  0  0  0  0  0  0  0  0  0  0
   -4.2645    0.5827   -0.8873 O   0  0  0  0  0  0  0  0  0  0  0  0
   -4.6421    2.1421    0.9147 C   0  0  0  0  0  0  0  0  0  0  0  0
   -5.7990    2.9462    0.0000 C   0  0  0  0  0  0  0  0  0  0  0  0
   -6.5490    4.2452    0.0000 C   0  0  0  0  0  0  0  0  0  0  0  0
   -7.2990    5.5442    0.0000 C   0  0  0  0  0  0  0  0  0  0  0  0
   -8.0490    6.8433    0.0000 C   0  0  0  0  0  0  0  0  0  0  0  0
   -8.7990    8.1423    0.0000 C   0  0  0  0  0  0  0  0  0  0  0  0
   -9.5490    9.4413    0.0000 C   0  0  0  0  0  0  0  0  0  0  0  0
   -9.8876   11.0832    0.1184 C   0  0  0  0  0  0  0  0  0  0  0  0
  -11.4453   11.7054   -0.1802 C   0  0  0  0  0  0  0  0  0  0  0  0
  -11.7990   13.3385    0.0000 C   0  0  0  0  0  0  0  0  0  0  0  0
  -12.5490   14.6375    0.0000 C   0  0  0  0  0  0  0  0  0  0  0  0
  -13.2990   15.9365    0.0000 C   0  0  0  0  0  0  0  0  0  0  0  0
  -14.0490   17.2356    0.0000 C   0  0  0  0  0  0  0  0  0  0  0  0
  -14.7990   18.5346    0.0000 C   0  0  0  0  0  2  0  0  0  0  0  0
  -15.5490   19.8336    0.0000 C   0  0  0  0  0  0  0  0  0  0  0  0
  -16.2990   21.1327    0.0000 C   0  0  0  0  0  0  0  0  0  0  0  0
  -17.0490   22.4317    0.0000 C   0  0  0  0  0  0  0  0  0  0  0  0
  -15.0000   21.8827    0.0000 C   0  0  0  0  0  0  0  0  0  0  0  0
   -0.5490   -3.5490    0.0000 C   0  0  0  0  0  0  0  0  0  0  0  0
    0.6143   -4.2461   -0.5599 O   0  0  0  0  0  0  0  0  0  0  0  0
    1.2945   -5.3254    0.1285 C   0  0  0  0  0  0  0  0  0  0  0  0
    1.4259   -5.2030    1.3373 O   0  0  0  0  0  0  0  0  0  0  0  0
    1.7368   -6.8078   -0.4283 C   0  0  0  0  0  0  0  0  0  0  0  0
    3.2010   -7.4462    0.0000 C   0  0  0  0  0  0  0  0  0  0  0  0
    3.9510   -8.7452    0.0000 C   0  0  0  0  0  0  0  0  0  0  0  0
    4.7010  -10.0442    0.0000 C   0  0  0  0  0  0  0  0  0  0  0  0
    5.4510  -11.3433    0.0000 C   0  0  0  0  0  0  0  0  0  0  0  0
    6.2010  -12.6423    0.0000 C   0  0  0  0  0  0  0  0  0  0  0  0
    6.9510  -13.9413    0.0000 C   0  0  0  0  0  0  0  0  0  0  0  0
    7.4711  -15.4781   -0.4362 C   0  0  0  0  0  0  0  0  0  0  0  0
    8.7095  -16.2837    0.4117 C   0  0  0  0  0  0  0  0  0  0  0  0
    9.2010  -17.8385    0.0000 C   0  0  0  0  0  0  0  0  0  0  0  0
    9.9510  -19.1375    0.0000 C   0  0  0  0  0  0  0  0  0  0  0  0
   10.7010  -20.4365    0.0000 C   0  0  0  0  0  0  0  0  0  0  0  0
   11.2500  -18.3875    0.0000 C   0  0  0  0  0  0  0  0  0  0  0  0
   27.9870   14.8878   -0.1046 H   0  0  0  0  0  0  0  0  0  0  0  0
   27.1075   16.2795   -0.9641 H   0  0  0  0  0  0  0  0  0  0  0  0
   28.2064   16.2850    0.0000 H   0  0  0  0  0  0  0  0  0  0  0  0
   26.1847   14.3874    0.9086 H   0  0  0  0  0  0  0  0  0  0  0  0
   26.1508   14.3509   -0.8971 H   0  0  0  0  0  0  0  0  0  0  0  0
   23.9018   15.1945   -0.8820 H   0  0  0  0  0  0  0  0  0  0  0  0
   23.9082   15.1913    0.9054 H   0  0  0  0  0  0  0  0  0  0  0  0
   24.1587   12.5979   -0.8893 H   0  0  0  0  0  0  0  0  0  0  0  0
   24.1566   12.5945    0.8972 H   0  0  0  0  0  0  0  0  0  0  0  0
   21.8352   13.3730    0.8845 H   0  0  0  0  0  0  0  0  0  0  0  0
   21.8382   13.3720   -0.8860 H   0  0  0  0  0  0  0  0  0  0  0  0
   19.8548   10.6941   -0.8958 H   0  0  0  0  0  0  0  0  0  0  0  0
   19.8545   10.6946    0.8962 H   0  0  0  0  0  0  0  0  0  0  0  0
   17.8172   11.0560    0.8956 H   0  0  0  0  0  0  0  0  0  0  0  0
   17.8175   11.0553   -0.8962 H   0  0  0  0  0  0  0  0  0  0  0  0
   15.0219    9.7913   -0.5338 H   0  0  0  0  0  0  0  0  0  0  0  0
   15.8934    8.2700   -0.7787 H   0  0  0  0  0  0  0  0  0  0  0  0
   14.6168    7.2304    1.0212 H   0  0  0  0  0  0  0  0  0  0  0  0
   13.7496    8.7670    1.3015 H   0  0  0  0  0  0  0  0  0  0  0  0
   13.4843    7.0596   -1.3428 H   0  0  0  0  0  0  0  0  0  0  0  0
   12.5944    8.5737   -1.0092 H   0  0  0  0  0  0  0  0  0  0  0  0
   11.4588    7.4273    0.8582 H   0  0  0  0  0  0  0  0  0  0  0  0
   12.3267    5.9606    0.4809 H   0  0  0  0  0  0  0  0  0  0  0  0
   10.8876    5.4186   -0.8470 H   0  0  0  0  0  0  0  0  0  0  0  0
    9.8823    6.9166   -0.4022 H   0  0  0  0  0  0  0  0  0  0  0  0
    9.6620    4.3072    0.2752 H   0  0  0  0  0  0  0  0  0  0  0  0
    8.9784    5.2479   -1.1362 H   0  0  0  0  0  0  0  0  0  0  0  0
    7.9198    4.4629    1.1354 H   0  0  0  0  0  0  0  0  0  0  0  0
    7.2252    5.4475   -0.2413 H   0  0  0  0  0  0  0  0  0  0  0  0
    6.0288    4.2607    0.9027 H   0  0  0  0  0  0  0  0  0  0  0  0
    7.0267    2.8022    0.2724 H   0  0  0  0  0  0  0  0  0  0  0  0
    4.4040    3.7490   -0.2561 H   0  0  0  0  0  0  0  0  0  0  0  0
    5.3060    2.4323   -0.9539 H   0  0  0  0  0  0  0  0  0  0  0  0
    4.0299    2.3706    1.8214 H   0  0  0  0  0  0  0  0  0  0  0  0
    5.0822    1.0720    1.1641 H   0  0  0  0  0  0  0  0  0  0  0  0
    3.4902    0.6479   -0.7587 H   0  0  0  0  0  0  0  0  0  0  0  0
    2.4162    1.9697   -0.2178 H   0  0  0  0  0  0  0  0  0  0  0  0
    2.7103   -0.7576    1.2864 H   0  0  0  0  0  0  0  0  0  0  0  0
    1.5992    0.5798    1.7193 H   0  0  0  0  0  0  0  0  0  0  0  0
   -2.0359   -2.5872    0.7809 H   0  0  0  0  0  0  0  0  0  0  0  0
   -2.7936   -1.3087   -0.7496 H   0  0  0  0  0  0  0  0  0  0  0  0
   -1.5127   -0.2419   -0.6654 H   0  0  0  0  0  0  0  0  0  0  0  0
   -3.8326    2.8669    1.1402 H   0  0  0  0  0  0  0  0  0  0  0  0
   -5.1164    1.8494    1.8744 H   0  0  0  0  0  0  0  0  0  0  0  0
   -6.5629    2.1520   -0.1948 H   0  0  0  0  0  0  0  0  0  0  0  0
   -5.2642    3.0187   -0.9765 H   0  0  0  0  0  0  0  0  0  0  0  0
   -5.5827    4.7877    0.1670 H   0  0  0  0  0  0  0  0  0  0  0  0
   -6.9813    3.8234    0.9632 H   0  0  0  0  0  0  0  0  0  0  0  0
   -7.1546    5.7313    1.1217 H   0  0  0  0  0  0  0  0  0  0  0  0
   -8.2625    4.9690   -0.1187 H   0  0  0  0  0  0  0  0  0  0  0  0
   -7.0115    7.3311    0.0256 H   0  0  0  0  0  0  0  0  0  0  0  0
   -8.3217    6.7070   -1.0864 H   0  0  0  0  0  0  0  0  0  0  0  0
   -8.1239    8.7004   -0.7289 H   0  0  0  0  0  0  0  0  0  0  0  0
   -8.4854    8.3275    1.0622 H   0  0  0  0  0  0  0  0  0  0  0  0
  -10.0477    9.3231   -0.9971 H   0  0  0  0  0  0  0  0  0  0  0  0
  -10.3558    9.1389    0.7128 H   0  0  0  0  0  0  0  0  0  0  0  0
   -9.6062   11.3909    1.1475 H   0  0  0  0  0  0  0  0  0  0  0  0
   -9.2006   11.6062   -0.5795 H   0  0  0  0  0  0  0  0  0  0  0  0
  -12.1495   11.1538    0.4775 H   0  0  0  0  0  0  0  0  0  0  0  0
  -11.6949   11.4349   -1.2277 H   0  0  0  0  0  0  0  0  0  0  0  0
  -10.8955   13.6755   -0.5696 H   0  0  0  0  0  0  0  0  0  0  0  0
  -11.4485   13.3929    1.0604 H   0  0  0  0  0  0  0  0  0  0  0  0
  -12.6135   14.5964   -1.1226 H   0  0  0  0  0  0  0  0  0  0  0  0
  -13.3681   14.0081    0.4736 H   0  0  0  0  0  0  0  0  0  0  0  0
  -13.3406   15.9091    1.1268 H   0  0  0  0  0  0  0  0  0  0  0  0
  -14.2689   15.5080   -0.4150 H   0  0  0  0  0  0  0  0  0  0  0  0
  -13.8789   17.3871   -1.0970 H   0  0  0  0  0  0  0  0  0  0  0  0
  -13.2096   17.7986    0.4842 H   0  0  0  0  0  0  0  0  0  0  0  0
  -15.4914   19.8010    1.1180 H   0  0  0  0  0  0  0  0  0  0  0  0
  -16.4649   19.2038   -0.1619 H   0  0  0  0  0  0  0  0  0  0  0  0
  -16.6143   20.9382   -1.0716 H   0  0  0  0  0  0  0  0  0  0  0  0
  -16.8960   22.8673   -1.0371 H   0  0  0  0  0  0  0  0  0  0  0  0
  -18.0635   21.9799    0.1005 H   0  0  0  0  0  0  0  0  0  0  0  0
  -17.5840   23.3583    0.0000 H   0  0  0  0  0  0  0  0  0  0  0  0
  -14.4741   21.5870   -0.9568 H   0  0  0  0  0  0  0  0  0  0  0  0
  -14.6551   21.7734    1.0635 H   0  0  0  0  0  0  0  0  0  0  0  0
  -14.0734   22.4177    0.0000 H   0  0  0  0  0  0  0  0  0  0  0  0
   -1.3569   -4.1986   -0.4116 H   0  0  0  0  0  0  0  0  0  0  0  0
   -0.5363   -3.8693    1.0765 H   0  0  0  0  0  0  0  0  0  0  0  0
    1.5902   -6.8688   -1.5263 H   0  0  0  0  0  0  0  0  0  0  0  0
    1.0009   -7.5002    0.0337 H   0  0  0  0  0  0  0  0  0  0  0  0
    3.3010   -7.1094    1.0594 H   0  0  0  0  0  0  0  0  0  0  0  0
    3.8972   -6.7682   -0.5426 H   0  0  0  0  0  0  0  0  0  0  0  0
    3.2059   -9.1831    0.7145 H   0  0  0  0  0  0  0  0  0  0  0  0
    3.5315   -8.9367   -1.0230 H   0  0  0  0  0  0  0  0  0  0  0  0
    5.2287   -9.6916    0.9331 H   0  0  0  0  0  0  0  0  0  0  0  0
    5.4007   -9.6572   -0.7992 H   0  0  0  0  0  0  0  0  0  0  0  0
    4.7931  -11.5936   -0.8960 H   0  0  0  0  0  0  0  0  0  0  0  0
    4.9125  -11.6565    0.9418 H   0  0  0  0  0  0  0  0  0  0  0  0
    5.2925  -13.3192   -0.1033 H   0  0  0  0  0  0  0  0  0  0  0  0
    6.6413  -12.4028   -1.0066 H   0  0  0  0  0  0  0  0  0  0  0  0
    6.7494  -14.2144    1.0666 H   0  0  0  0  0  0  0  0  0  0  0  0
    7.9842  -13.5173    0.0688 H   0  0  0  0  0  0  0  0  0  0  0  0
    7.7997  -15.4187   -1.4950 H   0  0  0  0  0  0  0  0  0  0  0  0
    6.5771  -16.1359   -0.4065 H   0  0  0  0  0  0  0  0  0  0  0  0
    9.6077  -15.6352    0.3407 H   0  0  0  0  0  0  0  0  0  0  0  0
    8.4110  -16.3147    1.4806 H   0  0  0  0  0  0  0  0  0  0  0  0
    8.1757  -18.2755    0.0878 H   0  0  0  0  0  0  0  0  0  0  0  0
    9.2304  -17.6272   -1.0994 H   0  0  0  0  0  0  0  0  0  0  0  0
    9.6805  -19.2999    1.0802 H   0  0  0  0  0  0  0  0  0  0  0  0
    9.8132  -21.1052    0.1256 H   0  0  0  0  0  0  0  0  0  0  0  0
   10.9104  -20.4759   -1.1004 H   0  0  0  0  0  0  0  0  0  0  0  0
   11.2360  -21.3631    0.0000 H   0  0  0  0  0  0  0  0  0  0  0  0
   11.3288  -18.0326   -1.0631 H   0  0  0  0  0  0  0  0  0  0  0  0
   11.2605  -17.7790    0.9537 H   0  0  0  0  0  0  0  0  0  0  0  0
   12.1766  -17.8525    0.0000 H   0  0  0  0  0  0  0  0  0  0  0  0
  1  2  1  0  0  0  0
  1 65  1  0  0  0  0
  1 66  1  0  0  0  0
  1 67  1  0  0  0  0
  2  3  1  0  0  0  0
  2 68  1  0  0  0  0
  2 69  1  0  0  0  0
  3  4  1  0  0  0  0
  3 70  1  0  0  0  0
  3 71  1  0  0  0  0
  4  5  1  0  0  0  0
  4 72  1  0  0  0  0
  4 73  1  0  0  0  0
  5  6  1  0  0  0  0
  5 74  1  0  0  0  0
  5 75  1  0  0  0  0
  6  7  1  0  0  0  0
  7  8  1  0  0  0  0
  7 76  1  0  0  0  0
  7 77  1  0  0  0  0
  8  9  1  0  0  0  0
  8 78  1  0  0  0  0
  8 79  1  0  0  0  0
  9 10  1  0  0  0  0
 10 11  1  0  0  0  0
 10 80  1  0  0  0  0
 10 81  1  0  0  0  0
 11 12  1  0  0  0  0
 11 82  1  0  0  0  0
 11 83  1  0  0  0  0
 12 13  1  0  0  0  0
 12 84  1  0  0  0  0
 12 85  1  0  0  0  0
 13 14  1  0  0  0  0
 13 86  1  0  0  0  0
 13 87  1  0  0  0  0
 14 15  1  0  0  0  0
 14 88  1  0  0  0  0
 14 89  1  0  0  0  0
 15 16  1  0  0  0  0
 15 90  1  0  0  0  0
 15 91  1  0  0  0  0
 16 17  1  0  0  0  0
 16 92  1  0  0  0  0
 16 93  1  0  0  0  0
 17 18  1  0  0  0  0
 17 94  1  0  0  0  0
 17 95  1  0  0  0  0
 18 19  1  0  0  0  0
 18 96  1  0  0  0  0
 18 97  1  0  0  0  0
 19 20  1  0  0  0  0
 19 98  1  0  0  0  0
 19 99  1  0  0  0  0
 20 21  1  0  0  0  0
 20100  1  0  0  0  0
 20101  1  0  0  0  0
 21 22  1  0  0  0  0
 21102  1  0  0  0  0
 21103  1  0  0  0  0
 22 23  2  0  0  0  0
 22 24  1  0  0  0  0
 24 25  1  0  0  0  0
 25 26  1  0  0  0  0
 25 48  1  0  0  0  0
 25104  1  1  0  0  0
 26 27  1  0  0  0  0
 26105  1  0  0  0  0
 26106  1  0  0  0  0
 27 28  1  0  0  0  0
 28 29  2  0  0  0  0
 28 30  1  0  0  0  0
 30 31  1  0  0  0  0
 30107  1  0  0  0  0
 30108  1  0  0  0  0
 31 32  1  0  0  0  0
 31109  1  0  0  0  0
 31110  1  0  0  0  0
 32 33  1  0  0  0  0
 32111  1  0  0  0  0
 32112  1  0  0  0  0
 33 34  1  0  0  0  0
 33113  1  0  0  0  0
 33114  1  0  0  0  0
 34 35  1  0  0  0  0
 34115  1  0  0  0  0
 34116  1  0  0  0  0
 35 36  1  0  0  0  0
 35117  1  0  0  0  0
 35118  1  0  0  0  0
 36 37  1  0  0  0  0
 36119  1  0  0  0  0
 36120  1  0  0  0  0
 37 38  1  0  0  0  0
 37121  1  0  0  0  0
 37122  1  0  0  0  0
 38 39  1  0  0  0  0
 38123  1  0  0  0  0
 38124  1  0  0  0  0
 39 40  1  0  0  0  0
 39125  1  0  0  0  0
 39126  1  0  0  0  0
 40 41  1  0  0  0  0
 40127  1  0  0  0  0
 40128  1  0  0  0  0
 41 42  1  0  0  0  0
 41129  1  0  0  0  0
 41130  1  0  0  0  0
 42 43  1  0  0  0  0
 42131  1  0  0  0  0
 42132  1  0  0  0  0
 43 44  1  0  0  0  0
 44 45  1  0  0  0  0
 44133  1  0  0  0  0
 44134  1  0  0  0  0
 45 46  1  0  0  0  0
 45 47  1  0  0  0  0
 45135  1  0  0  0  0
 46136  1  0  0  0  0
 46137  1  0  0  0  0
 46138  1  0  0  0  0
 47139  1  0  0  0  0
 47140  1  0  0  0  0
 47141  1  0  0  0  0
 48 49  1  0  0  0  0
 48142  1  0  0  0  0
 48143  1  0  0  0  0
 49 50  1  0  0  0  0
 50 51  2  0  0  0  0
 50 52  1  0  0  0  0
 52 53  1  0  0  0  0
 52144  1  0  0  0  0
 52145  1  0  0  0  0
 53 54  1  0  0  0  0
 53146  1  0  0  0  0
 53147  1  0  0  0  0
 54 55  1  0  0  0  0
 54148  1  0  0  0  0
 54149  1  0  0  0  0
 55 56  1  0  0  0  0
 55150  1  0  0  0  0
 55151  1  0  0  0  0
 56 57  1  0  0  0  0
 56152  1  0  0  0  0
 56153  1  0  0  0  0
 57 58  1  0  0  0  0
 57154  1  0  0  0  0
 57155  1  0  0  0  0
 58 59  1  0  0  0  0
 58156  1  0  0  0  0
 58157  1  0  0  0  0
 59 60  1  0  0  0  0
 59158  1  0  0  0  0
 59159  1  0  0  0  0
 60 61  1  0  0  0  0
 60160  1  0  0  0  0
 60161  1  0  0  0  0
 61 62  1  0  0  0  0
 61162  1  0  0  0  0
 61163  1  0  0  0  0
 62 63  1  0  0  0  0
 62 64  1  0  0  0  0
 62164  1  0  0  0  0
 63165  1  0  0  0  0
 63166  1  0  0  0  0
 63167  1  0  0  0  0
 64168  1  0  0  0  0
 64169  1  0  0  0  0
 64170  1  0  0  0  0
M  END
>  <IDENTIFIER>
CNP0584335.2

>  <Energy>
15507.2

$$$$
