
 OpenBabel09092511213D

 16 16  0  0  0  0  0  0  0  0999 V2000
   -1.9388   -1.8517    0.2193 N   0  0  0  0  0  0  0  0  0  0  0  0
   -1.1669   -0.6619    0.0635 C   0  0  0  0  0  0  0  0  0  0  0  0
   -1.8210    0.5797   -0.0694 C   0  0  0  0  0  0  0  0  0  0  0  0
   -3.5836    0.7010   -0.0474 Cl  0  0  0  0  0  0  0  0  0  0  0  0
   -1.0584    1.7383   -0.2213 C   0  0  0  0  0  0  0  0  0  0  0  0
   -1.8072    3.3191   -0.3922 Cl  0  0  0  0  0  0  0  0  0  0  0  0
    0.2916    1.6603   -0.2397 N   0  0  0  0  0  0  0  0  0  0  0  0
    0.9905    0.4984   -0.1171 C   0  0  0  0  0  0  0  0  0  0  0  0
    2.4863    0.6575   -0.1663 C   0  0  0  0  0  0  0  0  0  0  0  0
    2.9275    1.7880   -0.3097 O   0  0  0  0  0  0  0  0  0  0  0  0
    3.3946   -0.3394   -0.0658 O   0  0  0  0  0  0  0  0  0  0  0  0
    0.2534   -0.7145    0.0406 C   0  0  0  0  0  0  0  0  0  0  0  0
    1.0171   -2.2961    0.2106 Cl  0  0  0  0  0  0  0  0  0  0  0  0
   -2.9670   -1.8292    0.2379 H   0  0  0  0  0  0  0  0  0  0  0  0
   -1.5053   -2.7786    0.3197 H   0  0  0  0  0  0  0  0  0  0  0  0
    3.2251   -1.2740    0.0501 H   0  0  0  0  0  0  0  0  0  0  0  0
  1  2  1  0  0  0  0
  1 14  1  0  0  0  0
  1 15  1  0  0  0  0
  2  3  2  0  0  0  0
  3  4  1  0  0  0  0
  3  5  1  0  0  0  0
  5  6  1  0  0  0  0
  5  7  2  0  0  0  0
  7  8  1  0  0  0  0
  8  9  1  0  0  0  0
  8 12  2  0  0  0  0
  9 10  2  0  0  0  0
  9 11  1  0  0  0  0
 11 16  1  0  0  0  0
 12 13  1  0  0  0  0
 12  2  1  0  0  0  0
M  END
>  <IDENTIFIER>
CNP0053394.0

>  <Energy>
130.866

$$$$
