
 OpenBabel09062512203D

 52 55  0  0  0  0  0  0  0  0999 V2000
    1.7345   -2.2376   -0.6711 C   0  0  0  0  0  0  0  0  0  0  0  0
    1.2298   -0.8052   -0.3036 C   0  0  2  0  0  0  0  0  0  0  0  0
    1.7770    0.1813   -1.4042 C   0  0  0  0  0  0  0  0  0  0  0  0
    3.0218    1.0098   -0.9595 C   0  0  0  0  0  0  0  0  0  0  0  0
    4.0226    0.2730   -0.0116 C   0  0  2  0  0  0  0  0  0  0  0  0
    4.9413   -0.5660   -0.7389 N   0  0  0  0  0  0  0  0  0  0  0  0
    5.7798   -0.0540   -1.4650 N   0  3  0  0  0  0  0  0  0  0  0  0
    6.6111    0.4570   -2.1894 N   0  5  0  0  0  0  0  0  0  0  0  0
    3.3255   -0.5140    1.1433 C   0  0  0  0  0  0  0  0  0  0  0  0
    1.8053   -0.2953    1.0867 C   0  0  2  0  0  0  0  0  0  0  0  0
    0.9740   -0.8216    2.2409 C   0  0  0  0  0  0  0  0  0  0  0  0
   -0.4087   -0.1017    2.1682 C   0  0  0  0  0  0  0  0  0  0  0  0
   -0.9068    0.1897    0.6985 C   0  0  1  0  0  0  0  0  0  0  0  0
   -0.3614   -0.9270   -0.2260 C   0  0  1  0  0  0  0  0  0  0  0  0
   -1.0800   -1.0541   -1.6021 C   0  0  0  0  0  0  0  0  0  0  0  0
   -2.0075    0.1257   -1.8736 C   0  0  0  0  0  0  0  0  0  0  0  0
   -3.0749    0.2919   -0.7582 C   0  0  2  0  0  0  0  0  0  0  0  0
   -4.1492   -0.8200   -0.8033 C   0  0  0  0  0  0  0  0  0  0  0  0
   -3.6770    1.6592   -0.9268 C   0  0  0  0  0  0  0  0  0  0  0  0
   -4.7608    1.8674   -1.4532 O   0  0  0  0  0  0  0  0  0  0  0  0
   -3.0589    2.6083    0.0316 C   0  0  0  0  0  0  0  0  0  0  0  0
   -2.9222    1.7083    1.2496 C   0  0  0  0  0  0  0  0  0  0  0  0
   -2.4497    0.3487    0.6773 C   0  0  2  0  0  0  0  0  0  0  0  0
    2.8279   -2.2780   -0.8395 H   0  0  0  0  0  0  0  0  0  0  0  0
    1.2795   -2.5821   -1.6245 H   0  0  0  0  0  0  0  0  0  0  0  0
    1.4666   -2.9786    0.1100 H   0  0  0  0  0  0  0  0  0  0  0  0
    1.0091    0.9390   -1.6676 H   0  0  0  0  0  0  0  0  0  0  0  0
    1.9873   -0.3738   -2.3443 H   0  0  0  0  0  0  0  0  0  0  0  0
    2.6234    1.8553   -0.3584 H   0  0  0  0  0  0  0  0  0  0  0  0
    3.5193    1.5047   -1.8194 H   0  0  0  0  0  0  0  0  0  0  0  0
    4.6280    1.0769    0.4736 H   0  0  0  0  0  0  0  0  0  0  0  0
    3.7291   -0.1721    2.1209 H   0  0  0  0  0  0  0  0  0  0  0  0
    3.5632   -1.5989    1.1015 H   0  0  0  0  0  0  0  0  0  0  0  0
    1.6742    0.8018    1.2074 H   0  0  0  0  0  0  0  0  0  0  0  0
    1.4249   -0.6235    3.2366 H   0  0  0  0  0  0  0  0  0  0  0  0
    0.8749   -1.9232    2.1285 H   0  0  0  0  0  0  0  0  0  0  0  0
   -0.3649    0.8781    2.6903 H   0  0  0  0  0  0  0  0  0  0  0  0
   -1.1082   -0.7526    2.7358 H   0  0  0  0  0  0  0  0  0  0  0  0
   -0.4599    1.1276    0.2990 H   0  0  0  0  0  0  0  0  0  0  0  0
   -0.6242   -1.8706    0.3085 H   0  0  0  0  0  0  0  0  0  0  0  0
   -1.6871   -1.9842   -1.6156 H   0  0  0  0  0  0  0  0  0  0  0  0
   -0.3574   -1.1589   -2.4364 H   0  0  0  0  0  0  0  0  0  0  0  0
   -2.5041    0.0130   -2.8623 H   0  0  0  0  0  0  0  0  0  0  0  0
   -1.3698    1.0351   -1.9292 H   0  0  0  0  0  0  0  0  0  0  0  0
   -4.6404   -0.8622   -1.7971 H   0  0  0  0  0  0  0  0  0  0  0  0
   -4.9272   -0.6376   -0.0297 H   0  0  0  0  0  0  0  0  0  0  0  0
   -3.6989   -1.8125   -0.5887 H   0  0  0  0  0  0  0  0  0  0  0  0
   -3.6565    3.5270    0.2157 H   0  0  0  0  0  0  0  0  0  0  0  0
   -2.0563    2.8899   -0.3596 H   0  0  0  0  0  0  0  0  0  0  0  0
   -3.9546    1.5716    1.6433 H   0  0  0  0  0  0  0  0  0  0  0  0
   -2.3016    2.1305    2.0682 H   0  0  0  0  0  0  0  0  0  0  0  0
   -2.8472   -0.4752    1.3114 H   0  0  0  0  0  0  0  0  0  0  0  0
  1 24  1  0  0  0  0
  1 25  1  0  0  0  0
  1 26  1  0  0  0  0
  2  1  1  6  0  0  0
  2  3  1  0  0  0  0
  3  4  1  0  0  0  0
  3 27  1  0  0  0  0
  3 28  1  0  0  0  0
  4  5  1  0  0  0  0
  4 29  1  0  0  0  0
  4 30  1  0  0  0  0
  5  6  1  0  0  0  0
  5  9  1  0  0  0  0
  5 31  1  1  0  0  0
  6  7  2  0  0  0  0
  7  8  2  0  0  0  0
  9 32  1  0  0  0  0
  9 33  1  0  0  0  0
 10  9  1  0  0  0  0
 10 11  1  0  0  0  0
 10  2  1  0  0  0  0
 10 34  1  1  0  0  0
 11 12  1  0  0  0  0
 11 35  1  0  0  0  0
 11 36  1  0  0  0  0
 12 37  1  0  0  0  0
 12 38  1  0  0  0  0
 13 12  1  0  0  0  0
 13 14  1  0  0  0  0
 13 39  1  6  0  0  0
 14 15  1  0  0  0  0
 14  2  1  0  0  0  0
 14 40  1  1  0  0  0
 15 16  1  0  0  0  0
 15 41  1  0  0  0  0
 15 42  1  0  0  0  0
 16 17  1  0  0  0  0
 16 43  1  0  0  0  0
 16 44  1  0  0  0  0
 17 18  1  6  0  0  0
 17 19  1  0  0  0  0
 18 45  1  0  0  0  0
 18 46  1  0  0  0  0
 18 47  1  0  0  0  0
 19 20  2  0  0  0  0
 19 21  1  0  0  0  0
 21 22  1  0  0  0  0
 21 48  1  0  0  0  0
 21 49  1  0  0  0  0
 22 50  1  0  0  0  0
 22 51  1  0  0  0  0
 23 22  1  0  0  0  0
 23 13  1  0  0  0  0
 23 17  1  0  0  0  0
 23 52  1  1  0  0  0
M  CHG  2   7   1   8  -1
M  END
>  <IDENTIFIER>
CNP0581049.2

>  <Energy>
899.916

$$$$
