
 OpenBabel09072512173D

 41 42  0  0  0  0  0  0  0  0999 V2000
    3.3711   -0.5280    1.7607 C   0  0  0  0  0  0  0  0  0  0  0  0
    1.9626   -0.1473    1.3538 C   0  0  0  0  0  0  0  0  0  0  0  0
    1.3358    0.8116    2.0594 C   0  0  0  0  0  0  0  0  0  0  0  0
    0.0165    1.3468    1.6709 C   0  0  0  0  0  0  0  0  0  0  0  0
   -0.5147    2.1549    2.4166 O   0  0  0  0  0  0  0  0  0  0  0  0
   -0.6089    1.0423    0.3129 C   0  0  2  0  0  0  0  0  0  0  0  0
   -2.0710    0.4508    0.3538 C   0  0  0  0  0  0  0  0  0  0  0  0
   -3.0307    1.3352    1.1924 C   0  0  0  0  0  0  0  0  0  0  0  0
   -2.1231   -0.9606    0.9954 C   0  0  0  0  0  0  0  0  0  0  0  0
   -2.6446    0.4155   -1.1115 C   0  0  0  0  0  0  0  0  0  0  0  0
   -1.5856    0.3585   -2.2372 C   0  0  0  0  0  0  0  0  0  0  0  0
   -0.3772   -0.4589   -1.8076 C   0  0  0  0  0  0  0  0  0  0  0  0
    0.4035    0.2479   -0.6385 C   0  0  1  0  0  0  0  0  0  0  0  0
    1.3844    1.2901   -1.2582 C   0  0  0  0  0  0  0  0  0  0  0  0
    1.2311   -0.8176    0.1817 C   0  0  1  0  0  0  0  0  0  0  0  0
    2.1537   -1.7157   -0.6915 C   0  0  0  0  0  0  0  0  0  0  0  0
    2.6894   -2.7618    0.0717 O   0  0  0  0  0  0  0  0  0  0  0  0
    3.7419    0.0786    2.6146 H   0  0  0  0  0  0  0  0  0  0  0  0
    4.0664   -0.3637    0.9113 H   0  0  0  0  0  0  0  0  0  0  0  0
    3.4075   -1.5889    2.0788 H   0  0  0  0  0  0  0  0  0  0  0  0
    1.8209    1.2594    2.9230 H   0  0  0  0  0  0  0  0  0  0  0  0
   -0.7663    2.0380   -0.1635 H   0  0  0  0  0  0  0  0  0  0  0  0
   -2.7611    1.3410    2.2675 H   0  0  0  0  0  0  0  0  0  0  0  0
   -4.0718    0.9504    1.1286 H   0  0  0  0  0  0  0  0  0  0  0  0
   -3.0294    2.3822    0.8182 H   0  0  0  0  0  0  0  0  0  0  0  0
   -1.7074   -0.9373    2.0258 H   0  0  0  0  0  0  0  0  0  0  0  0
   -1.5990   -1.7362    0.4201 H   0  0  0  0  0  0  0  0  0  0  0  0
   -3.1752   -1.3126    1.0628 H   0  0  0  0  0  0  0  0  0  0  0  0
   -3.2412    1.3255   -1.3464 H   0  0  0  0  0  0  0  0  0  0  0  0
   -3.3546   -0.4370   -1.1918 H   0  0  0  0  0  0  0  0  0  0  0  0
   -1.2296    1.3823   -2.4769 H   0  0  0  0  0  0  0  0  0  0  0  0
   -2.0602   -0.0442   -3.1575 H   0  0  0  0  0  0  0  0  0  0  0  0
    0.3029   -0.6367   -2.6692 H   0  0  0  0  0  0  0  0  0  0  0  0
   -0.7634   -1.4542   -1.5167 H   0  0  0  0  0  0  0  0  0  0  0  0
    2.1013    0.8094   -1.9537 H   0  0  0  0  0  0  0  0  0  0  0  0
    1.9664    1.8211   -0.4770 H   0  0  0  0  0  0  0  0  0  0  0  0
    0.8418    2.0619   -1.8416 H   0  0  0  0  0  0  0  0  0  0  0  0
    0.5009   -1.5021    0.6441 H   0  0  0  0  0  0  0  0  0  0  0  0
    2.9719   -1.1042   -1.1306 H   0  0  0  0  0  0  0  0  0  0  0  0
    1.5710   -2.1799   -1.5127 H   0  0  0  0  0  0  0  0  0  0  0  0
    3.4020   -3.1752   -0.4821 H   0  0  0  0  0  0  0  0  0  0  0  0
  1  2  1  0  0  0  0
  1 18  1  0  0  0  0
  1 19  1  0  0  0  0
  1 20  1  0  0  0  0
  2  3  2  0  0  0  0
  3  4  1  0  0  0  0
  3 21  1  0  0  0  0
  4  5  2  0  0  0  0
  4  6  1  0  0  0  0
  6  7  1  0  0  0  0
  6 22  1  6  0  0  0
  7  8  1  0  0  0  0
  7  9  1  0  0  0  0
  7 10  1  0  0  0  0
  8 23  1  0  0  0  0
  8 24  1  0  0  0  0
  8 25  1  0  0  0  0
  9 26  1  0  0  0  0
  9 27  1  0  0  0  0
  9 28  1  0  0  0  0
 10 11  1  0  0  0  0
 10 29  1  0  0  0  0
 10 30  1  0  0  0  0
 11 12  1  0  0  0  0
 11 31  1  0  0  0  0
 11 32  1  0  0  0  0
 12 13  1  0  0  0  0
 12 33  1  0  0  0  0
 12 34  1  0  0  0  0
 13 14  1  6  0  0  0
 13 15  1  0  0  0  0
 13  6  1  0  0  0  0
 14 35  1  0  0  0  0
 14 36  1  0  0  0  0
 14 37  1  0  0  0  0
 15 16  1  0  0  0  0
 15  2  1  0  0  0  0
 15 38  1  1  0  0  0
 16 17  1  0  0  0  0
 16 39  1  0  0  0  0
 16 40  1  0  0  0  0
 17 41  1  0  0  0  0
M  END
>  <IDENTIFIER>
CNP0348742.3

>  <Energy>
414.464

$$$$
