
 OpenBabel09062509183D

 79 82  0  0  0  0  0  0  0  0999 V2000
   -8.9851   -0.4131    1.5895 C   0  0  0  0  0  0  0  0  0  0  0  0
   -8.1890    0.8895    1.4438 C   0  0  0  0  0  0  0  0  0  0  0  0
   -6.9586    0.7914    0.4982 C   0  0  1  0  0  0  0  0  0  0  0  0
   -5.9961   -0.1986    1.0314 C   0  0  0  0  0  0  0  0  0  0  0  0
   -4.9678   -0.8092    1.1716 C   0  0  0  0  0  0  0  0  0  0  0  0
   -3.5444   -1.1353    1.2731 C   0  0  0  0  0  0  0  0  0  0  0  0
   -2.7214   -0.9192   -0.0521 C   0  0  2  0  0  0  0  0  0  0  0  0
   -1.2633   -1.3967    0.2800 C   0  0  2  0  0  0  0  0  0  0  0  0
   -0.6873   -0.5292    1.2248 O   0  0  0  0  0  0  0  0  0  0  0  0
   -0.3281   -1.6367   -0.9363 C   0  0  0  0  0  0  0  0  0  0  0  0
    0.9904   -2.3688   -0.6024 C   0  0  0  0  0  0  0  0  0  0  0  0
    1.9292   -1.5661    0.2676 C   0  0  0  0  0  0  0  0  0  0  0  0
    1.8205   -1.6084    1.6662 C   0  0  0  0  0  0  0  0  0  0  0  0
    2.6750   -0.8481    2.4647 C   0  0  0  0  0  0  0  0  0  0  0  0
    3.6634   -0.0484    1.8781 C   0  0  0  0  0  0  0  0  0  0  0  0
    4.4920    0.6880    2.6480 O   0  0  0  0  0  0  0  0  0  0  0  0
    3.8057   -0.0162    0.4833 C   0  0  0  0  0  0  0  0  0  0  0  0
    4.7961    0.7533   -0.0370 O   0  0  0  0  0  0  0  0  0  0  0  0
    5.3043    0.7287   -1.3239 C   0  0  0  0  0  0  0  0  0  0  0  0
    5.9862   -0.6147   -1.6387 C   0  0  0  0  0  0  0  0  0  0  0  0
    7.0008   -1.1134   -0.5872 C   0  0  0  0  0  0  0  0  0  0  0  0
    8.2193   -0.2379   -0.3907 C   0  0  0  0  0  0  0  0  0  0  0  0
    9.4822   -0.6995   -0.7947 C   0  0  0  0  0  0  0  0  0  0  0  0
   10.6092    0.0999   -0.5934 C   0  0  0  0  0  0  0  0  0  0  0  0
   10.4867    1.3159   -0.0010 N   0  0  0  0  0  0  0  0  0  0  0  0
    9.2818    1.7916    0.4139 C   0  0  0  0  0  0  0  0  0  0  0  0
    9.2052    3.0586    1.0375 N   0  0  0  0  0  0  0  0  0  0  0  0
    8.1280    1.0197    0.2295 C   0  0  0  0  0  0  0  0  0  0  0  0
    2.9308   -0.7755   -0.3189 C   0  0  0  0  0  0  0  0  0  0  0  0
   -2.7408    0.5391   -0.7391 C   0  0  1  0  0  0  0  0  0  0  0  0
   -2.0115    0.5129   -1.9408 O   0  0  0  0  0  0  0  0  0  0  0  0
   -4.1364    1.2011   -1.0511 C   0  0  1  0  0  0  0  0  0  0  0  0
   -5.0381    0.1892   -1.8357 C   0  0  0  0  0  0  0  0  0  0  0  0
   -6.4468    0.6948   -2.0965 C   0  0  0  0  0  0  0  0  0  0  0  0
   -7.4196    0.4078   -0.9366 C   0  0  0  0  0  0  0  0  0  0  0  0
   -4.6574    1.9973    0.2037 C   0  0  0  0  0  0  0  0  0  0  0  0
   -6.1935    2.1570    0.4522 C   0  0  0  0  0  0  0  0  0  0  0  0
   -9.8242   -0.2520    2.2985 H   0  0  0  0  0  0  0  0  0  0  0  0
   -8.3418   -1.2249    1.9891 H   0  0  0  0  0  0  0  0  0  0  0  0
   -9.4156   -0.7294    0.6176 H   0  0  0  0  0  0  0  0  0  0  0  0
   -7.8446    1.1880    2.4592 H   0  0  0  0  0  0  0  0  0  0  0  0
   -8.8762    1.6825    1.0757 H   0  0  0  0  0  0  0  0  0  0  0  0
   -3.4762   -2.1987    1.5882 H   0  0  0  0  0  0  0  0  0  0  0  0
   -3.1200   -0.5073    2.0845 H   0  0  0  0  0  0  0  0  0  0  0  0
   -3.1417   -1.6432   -0.7827 H   0  0  0  0  0  0  0  0  0  0  0  0
   -1.3521   -2.4017    0.7503 H   0  0  0  0  0  0  0  0  0  0  0  0
   -0.3330    0.2608    0.7406 H   0  0  0  0  0  0  0  0  0  0  0  0
   -0.0662   -0.6877   -1.4433 H   0  0  0  0  0  0  0  0  0  0  0  0
   -0.8752   -2.2821   -1.6580 H   0  0  0  0  0  0  0  0  0  0  0  0
    1.4975   -2.5659   -1.5728 H   0  0  0  0  0  0  0  0  0  0  0  0
    0.8025   -3.3665   -0.1494 H   0  0  0  0  0  0  0  0  0  0  0  0
    1.0649   -2.2236    2.1388 H   0  0  0  0  0  0  0  0  0  0  0  0
    2.5692   -0.8826    3.5416 H   0  0  0  0  0  0  0  0  0  0  0  0
    4.4268    0.6978    3.6135 H   0  0  0  0  0  0  0  0  0  0  0  0
    6.0519    1.5414   -1.4176 H   0  0  0  0  0  0  0  0  0  0  0  0
    4.5079    0.9455   -2.0678 H   0  0  0  0  0  0  0  0  0  0  0  0
    6.4766   -0.5444   -2.6337 H   0  0  0  0  0  0  0  0  0  0  0  0
    5.2047   -1.3979   -1.7159 H   0  0  0  0  0  0  0  0  0  0  0  0
    7.3289   -2.1160   -0.9395 H   0  0  0  0  0  0  0  0  0  0  0  0
    6.5023   -1.2687    0.3939 H   0  0  0  0  0  0  0  0  0  0  0  0
    9.5969   -1.6688   -1.2636 H   0  0  0  0  0  0  0  0  0  0  0  0
   11.5841   -0.2515   -0.9040 H   0  0  0  0  0  0  0  0  0  0  0  0
   10.0571    3.6209    1.1760 H   0  0  0  0  0  0  0  0  0  0  0  0
    8.3016    3.4344    1.3609 H   0  0  0  0  0  0  0  0  0  0  0  0
    7.1796    1.3979    0.5819 H   0  0  0  0  0  0  0  0  0  0  0  0
    3.0134   -0.7484   -1.3967 H   0  0  0  0  0  0  0  0  0  0  0  0
   -2.1999    1.2470   -0.0770 H   0  0  0  0  0  0  0  0  0  0  0  0
   -2.3521   -0.2355   -2.4953 H   0  0  0  0  0  0  0  0  0  0  0  0
   -3.9901    2.0362   -1.7750 H   0  0  0  0  0  0  0  0  0  0  0  0
   -5.1149   -0.8243   -1.4024 H   0  0  0  0  0  0  0  0  0  0  0  0
   -4.5527    0.0558   -2.8261 H   0  0  0  0  0  0  0  0  0  0  0  0
   -6.8713    0.1710   -2.9812 H   0  0  0  0  0  0  0  0  0  0  0  0
   -6.4013    1.7754   -2.3541 H   0  0  0  0  0  0  0  0  0  0  0  0
   -7.6841   -0.6729   -0.9380 H   0  0  0  0  0  0  0  0  0  0  0  0
   -8.3432    0.9713   -1.1965 H   0  0  0  0  0  0  0  0  0  0  0  0
   -4.1687    2.9967    0.2248 H   0  0  0  0  0  0  0  0  0  0  0  0
   -4.2346    1.5464    1.1215 H   0  0  0  0  0  0  0  0  0  0  0  0
   -6.6785    2.8612   -0.2569 H   0  0  0  0  0  0  0  0  0  0  0  0
   -6.2478    2.6397    1.4540 H   0  0  0  0  0  0  0  0  0  0  0  0
  1  2  1  0  0  0  0
  1 38  1  0  0  0  0
  1 39  1  0  0  0  0
  1 40  1  0  0  0  0
  2 41  1  0  0  0  0
  2 42  1  0  0  0  0
  3  2  1  1  0  0  0
  3  4  1  0  0  0  0
  4  5  3  0  0  0  0
  5  6  1  0  0  0  0
  6 43  1  0  0  0  0
  6 44  1  0  0  0  0
  7  6  1  0  0  0  0
  7  8  1  0  0  0  0
  7 30  1  0  0  0  0
  7 45  1  6  0  0  0
  8  9  1  0  0  0  0
  8 10  1  0  0  0  0
  8 46  1  1  0  0  0
  9 47  1  0  0  0  0
 10 11  1  0  0  0  0
 10 48  1  0  0  0  0
 10 49  1  0  0  0  0
 11 12  1  0  0  0  0
 11 50  1  0  0  0  0
 11 51  1  0  0  0  0
 12 13  2  0  0  0  0
 13 14  1  0  0  0  0
 13 52  1  0  0  0  0
 14 15  2  0  0  0  0
 14 53  1  0  0  0  0
 15 16  1  0  0  0  0
 15 17  1  0  0  0  0
 16 54  1  0  0  0  0
 17 18  1  0  0  0  0
 17 29  2  0  0  0  0
 18 19  1  0  0  0  0
 19 20  1  0  0  0  0
 19 55  1  0  0  0  0
 19 56  1  0  0  0  0
 20 21  1  0  0  0  0
 20 57  1  0  0  0  0
 20 58  1  0  0  0  0
 21 22  1  0  0  0  0
 21 59  1  0  0  0  0
 21 60  1  0  0  0  0
 22 23  2  0  0  0  0
 23 24  1  0  0  0  0
 23 61  1  0  0  0  0
 24 25  2  0  0  0  0
 24 62  1  0  0  0  0
 25 26  1  0  0  0  0
 26 27  1  0  0  0  0
 26 28  2  0  0  0  0
 27 63  1  0  0  0  0
 27 64  1  0  0  0  0
 28 22  1  0  0  0  0
 28 65  1  0  0  0  0
 29 12  1  0  0  0  0
 29 66  1  0  0  0  0
 30 31  1  0  0  0  0
 30 32  1  0  0  0  0
 30 67  1  1  0  0  0
 31 68  1  0  0  0  0
 32 33  1  0  0  0  0
 32 36  1  0  0  0  0
 32 69  1  6  0  0  0
 33 34  1  0  0  0  0
 33 70  1  0  0  0  0
 33 71  1  0  0  0  0
 34 35  1  0  0  0  0
 34 72  1  0  0  0  0
 34 73  1  0  0  0  0
 35  3  1  0  0  0  0
 35 74  1  0  0  0  0
 35 75  1  0  0  0  0
 36 37  1  0  0  0  0
 36 76  1  0  0  0  0
 36 77  1  0  0  0  0
 37  3  1  0  0  0  0
 37 78  1  0  0  0  0
 37 79  1  0  0  0  0
M  END
>  <IDENTIFIER>
CNP0269548.1

>  <Energy>
768.8

$$$$
