
 OpenBabel09062506572D

 50 55  0  0  0  0  0  0  0  0999 V2000
    1.1526    8.0023    0.0000 C   0  0  0  0  0  0  0  0  0  0  0  0
   -0.0294    7.0789    0.0000 C   0  0  0  0  0  0  0  0  0  0  0  0
   -0.3404    5.5179   -0.0963 C   0  0  2  0  0  0  0  0  0  0  0  0
   -0.5771    4.8084   -1.4223 C   0  0  1  0  0  0  0  0  0  0  0  0
    1.0317    4.0873   -1.8477 C   0  0  0  0  0  0  0  0  0  0  0  0
    1.3568    2.6792   -0.8230 C   0  0  1  0  0  0  0  0  0  0  0  0
    0.7597    1.3633    0.1795 C   0  0  2  0  0  0  0  0  0  0  0  0
    1.2760    0.0000    0.0000 N   0  0  0  0  0  0  0  0  0  0  0  0
    2.7760    0.0000    0.0000 C   0  0  0  0  0  0  0  0  0  0  0  0
    0.3242   -0.8561    0.6294 C   0  0  0  0  0  0  0  0  0  0  0  0
    0.5574   -2.1475    1.1014 C   0  0  0  0  0  0  0  0  0  0  0  0
   -0.4961   -2.8291    1.7327 C   0  0  0  0  0  0  0  0  0  0  0  0
   -1.7584   -2.2201    1.8887 C   0  0  0  0  0  0  0  0  0  0  0  0
   -1.9916   -0.9193    1.4124 C   0  0  0  0  0  0  0  0  0  0  0  0
   -0.9472   -0.2490    0.7817 C   0  0  0  0  0  0  0  0  0  0  0  0
   -0.9277    1.1378    0.1954 C   0  0  3  0  0  0  0  0  0  0  0  0
   -1.1848    1.1586   -1.2125 C   0  0  0  0  0  0  0  0  0  0  0  0
   -0.8656    2.6645   -1.2533 C   0  0  1  0  0  0  0  0  0  0  0  0
   -1.7645    3.5728   -0.8855 C   0  0  2  0  0  0  0  0  0  0  0  0
   -1.9923    2.4446    0.4014 C   0  0  2  0  0  0  0  0  0  0  0  0
   -1.9059    2.9964    1.6810 O   0  0  0  0  0  0  0  0  0  0  0  0
    0.2983    3.1044   -0.1769 N   0  0  3  0  0  0  0  0  0  0  0  0
    0.4899    4.4447    0.6111 C   0  0  1  0  0  0  0  0  0  0  0  0
    0.1717    4.3452    1.9698 O   0  0  0  0  0  0  0  0  0  0  0  0
    1.5011    7.7100   -1.0142 H   0  0  0  0  0  0  0  0  0  0  0  0
    1.7291    7.4405    0.7686 H   0  0  0  0  0  0  0  0  0  0  0  0
    1.9958    8.6610    0.0000 H   0  0  0  0  0  0  0  0  0  0  0  0
   -0.7515    7.5431   -0.7087 H   0  0  0  0  0  0  0  0  0  0  0  0
   -0.4391    7.3317    1.0077 H   0  0  0  0  0  0  0  0  0  0  0  0
   -1.3663    5.5259    0.3444 H   0  0  0  0  0  0  0  0  0  0  0  0
   -1.0045    5.5090   -2.1710 H   0  0  0  0  0  0  0  0  0  0  0  0
    1.0161    3.7681   -2.9162 H   0  0  0  0  0  0  0  0  0  0  0  0
    1.8460    4.8420   -1.8067 H   0  0  0  0  0  0  0  0  0  0  0  0
    1.3512    1.9899   -1.7018 H   0  0  0  0  0  0  0  0  0  0  0  0
    1.0288    1.5909    1.2610 H   0  0  0  0  0  0  0  0  0  0  0  0
    2.9314   -1.0690   -0.2518 H   0  0  0  0  0  0  0  0  0  0  0  0
    2.9592    0.5860   -0.9223 H   0  0  0  0  0  0  0  0  0  0  0  0
    3.8460    0.0000    0.0000 H   0  0  0  0  0  0  0  0  0  0  0  0
    1.5270   -2.6153    0.9947 H   0  0  0  0  0  0  0  0  0  0  0  0
   -0.3346   -3.8308    2.1095 H   0  0  0  0  0  0  0  0  0  0  0  0
   -2.5553   -2.7599    2.3832 H   0  0  0  0  0  0  0  0  0  0  0  0
   -2.9589   -0.4499    1.5341 H   0  0  0  0  0  0  0  0  0  0  0  0
   -2.2156    0.9071   -1.5631 H   0  0  0  0  0  0  0  0  0  0  0  0
   -0.4754    0.5221   -1.7925 H   0  0  0  0  0  0  0  0  0  0  0  0
   -0.7387    2.7221   -2.3781 H   0  0  0  0  0  0  0  0  0  0  0  0
   -2.6241    3.5060   -1.5908 H   0  0  0  0  0  0  0  0  0  0  0  0
   -3.0308    2.0369    0.2999 H   0  0  0  0  0  0  0  0  0  0  0  0
   -2.6053    3.6991    1.7268 H   0  0  0  0  0  0  0  0  0  0  0  0
    1.5584    4.7703    0.5434 H   0  0  0  0  0  0  0  0  0  0  0  0
    0.8579    3.7534    2.3740 H   0  0  0  0  0  0  0  0  0  0  0  0
  1  2  1  0  0  0  0
  1 25  1  0  0  0  0
  1 26  1  0  0  0  0
  1 27  1  0  0  0  0
  2 28  1  0  0  0  0
  2 29  1  0  0  0  0
  3  2  1  0  0  0  0
  3  4  1  0  0  0  0
  3 30  1  6  0  0  0
  4  5  1  0  0  0  0
  4 31  1  6  0  0  0
  5 32  1  0  0  0  0
  5 33  1  0  0  0  0
  6  5  1  0  0  0  0
  6  7  1  0  0  0  0
  6 34  1  6  0  0  0
  7  8  1  0  0  0  0
  7 35  1  1  0  0  0
  8  9  1  0  0  0  0
  8 10  1  0  0  0  0
  9 36  1  0  0  0  0
  9 37  1  0  0  0  0
  9 38  1  0  0  0  0
 10 11  2  0  0  0  0
 11 12  1  0  0  0  0
 11 39  1  0  0  0  0
 12 13  2  0  0  0  0
 12 40  1  0  0  0  0
 13 14  1  0  0  0  0
 13 41  1  0  0  0  0
 14 15  2  0  0  0  0
 14 42  1  0  0  0  0
 15 10  1  0  0  0  0
 16 15  1  0  0  0  0
 16 17  1  0  0  0  0
 16  7  1  0  0  0  0
 17 43  1  0  0  0  0
 17 44  1  0  0  0  0
 18 17  1  0  0  0  0
 18 19  1  0  0  0  0
 18 22  1  0  0  0  0
 18 45  1  6  0  0  0
 19 20  1  0  0  0  0
 19  4  1  0  0  0  0
 19 46  1  1  0  0  0
 20 21  1  0  0  0  0
 20 16  1  0  0  0  0
 20 47  1  6  0  0  0
 21 48  1  0  0  0  0
 22 23  1  0  0  0  0
 22  6  1  0  0  0  0
 23 24  1  0  0  0  0
 23  3  1  0  0  0  0
 23 49  1  1  0  0  0
 24 50  1  0  0  0  0
M  END
>  <IDENTIFIER>
CNP0243746.58

>  <Energy>
4306.43

$$$$
