
 OpenBabel09122513243D

 93 98  0  0  0  0  0  0  0  0999 V2000
   -3.8087    3.8643    2.3156 C   0  0  0  0  0  0  0  0  0  0  0  0
   -4.3833    3.4991    0.9468 C   0  0  2  0  0  0  0  0  0  0  0  0
   -3.7298    2.3422    0.4104 O   0  0  0  0  0  0  0  0  0  0  0  0
   -2.7209    2.6432   -0.5340 C   0  0  1  0  0  0  0  0  0  0  0  0
   -2.1233    1.4201   -0.9585 O   0  0  0  0  0  0  0  0  0  0  0  0
   -0.7795    1.2561   -0.5365 C   0  0  1  0  0  0  0  0  0  0  0  0
   -0.5423   -0.1648    0.0144 C   0  0  2  0  0  0  0  0  0  0  0  0
   -1.4598   -0.5106    0.9988 O   0  0  0  0  0  0  0  0  0  0  0  0
   -1.5532   -1.8001    1.4256 C   0  0  0  0  0  0  0  0  0  0  0  0
   -2.5575   -2.6806    0.9266 C   0  0  0  0  0  0  0  0  0  0  0  0
   -3.6588   -2.2965   -0.0186 C   0  0  0  0  0  0  0  0  0  0  0  0
   -4.3562   -3.3189   -0.6962 C   0  0  0  0  0  0  0  0  0  0  0  0
   -5.3908   -3.0204   -1.5857 C   0  0  0  0  0  0  0  0  0  0  0  0
   -5.7653   -1.6924   -1.8141 C   0  0  0  0  0  0  0  0  0  0  0  0
   -6.7657   -1.4038   -2.6728 O   0  0  0  0  0  0  0  0  0  0  0  0
   -5.0974   -0.6602   -1.1369 C   0  0  0  0  0  0  0  0  0  0  0  0
   -5.4423    0.6318   -1.3203 O   0  0  0  0  0  0  0  0  0  0  0  0
   -4.0581   -0.9663   -0.2482 C   0  0  0  0  0  0  0  0  0  0  0  0
   -2.5296   -3.9590    1.2932 O   0  0  0  0  0  0  0  0  0  0  0  0
   -1.6381   -4.4823    2.1185 C   0  0  0  0  0  0  0  0  0  0  0  0
   -1.7099   -5.8451    2.4149 C   0  0  0  0  0  0  0  0  0  0  0  0
   -0.7821   -6.4307    3.2807 C   0  0  0  0  0  0  0  0  0  0  0  0
   -0.8395   -7.7489    3.5658 O   0  0  0  0  0  0  0  0  0  0  0  0
    0.2221   -5.6461    3.8574 C   0  0  0  0  0  0  0  0  0  0  0  0
    0.3081   -4.2729    3.5694 C   0  0  0  0  0  0  0  0  0  0  0  0
    1.2905   -3.5382    4.1342 O   0  0  0  0  0  0  0  0  0  0  0  0
   -0.6289   -3.6740    2.6871 C   0  0  0  0  0  0  0  0  0  0  0  0
   -0.5994   -2.3140    2.3289 C   0  0  0  0  0  0  0  0  0  0  0  0
    0.2575   -1.5718    2.7799 O   0  0  0  0  0  0  0  0  0  0  0  0
    0.7774   -0.2167    0.5396 O   0  0  0  0  0  0  0  0  0  0  0  0
    1.7580   -0.1867   -0.4907 C   0  0  2  0  0  0  0  0  0  0  0  0
    3.1404   -0.1970    0.2198 C   0  0  0  0  0  0  0  0  0  0  0  0
    4.2362   -0.4113   -0.6548 O   0  0  0  0  0  0  0  0  0  0  0  0
    4.9418    0.7846   -0.9740 C   0  0  1  0  0  0  0  0  0  0  0  0
    5.5756    1.3466    0.1655 O   0  0  0  0  0  0  0  0  0  0  0  0
    6.6983    0.6211    0.6650 C   0  0  1  0  0  0  0  0  0  0  0  0
    6.3990    0.1382    2.0816 C   0  0  0  0  0  0  0  0  0  0  0  0
    7.2079   -0.5417   -0.2435 C   0  0  2  0  0  0  0  0  0  0  0  0
    8.4484   -1.0282    0.2103 O   0  0  0  0  0  0  0  0  0  0  0  0
    7.3110    0.0131   -1.6716 C   0  0  1  0  0  0  0  0  0  0  0  0
    7.9008   -0.8813   -2.5843 O   0  0  0  0  0  0  0  0  0  0  0  0
    5.9278    0.5233   -2.1527 C   0  0  1  0  0  0  0  0  0  0  0  0
    5.3317   -0.3332   -3.1006 O   0  0  0  0  0  0  0  0  0  0  0  0
    1.5981    1.0909   -1.3763 C   0  0  1  0  0  0  0  0  0  0  0  0
    2.3750    1.0139   -2.5459 O   0  0  0  0  0  0  0  0  0  0  0  0
    0.1387    1.3684   -1.7663 C   0  0  2  0  0  0  0  0  0  0  0  0
    0.0238    2.6178   -2.3957 O   0  0  0  0  0  0  0  0  0  0  0  0
   -3.3044    3.3630   -1.7871 C   0  0  2  0  0  0  0  0  0  0  0  0
   -2.2967    4.1345   -2.3968 O   0  0  0  0  0  0  0  0  0  0  0  0
   -4.5502    4.2138   -1.4356 C   0  0  2  0  0  0  0  0  0  0  0  0
   -4.7794    5.2232   -2.3888 O   0  0  0  0  0  0  0  0  0  0  0  0
   -4.4114    4.7388   -0.0029 C   0  0  1  0  0  0  0  0  0  0  0  0
   -5.4572    5.6148    0.3482 O   0  0  0  0  0  0  0  0  0  0  0  0
   -3.8587    2.9873    2.9941 H   0  0  0  0  0  0  0  0  0  0  0  0
   -4.3882    4.6978    2.7669 H   0  0  0  0  0  0  0  0  0  0  0  0
   -2.7480    4.1785    2.2152 H   0  0  0  0  0  0  0  0  0  0  0  0
   -5.4398    3.1808    1.0860 H   0  0  0  0  0  0  0  0  0  0  0  0
   -2.0108    3.3434   -0.0310 H   0  0  0  0  0  0  0  0  0  0  0  0
   -0.4763    1.9682    0.2664 H   0  0  0  0  0  0  0  0  0  0  0  0
   -0.6825   -0.9036   -0.8136 H   0  0  0  0  0  0  0  0  0  0  0  0
   -4.0975   -4.3602   -0.5508 H   0  0  0  0  0  0  0  0  0  0  0  0
   -5.9018   -3.8264   -2.0973 H   0  0  0  0  0  0  0  0  0  0  0  0
   -7.2475   -2.0918   -3.1538 H   0  0  0  0  0  0  0  0  0  0  0  0
   -6.1500    0.9064   -1.9200 H   0  0  0  0  0  0  0  0  0  0  0  0
   -3.5970   -0.1531    0.2709 H   0  0  0  0  0  0  0  0  0  0  0  0
   -2.4883   -6.4503    1.9661 H   0  0  0  0  0  0  0  0  0  0  0  0
   -1.5120   -8.3281    3.1803 H   0  0  0  0  0  0  0  0  0  0  0  0
    0.9358   -6.1049    4.5253 H   0  0  0  0  0  0  0  0  0  0  0  0
    1.9434   -3.9231    4.7363 H   0  0  0  0  0  0  0  0  0  0  0  0
    1.6517   -1.1156   -1.0967 H   0  0  0  0  0  0  0  0  0  0  0  0
    3.1464   -1.0469    0.9360 H   0  0  0  0  0  0  0  0  0  0  0  0
    3.2562    0.7119    0.8552 H   0  0  0  0  0  0  0  0  0  0  0  0
    4.2397    1.5405   -1.3545 H   0  0  0  0  0  0  0  0  0  0  0  0
    7.5234    1.3643    0.7313 H   0  0  0  0  0  0  0  0  0  0  0  0
    5.5695   -0.5984    2.0717 H   0  0  0  0  0  0  0  0  0  0  0  0
    6.1022    1.0039    2.7124 H   0  0  0  0  0  0  0  0  0  0  0  0
    7.3007   -0.3278    2.5314 H   0  0  0  0  0  0  0  0  0  0  0  0
    6.4891   -1.3885   -0.2384 H   0  0  0  0  0  0  0  0  0  0  0  0
    9.1062   -0.2862    0.1523 H   0  0  0  0  0  0  0  0  0  0  0  0
    7.9903    0.8926   -1.5920 H   0  0  0  0  0  0  0  0  0  0  0  0
    7.5226   -1.7828   -2.4169 H   0  0  0  0  0  0  0  0  0  0  0  0
    6.1392    1.4785   -2.6804 H   0  0  0  0  0  0  0  0  0  0  0  0
    5.2704   -1.2392   -2.7010 H   0  0  0  0  0  0  0  0  0  0  0  0
    1.9281    1.9579   -0.7623 H   0  0  0  0  0  0  0  0  0  0  0  0
    2.1144    0.1836   -3.0254 H   0  0  0  0  0  0  0  0  0  0  0  0
   -0.1858    0.5934   -2.4984 H   0  0  0  0  0  0  0  0  0  0  0  0
    0.2727    3.3114   -1.7302 H   0  0  0  0  0  0  0  0  0  0  0  0
   -3.6554    2.6256   -2.5404 H   0  0  0  0  0  0  0  0  0  0  0  0
   -2.0282    4.8490   -1.7604 H   0  0  0  0  0  0  0  0  0  0  0  0
   -5.4446    3.5502   -1.4299 H   0  0  0  0  0  0  0  0  0  0  0  0
   -4.1393    5.9605   -2.2119 H   0  0  0  0  0  0  0  0  0  0  0  0
   -3.4562    5.3048    0.0554 H   0  0  0  0  0  0  0  0  0  0  0  0
   -6.3148    5.1539    0.1553 H   0  0  0  0  0  0  0  0  0  0  0  0
  1 54  1  0  0  0  0
  1 55  1  0  0  0  0
  1 56  1  0  0  0  0
  2  1  1  0  0  0  0
  2  3  1  0  0  0  0
  2 57  1  1  0  0  0
  3  4  1  0  0  0  0
  4  5  1  0  0  0  0
  4 48  1  0  0  0  0
  4 58  1  1  0  0  0
  6  5  1  0  0  0  0
  6  7  1  0  0  0  0
  6 59  1  1  0  0  0
  7  8  1  0  0  0  0
  7 30  1  0  0  0  0
  7 60  1  6  0  0  0
  8  9  1  0  0  0  0
  9 10  2  0  0  0  0
 10 11  1  0  0  0  0
 10 19  1  0  0  0  0
 11 12  2  0  0  0  0
 12 13  1  0  0  0  0
 12 61  1  0  0  0  0
 13 14  2  0  0  0  0
 13 62  1  0  0  0  0
 14 15  1  0  0  0  0
 14 16  1  0  0  0  0
 15 63  1  0  0  0  0
 16 17  1  0  0  0  0
 16 18  2  0  0  0  0
 17 64  1  0  0  0  0
 18 11  1  0  0  0  0
 18 65  1  0  0  0  0
 19 20  1  0  0  0  0
 20 21  2  0  0  0  0
 21 22  1  0  0  0  0
 21 66  1  0  0  0  0
 22 23  1  0  0  0  0
 22 24  2  0  0  0  0
 23 67  1  0  0  0  0
 24 25  1  0  0  0  0
 24 68  1  0  0  0  0
 25 26  1  0  0  0  0
 25 27  2  0  0  0  0
 26 69  1  0  0  0  0
 27 28  1  0  0  0  0
 27 20  1  0  0  0  0
 28 29  2  0  0  0  0
 28  9  1  0  0  0  0
 30 31  1  0  0  0  0
 31 32  1  0  0  0  0
 31 44  1  0  0  0  0
 31 70  1  6  0  0  0
 32 33  1  0  0  0  0
 32 71  1  0  0  0  0
 32 72  1  0  0  0  0
 34 33  1  0  0  0  0
 34 35  1  0  0  0  0
 34 73  1  6  0  0  0
 35 36  1  0  0  0  0
 36 37  1  0  0  0  0
 36 38  1  0  0  0  0
 36 74  1  1  0  0  0
 37 75  1  0  0  0  0
 37 76  1  0  0  0  0
 37 77  1  0  0  0  0
 38 39  1  0  0  0  0
 38 40  1  0  0  0  0
 38 78  1  1  0  0  0
 39 79  1  0  0  0  0
 40 41  1  0  0  0  0
 40 42  1  0  0  0  0
 40 80  1  1  0  0  0
 41 81  1  0  0  0  0
 42 43  1  0  0  0  0
 42 34  1  0  0  0  0
 42 82  1  6  0  0  0
 43 83  1  0  0  0  0
 44 45  1  0  0  0  0
 44 46  1  0  0  0  0
 44 84  1  1  0  0  0
 45 85  1  0  0  0  0
 46 47  1  0  0  0  0
 46  6  1  0  0  0  0
 46 86  1  6  0  0  0
 47 87  1  0  0  0  0
 48 49  1  0  0  0  0
 48 50  1  0  0  0  0
 48 88  1  6  0  0  0
 49 89  1  0  0  0  0
 50 51  1  0  0  0  0
 50 52  1  0  0  0  0
 50 90  1  6  0  0  0
 51 91  1  0  0  0  0
 52 53  1  0  0  0  0
 52  2  1  0  0  0  0
 52 92  1  1  0  0  0
 53 93  1  0  0  0  0
M  END
>  <IDENTIFIER>
CNP0218462.5

>  <Energy>
1160.04

$$$$
