
 OpenBabel09112522333D

 41 43  0  0  0  0  0  0  0  0999 V2000
    7.9422    0.9138   -0.6662 C   0  0  0  0  0  0  0  0  0  0  0  0
    7.1067   -0.1820   -0.7385 O   0  0  0  0  0  0  0  0  0  0  0  0
    5.8264   -0.2316   -0.2870 C   0  0  0  0  0  0  0  0  0  0  0  0
    5.1992    0.8652    0.3379 C   0  0  0  0  0  0  0  0  0  0  0  0
    3.8813    0.7604    0.7899 C   0  0  0  0  0  0  0  0  0  0  0  0
    3.1647   -0.4332    0.6190 C   0  0  0  0  0  0  0  0  0  0  0  0
    1.7472   -0.5380    1.1025 C   0  0  0  0  0  0  0  0  0  0  0  0
    0.8850   -0.2539    0.0618 O   0  0  0  0  0  0  0  0  0  0  0  0
   -0.4708   -0.2157    0.1457 C   0  0  0  0  0  0  0  0  0  0  0  0
   -1.1664   -0.5447    1.3217 C   0  0  0  0  0  0  0  0  0  0  0  0
   -2.5619   -0.4922    1.3623 C   0  0  0  0  0  0  0  0  0  0  0  0
   -3.3088   -0.1049    0.2242 C   0  0  0  0  0  0  0  0  0  0  0  0
   -4.7318   -0.0299    0.1907 C   0  0  0  0  0  0  0  0  0  0  0  0
   -5.6026   -0.3679    1.3881 C   0  0  0  0  0  0  0  0  0  0  0  0
   -5.3596    0.3760   -1.0202 C   0  0  0  0  0  0  0  0  0  0  0  0
   -6.8628    0.4926   -1.1785 C   0  0  0  0  0  0  0  0  0  0  0  0
   -4.5507    0.6880   -2.1288 C   0  0  0  0  0  0  0  0  0  0  0  0
   -5.0548    1.0410   -3.1816 O   0  0  0  0  0  0  0  0  0  0  0  0
   -3.2324    0.6025   -2.0512 O   0  0  0  0  0  0  0  0  0  0  0  0
   -2.5928    0.2292   -0.9540 C   0  0  0  0  0  0  0  0  0  0  0  0
   -1.1958    0.1692   -0.9823 C   0  0  0  0  0  0  0  0  0  0  0  0
    3.7848   -1.5236   -0.0097 C   0  0  0  0  0  0  0  0  0  0  0  0
    5.1075   -1.4223   -0.4530 C   0  0  0  0  0  0  0  0  0  0  0  0
    8.9237    0.6519   -1.1117 H   0  0  0  0  0  0  0  0  0  0  0  0
    8.1014    1.2073    0.3934 H   0  0  0  0  0  0  0  0  0  0  0  0
    7.5096    1.7635   -1.2364 H   0  0  0  0  0  0  0  0  0  0  0  0
    5.7201    1.8023    0.4804 H   0  0  0  0  0  0  0  0  0  0  0  0
    3.4161    1.6147    1.2662 H   0  0  0  0  0  0  0  0  0  0  0  0
    1.5788    0.1932    1.9237 H   0  0  0  0  0  0  0  0  0  0  0  0
    1.5585   -1.5585    1.5037 H   0  0  0  0  0  0  0  0  0  0  0  0
   -0.6376   -0.8453    2.2157 H   0  0  0  0  0  0  0  0  0  0  0  0
   -3.0150   -0.7613    2.2997 H   0  0  0  0  0  0  0  0  0  0  0  0
   -5.0678   -0.6765    2.2980 H   0  0  0  0  0  0  0  0  0  0  0  0
   -6.2800   -1.2074    1.1267 H   0  0  0  0  0  0  0  0  0  0  0  0
   -6.2048    0.5217    1.6689 H   0  0  0  0  0  0  0  0  0  0  0  0
   -7.4402    0.2321   -0.2723 H   0  0  0  0  0  0  0  0  0  0  0  0
   -7.2012   -0.1864   -1.9910 H   0  0  0  0  0  0  0  0  0  0  0  0
   -7.1263    1.5357   -1.4508 H   0  0  0  0  0  0  0  0  0  0  0  0
   -0.6685    0.4305   -1.8926 H   0  0  0  0  0  0  0  0  0  0  0  0
    3.2484   -2.4543   -0.1479 H   0  0  0  0  0  0  0  0  0  0  0  0
    5.5769   -2.2744   -0.9289 H   0  0  0  0  0  0  0  0  0  0  0  0
  1  2  1  0  0  0  0
  1 24  1  0  0  0  0
  1 25  1  0  0  0  0
  1 26  1  0  0  0  0
  2  3  1  0  0  0  0
  3  4  2  0  0  0  0
  4  5  1  0  0  0  0
  4 27  1  0  0  0  0
  5  6  2  0  0  0  0
  5 28  1  0  0  0  0
  6  7  1  0  0  0  0
  6 22  1  0  0  0  0
  7  8  1  0  0  0  0
  7 29  1  0  0  0  0
  7 30  1  0  0  0  0
  8  9  1  0  0  0  0
  9 10  2  0  0  0  0
 10 11  1  0  0  0  0
 10 31  1  0  0  0  0
 11 12  2  0  0  0  0
 11 32  1  0  0  0  0
 12 13  1  0  0  0  0
 13 14  1  0  0  0  0
 13 15  2  0  0  0  0
 14 33  1  0  0  0  0
 14 34  1  0  0  0  0
 14 35  1  0  0  0  0
 15 16  1  0  0  0  0
 15 17  1  0  0  0  0
 16 36  1  0  0  0  0
 16 37  1  0  0  0  0
 16 38  1  0  0  0  0
 17 18  2  0  0  0  0
 17 19  1  0  0  0  0
 19 20  1  0  0  0  0
 20 21  2  0  0  0  0
 20 12  1  0  0  0  0
 21  9  1  0  0  0  0
 21 39  1  0  0  0  0
 22 23  2  0  0  0  0
 22 40  1  0  0  0  0
 23  3  1  0  0  0  0
 23 41  1  0  0  0  0
M  END
>  <IDENTIFIER>
CNP0367687.0

>  <Energy>
249.849

$$$$
