
 OpenBabel09072500292D

162161  0  0  0  0  0  0  0  0999 V2000
   25.9808   15.0000    0.0000 C   0  0  0  0  0  0  0  0  0  0  0  0
   24.6817   14.2500    0.0000 C   0  0  0  0  0  0  0  0  0  0  0  0
   23.6131   13.1039    0.7096 C   0  0  0  0  0  0  0  0  0  0  0  0
   22.0836   12.7500    0.0000 C   0  0  0  0  0  0  0  0  0  0  0  0
   20.7846   12.0000    0.0000 C   0  0  0  0  0  2  0  0  0  0  0  0
   19.4856   11.2500    0.0000 C   0  0  0  0  0  0  0  0  0  0  0  0
   18.1865   10.5000    0.0000 C   0  0  0  0  0  0  0  0  0  0  0  0
   16.8875    9.7500    0.0000 C   0  0  0  0  0  2  0  0  0  0  0  0
   15.5885    9.0000    0.0000 C   0  0  0  0  0  0  0  0  0  0  0  0
   13.9477    8.6466   -0.0936 C   0  0  0  0  0  0  0  0  0  0  0  0
   13.3366    7.0714    0.1078 C   0  0  0  0  0  0  0  0  0  0  0  0
   11.6913    6.7500    0.0000 C   0  0  0  0  0  0  0  0  0  0  0  0
   10.3923    6.0000    0.0000 C   0  0  0  0  0  0  0  0  0  0  0  0
    9.0933    5.2500    0.0000 C   0  0  0  0  0  0  0  0  0  0  0  0
    7.7942    4.5000    0.0000 C   0  0  0  0  0  0  0  0  0  0  0  0
    6.4952    3.7500    0.0000 C   0  0  0  0  0  0  0  0  0  0  0  0
    5.1962    3.0000    0.0000 C   0  0  0  0  0  0  0  0  0  0  0  0
    3.6134    2.7136   -0.3477 C   0  0  0  0  0  0  0  0  0  0  0  0
    3.0404    1.1835    0.0004 C   0  0  0  0  0  0  0  0  0  0  0  0
    1.5091    0.6836   -0.3644 C   0  0  0  0  0  0  0  0  0  0  0  0
    0.8717   -0.7135    0.1835 C   0  0  0  0  0  0  0  0  0  0  0  0
    1.0301   -0.9322    1.3749 O   0  0  0  0  0  0  0  0  0  0  0  0
   -0.0948   -1.5295   -0.5142 O   0  0  0  0  0  0  0  0  0  0  0  0
   -1.2990   -2.2500    0.0000 C   0  0  2  0  0  0  0  0  0  0  0  0
   -2.0490   -0.9510   -0.0000 C   0  0  0  0  0  0  0  0  0  0  0  0
   -3.3448   -0.5046    0.5320 O   0  0  0  0  0  0  0  0  0  0  0  0
   -4.0900    0.6410    0.0300 C   0  0  0  0  0  0  0  0  0  0  0  0
   -4.0445    0.8339   -1.1753 O   0  0  0  0  0  0  0  0  0  0  0  0
   -4.9708    1.7691    0.8645 C   0  0  0  0  0  0  0  0  0  0  0  0
   -5.7990    2.9462    0.0000 C   0  0  0  0  0  0  0  0  0  0  0  0
   -6.5490    4.2452    0.0000 C   0  0  0  0  0  0  0  0  0  0  0  0
   -7.2990    5.5442    0.0000 C   0  0  0  0  0  0  0  0  0  0  0  0
   -8.0490    6.8433    0.0000 C   0  0  0  0  0  0  0  0  0  0  0  0
   -8.7990    8.1423    0.0000 C   0  0  0  0  0  0  0  0  0  0  0  0
   -9.5490    9.4413    0.0000 C   0  0  0  0  0  0  0  0  0  0  0  0
   -9.8960   11.0786    0.1547 C   0  0  0  0  0  0  0  0  0  0  0  0
  -11.4687   11.6923   -0.0776 C   0  0  0  0  0  0  0  0  0  0  0  0
  -11.7990   13.3385    0.0000 C   0  0  0  0  0  0  0  0  0  0  0  0
  -12.5490   14.6375    0.0000 C   0  0  0  0  0  0  0  0  0  0  0  0
   -0.5490   -3.5490    0.0000 C   0  0  0  0  0  0  0  0  0  0  0  0
    0.7599   -3.9926    0.5216 O   0  0  0  0  0  0  0  0  0  0  0  0
    1.4256   -5.2184    0.0939 C   0  0  0  0  0  0  0  0  0  0  0  0
    0.9942   -5.7365   -0.9256 O   0  0  0  0  0  0  0  0  0  0  0  0
    2.6803   -6.0551    0.7833 C   0  0  0  0  0  0  0  0  0  0  0  0
    3.2010   -7.4462    0.0000 C   0  0  0  0  0  0  0  0  0  0  0  0
    3.9510   -8.7452    0.0000 C   0  0  0  0  0  0  0  0  0  0  0  0
    4.7010  -10.0442    0.0000 C   0  0  0  0  0  0  0  0  0  0  0  0
    5.4510  -11.3433    0.0000 C   0  0  0  0  0  0  0  0  0  0  0  0
    6.2010  -12.6423    0.0000 C   0  0  0  0  0  0  0  0  0  0  0  0
    6.9510  -13.9413    0.0000 C   0  0  0  0  0  0  0  0  0  0  0  0
    7.4028  -15.5117   -0.3893 C   0  0  0  0  0  0  0  0  0  0  0  0
    8.7322  -16.2648    0.3594 C   0  0  0  0  0  0  0  0  0  0  0  0
    9.2010  -17.8385    0.0000 C   0  0  0  0  0  0  0  0  0  0  0  0
    9.9510  -19.1375    0.0000 C   0  0  0  0  0  2  0  0  0  0  0  0
   10.7010  -20.4365    0.0000 C   0  0  0  0  0  0  0  0  0  0  0  0
   11.4510  -21.7356    0.0000 C   0  0  0  0  0  0  0  0  0  0  0  0
   12.2010  -23.0346    0.0000 C   0  0  0  0  0  2  0  0  0  0  0  0
   12.9510  -24.3336    0.0000 C   0  0  0  0  0  0  0  0  0  0  0  0
   13.2378  -25.8935   -0.6569 C   0  0  0  0  0  0  0  0  0  0  0  0
   14.4510  -26.9317    0.0000 C   0  0  0  0  0  0  0  0  0  0  0  0
   15.2010  -28.2308    0.0000 C   0  0  0  0  0  0  0  0  0  0  0  0
   15.7500  -26.1817    0.0000 C   0  0  0  0  0  0  0  0  0  0  0  0
   26.6281   14.0997   -0.0920 H   0  0  0  0  0  0  0  0  0  0  0  0
   25.8608   15.5357   -0.9737 H   0  0  0  0  0  0  0  0  0  0  0  0
   26.9075   15.5350    0.0000 H   0  0  0  0  0  0  0  0  0  0  0  0
   23.9709   15.1069   -0.0352 H   0  0  0  0  0  0  0  0  0  0  0  0
   24.6811   13.7972   -1.0231 H   0  0  0  0  0  0  0  0  0  0  0  0
   23.4197   13.4398    1.7497 H   0  0  0  0  0  0  0  0  0  0  0  0
   24.1669   12.1434    0.7701 H   0  0  0  0  0  0  0  0  0  0  0  0
   22.4150   12.5068   -1.0307 H   0  0  0  0  0  0  0  0  0  0  0  0
   21.6779   13.7805   -0.0693 H   0  0  0  0  0  0  0  0  0  0  0  0
   19.8548   10.6942    0.8958 H   0  0  0  0  0  0  0  0  0  0  0  0
   19.8546   10.6945   -0.8961 H   0  0  0  0  0  0  0  0  0  0  0  0
   17.8175   11.0555    0.8961 H   0  0  0  0  0  0  0  0  0  0  0  0
   17.8173   11.0558   -0.8958 H   0  0  0  0  0  0  0  0  0  0  0  0
   15.9080    8.2519   -0.7552 H   0  0  0  0  0  0  0  0  0  0  0  0
   15.7521    8.5208    0.9878 H   0  0  0  0  0  0  0  0  0  0  0  0
   13.4443    9.2792    0.6677 H   0  0  0  0  0  0  0  0  0  0  0  0
   13.6040    8.9972   -1.0893 H   0  0  0  0  0  0  0  0  0  0  0  0
   13.6673    6.7269    1.1101 H   0  0  0  0  0  0  0  0  0  0  0  0
   13.8405    6.4285   -0.6440 H   0  0  0  0  0  0  0  0  0  0  0  0
   11.5711    7.2160   -1.0078 H   0  0  0  0  0  0  0  0  0  0  0  0
   11.4015    7.5896    0.6876 H   0  0  0  0  0  0  0  0  0  0  0  0
   10.6945    5.7531    1.0721 H   0  0  0  0  0  0  0  0  0  0  0  0
   10.8334    5.2623   -0.7208 H   0  0  0  0  0  0  0  0  0  0  0  0
    8.6955    5.9728    0.7741 H   0  0  0  0  0  0  0  0  0  0  0  0
    9.5060    4.3448    0.5654 H   0  0  0  0  0  0  0  0  0  0  0  0
    7.3960    5.3861   -0.6003 H   0  0  0  0  0  0  0  0  0  0  0  0
    8.2041    3.7540   -0.7522 H   0  0  0  0  0  0  0  0  0  0  0  0
    6.2528    3.8947   -1.1056 H   0  0  0  0  0  0  0  0  0  0  0  0
    6.0055    4.5516    0.6151 H   0  0  0  0  0  0  0  0  0  0  0  0
    5.5698    2.0746   -0.5118 H   0  0  0  0  0  0  0  0  0  0  0  0
    5.1723    2.6815    1.0706 H   0  0  0  0  0  0  0  0  0  0  0  0
    3.4826    2.8698   -1.4390 H   0  0  0  0  0  0  0  0  0  0  0  0
    2.9875    3.4627    0.1814 H   0  0  0  0  0  0  0  0  0  0  0  0
    3.7217    0.4555   -0.4875 H   0  0  0  0  0  0  0  0  0  0  0  0
    3.1593    1.0599    1.0974 H   0  0  0  0  0  0  0  0  0  0  0  0
    1.3471    0.7463   -1.4601 H   0  0  0  0  0  0  0  0  0  0  0  0
    0.8644    1.4665    0.0886 H   0  0  0  0  0  0  0  0  0  0  0  0
   -2.0312   -2.6170   -0.7666 H   0  0  0  0  0  0  0  0  0  0  0  0
   -2.0376   -0.5525   -1.0531 H   0  0  0  0  0  0  0  0  0  0  0  0
   -1.4422   -0.2051    0.5628 H   0  0  0  0  0  0  0  0  0  0  0  0
   -4.2568    2.2845    1.5396 H   0  0  0  0  0  0  0  0  0  0  0  0
   -5.7152    1.2414    1.4965 H   0  0  0  0  0  0  0  0  0  0  0  0
   -6.4677    2.2850   -0.6077 H   0  0  0  0  0  0  0  0  0  0  0  0
   -4.9995    3.2072   -0.7343 H   0  0  0  0  0  0  0  0  0  0  0  0
   -5.6943    4.7154    0.5551 H   0  0  0  0  0  0  0  0  0  0  0  0
   -7.2411    3.6810    0.7058 H   0  0  0  0  0  0  0  0  0  0  0  0
   -7.4527    5.5666    1.1338 H   0  0  0  0  0  0  0  0  0  0  0  0
   -8.1907    5.0097   -0.4457 H   0  0  0  0  0  0  0  0  0  0  0  0
   -7.0461    7.3072    0.2995 H   0  0  0  0  0  0  0  0  0  0  0  0
   -8.0830    6.8472   -1.1304 H   0  0  0  0  0  0  0  0  0  0  0  0
   -8.0188    8.7642   -0.5480 H   0  0  0  0  0  0  0  0  0  0  0  0
   -8.6606    8.2234    1.1134 H   0  0  0  0  0  0  0  0  0  0  0  0
   -9.9588    9.3578   -1.0377 H   0  0  0  0  0  0  0  0  0  0  0  0
  -10.4175    9.1198    0.6293 H   0  0  0  0  0  0  0  0  0  0  0  0
   -9.5914   11.3786    1.1795 H   0  0  0  0  0  0  0  0  0  0  0  0
   -9.2282   11.6119   -0.5542 H   0  0  0  0  0  0  0  0  0  0  0  0
  -12.1190   11.1918    0.6704 H   0  0  0  0  0  0  0  0  0  0  0  0
  -11.8023   11.3513   -1.0807 H   0  0  0  0  0  0  0  0  0  0  0  0
  -11.0331   13.5774   -0.7821 H   0  0  0  0  0  0  0  0  0  0  0  0
  -11.3206   13.4688    0.9982 H   0  0  0  0  0  0  0  0  0  0  0  0
  -11.6850   15.3466    0.0732 H   0  0  0  0  0  0  0  0  0  0  0  0
  -12.9386   14.5462   -1.0390 H   0  0  0  0  0  0  0  0  0  0  0  0
  -13.0840   15.5641    0.0000 H   0  0  0  0  0  0  0  0  0  0  0  0
   -1.2725   -4.2804    0.4275 H   0  0  0  0  0  0  0  0  0  0  0  0
   -0.4870   -3.8443   -1.0823 H   0  0  0  0  0  0  0  0  0  0  0  0
    2.3304   -6.3545    1.7935 H   0  0  0  0  0  0  0  0  0  0  0  0
    3.5514   -5.3795    0.9097 H   0  0  0  0  0  0  0  0  0  0  0  0
    3.5416   -6.9914   -0.9600 H   0  0  0  0  0  0  0  0  0  0  0  0
    2.1427   -7.7949   -0.1714 H   0  0  0  0  0  0  0  0  0  0  0  0
    3.3865   -9.0668    0.9166 H   0  0  0  0  0  0  0  0  0  0  0  0
    3.4113   -9.1152   -0.9242 H   0  0  0  0  0  0  0  0  0  0  0  0
    5.3545   -9.6345    0.8262 H   0  0  0  0  0  0  0  0  0  0  0  0
    5.3074   -9.7205   -0.9014 H   0  0  0  0  0  0  0  0  0  0  0  0
    4.6895  -11.6532   -0.7890 H   0  0  0  0  0  0  0  0  0  0  0  0
    5.0315  -11.5886    1.0195 H   0  0  0  0  0  0  0  0  0  0  0  0
    5.2911  -13.3225    0.0514 H   0  0  0  0  0  0  0  0  0  0  0  0
    6.5169  -12.4709   -1.0656 H   0  0  0  0  0  0  0  0  0  0  0  0
    6.8990  -14.1271    1.1020 H   0  0  0  0  0  0  0  0  0  0  0  0
    7.9839  -13.5247   -0.1111 H   0  0  0  0  0  0  0  0  0  0  0  0
    7.5978  -15.5301   -1.4820 H   0  0  0  0  0  0  0  0  0  0  0  0
    6.5182  -16.1560   -0.2017 H   0  0  0  0  0  0  0  0  0  0  0  0
    9.6131  -15.6187    0.1608 H   0  0  0  0  0  0  0  0  0  0  0  0
    8.5426  -16.2324    1.4528 H   0  0  0  0  0  0  0  0  0  0  0  0
    8.2084  -18.2983    0.1885 H   0  0  0  0  0  0  0  0  0  0  0  0
    9.2616  -17.6910   -1.0985 H   0  0  0  0  0  0  0  0  0  0  0  0
   11.2564  -20.0676   -0.8962 H   0  0  0  0  0  0  0  0  0  0  0  0
   11.2569  -20.0673    0.8957 H   0  0  0  0  0  0  0  0  0  0  0  0
   10.8951  -22.1048   -0.8958 H   0  0  0  0  0  0  0  0  0  0  0  0
   10.8956  -22.1046    0.8962 H   0  0  0  0  0  0  0  0  0  0  0  0
   12.8431  -24.5974    1.0724 H   0  0  0  0  0  0  0  0  0  0  0  0
   13.9599  -23.8932   -0.1040 H   0  0  0  0  0  0  0  0  0  0  0  0
   12.2788  -26.4485   -0.5912 H   0  0  0  0  0  0  0  0  0  0  0  0
   13.4616  -25.7557   -1.7356 H   0  0  0  0  0  0  0  0  0  0  0  0
   14.0910  -26.9381    1.0588 H   0  0  0  0  0  0  0  0  0  0  0  0
   14.3108  -28.8742    0.1863 H   0  0  0  0  0  0  0  0  0  0  0  0
   15.3885  -28.2848   -1.1029 H   0  0  0  0  0  0  0  0  0  0  0  0
   15.7360  -29.1575    0.0000 H   0  0  0  0  0  0  0  0  0  0  0  0
   15.7954  -25.9828   -1.0971 H   0  0  0  0  0  0  0  0  0  0  0  0
   15.4280  -25.2954    0.5786 H   0  0  0  0  0  0  0  0  0  0  0  0
   16.6766  -25.6467    0.0000 H   0  0  0  0  0  0  0  0  0  0  0  0
  1  2  1  0  0  0  0
  1 63  1  0  0  0  0
  1 64  1  0  0  0  0
  1 65  1  0  0  0  0
  2  3  1  0  0  0  0
  2 66  1  0  0  0  0
  2 67  1  0  0  0  0
  3  4  1  0  0  0  0
  3 68  1  0  0  0  0
  3 69  1  0  0  0  0
  4  5  1  0  0  0  0
  4 70  1  0  0  0  0
  4 71  1  0  0  0  0
  5  6  1  0  0  0  0
  6  7  1  0  0  0  0
  6 72  1  0  0  0  0
  6 73  1  0  0  0  0
  7  8  1  0  0  0  0
  7 74  1  0  0  0  0
  7 75  1  0  0  0  0
  8  9  1  0  0  0  0
  9 10  1  0  0  0  0
  9 76  1  0  0  0  0
  9 77  1  0  0  0  0
 10 11  1  0  0  0  0
 10 78  1  0  0  0  0
 10 79  1  0  0  0  0
 11 12  1  0  0  0  0
 11 80  1  0  0  0  0
 11 81  1  0  0  0  0
 12 13  1  0  0  0  0
 12 82  1  0  0  0  0
 12 83  1  0  0  0  0
 13 14  1  0  0  0  0
 13 84  1  0  0  0  0
 13 85  1  0  0  0  0
 14 15  1  0  0  0  0
 14 86  1  0  0  0  0
 14 87  1  0  0  0  0
 15 16  1  0  0  0  0
 15 88  1  0  0  0  0
 15 89  1  0  0  0  0
 16 17  1  0  0  0  0
 16 90  1  0  0  0  0
 16 91  1  0  0  0  0
 17 18  1  0  0  0  0
 17 92  1  0  0  0  0
 17 93  1  0  0  0  0
 18 19  1  0  0  0  0
 18 94  1  0  0  0  0
 18 95  1  0  0  0  0
 19 20  1  0  0  0  0
 19 96  1  0  0  0  0
 19 97  1  0  0  0  0
 20 21  1  0  0  0  0
 20 98  1  0  0  0  0
 20 99  1  0  0  0  0
 21 22  2  0  0  0  0
 21 23  1  0  0  0  0
 23 24  1  0  0  0  0
 24 25  1  0  0  0  0
 24 40  1  0  0  0  0
 24100  1  6  0  0  0
 25 26  1  0  0  0  0
 25101  1  0  0  0  0
 25102  1  0  0  0  0
 26 27  1  0  0  0  0
 27 28  2  0  0  0  0
 27 29  1  0  0  0  0
 29 30  1  0  0  0  0
 29103  1  0  0  0  0
 29104  1  0  0  0  0
 30 31  1  0  0  0  0
 30105  1  0  0  0  0
 30106  1  0  0  0  0
 31 32  1  0  0  0  0
 31107  1  0  0  0  0
 31108  1  0  0  0  0
 32 33  1  0  0  0  0
 32109  1  0  0  0  0
 32110  1  0  0  0  0
 33 34  1  0  0  0  0
 33111  1  0  0  0  0
 33112  1  0  0  0  0
 34 35  1  0  0  0  0
 34113  1  0  0  0  0
 34114  1  0  0  0  0
 35 36  1  0  0  0  0
 35115  1  0  0  0  0
 35116  1  0  0  0  0
 36 37  1  0  0  0  0
 36117  1  0  0  0  0
 36118  1  0  0  0  0
 37 38  1  0  0  0  0
 37119  1  0  0  0  0
 37120  1  0  0  0  0
 38 39  1  0  0  0  0
 38121  1  0  0  0  0
 38122  1  0  0  0  0
 39123  1  0  0  0  0
 39124  1  0  0  0  0
 39125  1  0  0  0  0
 40 41  1  0  0  0  0
 40126  1  0  0  0  0
 40127  1  0  0  0  0
 41 42  1  0  0  0  0
 42 43  2  0  0  0  0
 42 44  1  0  0  0  0
 44 45  1  0  0  0  0
 44128  1  0  0  0  0
 44129  1  0  0  0  0
 45 46  1  0  0  0  0
 45130  1  0  0  0  0
 45131  1  0  0  0  0
 46 47  1  0  0  0  0
 46132  1  0  0  0  0
 46133  1  0  0  0  0
 47 48  1  0  0  0  0
 47134  1  0  0  0  0
 47135  1  0  0  0  0
 48 49  1  0  0  0  0
 48136  1  0  0  0  0
 48137  1  0  0  0  0
 49 50  1  0  0  0  0
 49138  1  0  0  0  0
 49139  1  0  0  0  0
 50 51  1  0  0  0  0
 50140  1  0  0  0  0
 50141  1  0  0  0  0
 51 52  1  0  0  0  0
 51142  1  0  0  0  0
 51143  1  0  0  0  0
 52 53  1  0  0  0  0
 52144  1  0  0  0  0
 52145  1  0  0  0  0
 53 54  1  0  0  0  0
 53146  1  0  0  0  0
 53147  1  0  0  0  0
 54 55  1  0  0  0  0
 55 56  1  0  0  0  0
 55148  1  0  0  0  0
 55149  1  0  0  0  0
 56 57  1  0  0  0  0
 56150  1  0  0  0  0
 56151  1  0  0  0  0
 57 58  1  0  0  0  0
 58 59  1  0  0  0  0
 58152  1  0  0  0  0
 58153  1  0  0  0  0
 59 60  1  0  0  0  0
 59154  1  0  0  0  0
 59155  1  0  0  0  0
 60 61  1  0  0  0  0
 60 62  1  0  0  0  0
 60156  1  0  0  0  0
 61157  1  0  0  0  0
 61158  1  0  0  0  0
 61159  1  0  0  0  0
 62160  1  0  0  0  0
 62161  1  0  0  0  0
 62162  1  0  0  0  0
M  END
>  <IDENTIFIER>
CNP0599609.2

>  <Energy>
14023.8

$$$$
