
 OpenBabel09062500132D

 78 83  0  0  0  0  0  0  0  0999 V2000
   12.4307    7.8562    0.0000 C   0  0  0  0  0  0  0  0  0  0  0  0
   11.0041    7.3926    0.0000 C   0  0  0  0  0  0  0  0  0  0  0  0
    9.5181    7.2997   -0.8410 C   0  0  0  0  0  0  0  0  0  0  0  0
    8.1246    6.5379   -0.1745 C   0  0  0  0  0  0  0  0  0  0  0  0
    6.5598    6.3070   -0.8582 C   0  0  0  0  0  0  0  0  0  0  0  0
    5.2978    5.5385    0.0000 C   0  0  0  0  0  0  0  0  0  0  0  0
    3.8712    5.0750    0.0000 C   0  0  0  0  0  0  0  0  0  0  0  0
    2.4446    4.6115    0.0000 C   0  0  0  0  0  0  0  0  0  0  0  0
    1.0180    4.1480    0.0000 C   0  0  0  0  0  0  0  0  0  0  0  0
   -0.1159    3.9313    0.6146 N   0  3  2  0  0  0  0  0  0  0  0  0
   -0.4561    5.4531    1.0395 C   0  0  2  0  0  0  0  0  0  0  0  0
    0.5887    6.1656    1.6707 O   0  0  0  0  0  0  0  0  0  0  0  0
   -1.2114    6.1554    0.0000 C   0  0  1  0  0  0  0  0  0  0  0  0
   -1.9156    7.4798    0.0000 C   0  0  0  0  0  0  0  0  0  0  0  0
   -2.6198    8.8042    0.0000 C   0  0  0  0  0  0  0  0  0  0  0  0
   -2.2684    4.6415   -0.1494 C   0  0  1  0  0  0  0  0  0  0  0  0
   -1.6702    3.6704   -1.2372 C   0  0  0  0  0  0  0  0  0  0  0  0
   -0.4022    2.9544   -0.6287 C   0  0  1  0  0  0  0  0  0  0  0  0
    0.0554    1.2073   -0.2929 C   0  0  2  0  0  0  0  0  0  0  0  0
    1.2760    0.0000    0.0000 N   0  0  0  0  0  0  0  0  0  0  0  0
    2.7760    0.0000    0.0000 C   0  0  0  0  0  0  0  0  0  0  0  0
    0.4645   -0.9616    0.6798 C   0  0  0  0  0  0  0  0  0  0  0  0
    0.8066   -2.2999    0.9163 C   0  0  0  0  0  0  0  0  0  0  0  0
   -0.1116   -3.1324    1.5710 C   0  0  0  0  0  0  0  0  0  0  0  0
   -1.3543   -2.6340    1.9942 C   0  0  0  0  0  0  0  0  0  0  0  0
   -1.6966   -1.2931    1.7757 C   0  0  0  0  0  0  0  0  0  0  0  0
   -0.7902   -0.4574    1.1171 C   0  0  0  0  0  0  0  0  0  0  0  0
   -0.9655    1.0317    0.8629 C   0  0  3  0  0  0  0  0  0  0  0  0
   -0.4044    1.8153    2.0181 C   0  0  0  0  0  0  0  0  0  0  0  0
   -0.8136    3.2726    1.7171 C   0  0  1  0  0  0  0  0  0  0  0  0
   -2.2868    3.4073    1.1358 C   0  0  2  0  0  0  0  0  0  0  0  0
   -2.4376    1.7783    0.8606 C   0  0  2  0  0  0  0  0  0  0  0  0
   -3.2586    1.4147   -0.2131 O   0  0  0  0  0  0  0  0  0  0  0  0
   12.6978    7.5480    1.0401 H   0  0  0  0  0  0  0  0  0  0  0  0
   12.1920    8.9406   -0.0671 H   0  0  0  0  0  0  0  0  0  0  0  0
   13.4483    8.1869    0.0000 H   0  0  0  0  0  0  0  0  0  0  0  0
   11.1467    6.3038    0.1862 H   0  0  0  0  0  0  0  0  0  0  0  0
   10.6064    7.8210    0.9535 H   0  0  0  0  0  0  0  0  0  0  0  0
    9.2209    8.3420   -1.0806 H   0  0  0  0  0  0  0  0  0  0  0  0
    9.7310    6.7888   -1.8031 H   0  0  0  0  0  0  0  0  0  0  0  0
    7.9411    7.0750    0.7792 H   0  0  0  0  0  0  0  0  0  0  0  0
    8.4638    5.5165    0.0964 H   0  0  0  0  0  0  0  0  0  0  0  0
    6.7092    5.7285   -1.7936 H   0  0  0  0  0  0  0  0  0  0  0  0
    6.1834    7.3103   -1.1480 H   0  0  0  0  0  0  0  0  0  0  0  0
    5.2979    6.2216    0.8833 H   0  0  0  0  0  0  0  0  0  0  0  0
    5.8949    4.6396    0.3194 H   0  0  0  0  0  0  0  0  0  0  0  0
    3.9544    4.6360    1.0361 H   0  0  0  0  0  0  0  0  0  0  0  0
    4.1618    4.2789   -0.7409 H   0  0  0  0  0  0  0  0  0  0  0  0
    2.3078    4.8864   -1.0938 H   0  0  0  0  0  0  0  0  0  0  0  0
    2.2487    5.6278    0.3893 H   0  0  0  0  0  0  0  0  0  0  0  0
    1.4452    3.9104    1.0197 H   0  0  0  0  0  0  0  0  0  0  0  0
    1.6463    3.1801   -0.2253 H   0  0  0  0  0  0  0  0  0  0  0  0
   -1.2303    5.5501    1.8485 H   0  0  0  0  0  0  0  0  0  0  0  0
    0.7705    7.0039    1.1733 H   0  0  0  0  0  0  0  0  0  0  0  0
   -0.5536    6.2160   -0.8964 H   0  0  0  0  0  0  0  0  0  0  0  0
   -1.0149    7.9804    0.4148 H   0  0  0  0  0  0  0  0  0  0  0  0
   -2.5975    7.0365    0.7715 H   0  0  0  0  0  0  0  0  0  0  0  0
   -2.7491    8.9925    1.1025 H   0  0  0  0  0  0  0  0  0  0  0  0
   -3.5481    8.4491   -0.5047 H   0  0  0  0  0  0  0  0  0  0  0  0
   -3.1221    9.7490    0.0000 H   0  0  0  0  0  0  0  0  0  0  0  0
   -3.2697    4.9169   -0.5423 H   0  0  0  0  0  0  0  0  0  0  0  0
   -1.4107    4.3399   -2.0906 H   0  0  0  0  0  0  0  0  0  0  0  0
   -2.3669    2.9336   -1.6716 H   0  0  0  0  0  0  0  0  0  0  0  0
    0.1413    2.9904   -1.6441 H   0  0  0  0  0  0  0  0  0  0  0  0
   -0.4363    0.7665   -1.1909 H   0  0  0  0  0  0  0  0  0  0  0  0
    2.9812   -0.8541    0.6713 H   0  0  0  0  0  0  0  0  0  0  0  0
    2.9212    0.9398    0.5722 H   0  0  0  0  0  0  0  0  0  0  0  0
    3.8460    0.0000    0.0000 H   0  0  0  0  0  0  0  0  0  0  0  0
    1.7512   -2.7093    0.5859 H   0  0  0  0  0  0  0  0  0  0  0  0
    0.1382   -4.1703    1.7492 H   0  0  0  0  0  0  0  0  0  0  0  0
   -2.0507   -3.2896    2.5009 H   0  0  0  0  0  0  0  0  0  0  0  0
   -2.6490   -0.9180    2.1238 H   0  0  0  0  0  0  0  0  0  0  0  0
   -0.9279    1.5024    2.9526 H   0  0  0  0  0  0  0  0  0  0  0  0
    0.6872    1.6910    2.1979 H   0  0  0  0  0  0  0  0  0  0  0  0
   -0.6363    3.7808    2.6990 H   0  0  0  0  0  0  0  0  0  0  0  0
   -2.9965    3.7077    1.9357 H   0  0  0  0  0  0  0  0  0  0  0  0
   -2.9218    1.3873    1.7878 H   0  0  0  0  0  0  0  0  0  0  0  0
   -4.1563    1.7887   -0.0157 H   0  0  0  0  0  0  0  0  0  0  0  0
  1  2  1  0  0  0  0
  1 34  1  0  0  0  0
  1 35  1  0  0  0  0
  1 36  1  0  0  0  0
  2  3  1  0  0  0  0
  2 37  1  0  0  0  0
  2 38  1  0  0  0  0
  3  4  1  0  0  0  0
  3 39  1  0  0  0  0
  3 40  1  0  0  0  0
  4  5  1  0  0  0  0
  4 41  1  0  0  0  0
  4 42  1  0  0  0  0
  5  6  1  0  0  0  0
  5 43  1  0  0  0  0
  5 44  1  0  0  0  0
  6  7  1  0  0  0  0
  6 45  1  0  0  0  0
  6 46  1  0  0  0  0
  7  8  1  0  0  0  0
  7 47  1  0  0  0  0
  7 48  1  0  0  0  0
  8  9  1  0  0  0  0
  8 49  1  0  0  0  0
  8 50  1  0  0  0  0
  9 51  1  0  0  0  0
  9 52  1  0  0  0  0
 10  9  1  6  0  0  0
 10 11  1  0  0  0  0
 11 12  1  0  0  0  0
 11 13  1  0  0  0  0
 11 53  1  6  0  0  0
 12 54  1  0  0  0  0
 13 14  1  0  0  0  0
 13 16  1  0  0  0  0
 13 55  1  1  0  0  0
 14 15  1  0  0  0  0
 14 56  1  0  0  0  0
 14 57  1  0  0  0  0
 15 58  1  0  0  0  0
 15 59  1  0  0  0  0
 15 60  1  0  0  0  0
 16 17  1  0  0  0  0
 16 61  1  6  0  0  0
 17 62  1  0  0  0  0
 17 63  1  0  0  0  0
 18 17  1  0  0  0  0
 18 19  1  0  0  0  0
 18 10  1  0  0  0  0
 18 64  1  1  0  0  0
 19 20  1  0  0  0  0
 19 65  1  1  0  0  0
 20 21  1  0  0  0  0
 20 22  1  0  0  0  0
 21 66  1  0  0  0  0
 21 67  1  0  0  0  0
 21 68  1  0  0  0  0
 22 23  2  0  0  0  0
 23 24  1  0  0  0  0
 23 69  1  0  0  0  0
 24 25  2  0  0  0  0
 24 70  1  0  0  0  0
 25 26  1  0  0  0  0
 25 71  1  0  0  0  0
 26 27  2  0  0  0  0
 26 72  1  0  0  0  0
 27 22  1  0  0  0  0
 28 27  1  0  0  0  0
 28 29  1  0  0  0  0
 28 19  1  0  0  0  0
 29 73  1  0  0  0  0
 29 74  1  0  0  0  0
 30 29  1  0  0  0  0
 30 31  1  0  0  0  0
 30 10  1  0  0  0  0
 30 75  1  6  0  0  0
 31 32  1  0  0  0  0
 31 16  1  0  0  0  0
 31 76  1  1  0  0  0
 32 33  1  0  0  0  0
 32 28  1  0  0  0  0
 32 77  1  6  0  0  0
 33 78  1  0  0  0  0
M  CHG  1  10   1
M  END
>  <IDENTIFIER>
CNP0485348.4

>  <Energy>
6651.52

$$$$
