
 OpenBabel09122511223D

 81 86  0  0  0  0  0  0  0  0999 V2000
    7.9971    0.8876    2.9916 C   0  0  0  0  0  0  0  0  0  0  0  0
    6.7204    0.2103    2.6129 C   0  0  0  0  0  0  0  0  0  0  0  0
    5.9137   -0.0917    3.4823 O   0  0  0  0  0  0  0  0  0  0  0  0
    6.4924   -0.1032    1.3099 O   0  0  0  0  0  0  0  0  0  0  0  0
    5.3340   -0.6387    0.8505 C   0  0  0  0  0  0  0  0  0  0  0  0
    5.3971   -1.9166    0.3091 C   0  0  0  0  0  0  0  0  0  0  0  0
    4.2470   -2.5625   -0.1111 C   0  0  0  0  0  0  0  0  0  0  0  0
    2.9911   -1.9406   -0.0147 C   0  0  0  0  0  0  0  0  0  0  0  0
    1.7797   -2.6783   -0.4680 C   0  0  0  0  0  0  0  0  0  0  0  0
    1.9290   -3.8111   -0.8928 O   0  0  0  0  0  0  0  0  0  0  0  0
    0.4192   -2.0457   -0.4236 C   0  0  0  0  0  0  0  0  0  0  0  0
   -0.7836   -2.7023   -0.8483 C   0  0  0  0  0  0  0  0  0  0  0  0
   -0.8037   -3.9795   -1.2966 O   0  0  0  0  0  0  0  0  0  0  0  0
   -2.0271   -2.0179   -0.8132 C   0  0  0  0  0  0  0  0  0  0  0  0
   -3.3223   -2.7057   -1.2712 C   0  0  0  0  0  0  0  0  0  0  0  0
   -3.7267   -3.8684   -0.3243 C   0  0  0  0  0  0  0  0  0  0  0  0
   -4.5867   -4.9314   -1.0492 C   0  0  0  0  0  0  0  0  0  0  0  0
   -5.4913   -4.3105   -2.0208 N   0  0  0  0  0  0  0  0  0  0  0  0
   -4.7545   -3.6174   -3.1097 C   0  0  0  0  0  0  0  0  0  0  0  0
   -3.3085   -3.1966   -2.7270 C   0  0  0  0  0  0  0  0  0  0  0  0
   -2.0833   -0.6869   -0.3435 C   0  0  0  0  0  0  0  0  0  0  0  0
   -3.2941   -0.0574   -0.3123 O   0  0  0  0  0  0  0  0  0  0  0  0
   -3.6714    1.1352    0.2848 C   0  0  1  0  0  0  0  0  0  0  0  0
   -4.0890    2.0401   -0.7386 O   0  0  0  0  0  0  0  0  0  0  0  0
   -4.7090    3.2530   -0.2834 C   0  0  1  0  0  0  0  0  0  0  0  0
   -6.0604    3.4215   -0.9912 C   0  0  0  0  0  0  0  0  0  0  0  0
   -4.7733    3.3929    1.2660 C   0  0  1  0  0  0  0  0  0  0  0  0
   -5.3774    4.5824    1.7098 O   0  0  0  0  0  0  0  0  0  0  0  0
   -5.2966    2.1243    1.9918 C   0  0  1  0  0  0  0  0  0  0  0  0
   -6.6825    2.1158    2.2352 O   0  0  0  0  0  0  0  0  0  0  0  0
   -4.8248    0.8309    1.2757 C   0  0  1  0  0  0  0  0  0  0  0  0
   -5.8924    0.1718    0.6293 O   0  0  0  0  0  0  0  0  0  0  0  0
   -0.9036   -0.0615    0.0814 C   0  0  0  0  0  0  0  0  0  0  0  0
    0.3341   -0.7195    0.0504 C   0  0  0  0  0  0  0  0  0  0  0  0
    1.5452    0.0113    0.5248 C   0  0  0  0  0  0  0  0  0  0  0  0
    1.4177    1.1651    0.9072 O   0  0  0  0  0  0  0  0  0  0  0  0
    2.8965   -0.6287    0.5029 C   0  0  0  0  0  0  0  0  0  0  0  0
    4.0879    0.0413    0.9388 C   0  0  0  0  0  0  0  0  0  0  0  0
    4.0389    1.4109    1.5273 C   0  0  0  0  0  0  0  0  0  0  0  0
    4.8324    2.4707    1.2417 C   0  0  0  0  0  0  0  0  0  0  0  0
    5.8518    2.6211    0.1593 C   0  0  0  0  0  0  0  0  0  0  0  0
    6.7668    3.6860    0.2593 C   0  0  0  0  0  0  0  0  0  0  0  0
    7.7239    3.9026   -0.7354 C   0  0  0  0  0  0  0  0  0  0  0  0
    7.7759    3.0666   -1.8514 C   0  0  0  0  0  0  0  0  0  0  0  0
    6.8649    2.0175   -1.9769 C   0  0  0  0  0  0  0  0  0  0  0  0
    5.9072    1.7950   -0.9825 C   0  0  0  0  0  0  0  0  0  0  0  0
    8.0518    1.0340    4.0919 H   0  0  0  0  0  0  0  0  0  0  0  0
    8.0531    1.8766    2.4925 H   0  0  0  0  0  0  0  0  0  0  0  0
    8.8573    0.2640    2.6702 H   0  0  0  0  0  0  0  0  0  0  0  0
    6.3496   -2.4284    0.2405 H   0  0  0  0  0  0  0  0  0  0  0  0
    4.3432   -3.5652   -0.5102 H   0  0  0  0  0  0  0  0  0  0  0  0
   -0.0761   -4.6014   -1.3658 H   0  0  0  0  0  0  0  0  0  0  0  0
   -4.1624   -1.9781   -1.2486 H   0  0  0  0  0  0  0  0  0  0  0  0
   -4.2736   -3.4143    0.5310 H   0  0  0  0  0  0  0  0  0  0  0  0
   -2.8560   -4.4144    0.0956 H   0  0  0  0  0  0  0  0  0  0  0  0
   -5.1438   -5.5438   -0.3083 H   0  0  0  0  0  0  0  0  0  0  0  0
   -3.9220   -5.6287   -1.6063 H   0  0  0  0  0  0  0  0  0  0  0  0
   -6.0883   -3.6202   -1.5058 H   0  0  0  0  0  0  0  0  0  0  0  0
   -5.3301   -2.7019   -3.3727 H   0  0  0  0  0  0  0  0  0  0  0  0
   -4.7206   -4.2494   -4.0226 H   0  0  0  0  0  0  0  0  0  0  0  0
   -2.9568   -2.4188   -3.4388 H   0  0  0  0  0  0  0  0  0  0  0  0
   -2.6339   -4.0711   -2.8200 H   0  0  0  0  0  0  0  0  0  0  0  0
   -2.8362    1.5808    0.8507 H   0  0  0  0  0  0  0  0  0  0  0  0
   -4.0814    4.0997   -0.6397 H   0  0  0  0  0  0  0  0  0  0  0  0
   -6.7801    2.6252   -0.7390 H   0  0  0  0  0  0  0  0  0  0  0  0
   -5.9028    3.3919   -2.0902 H   0  0  0  0  0  0  0  0  0  0  0  0
   -6.5121    4.4052   -0.7466 H   0  0  0  0  0  0  0  0  0  0  0  0
   -3.7029    3.4738    1.5598 H   0  0  0  0  0  0  0  0  0  0  0  0
   -6.3513    4.5079    1.5470 H   0  0  0  0  0  0  0  0  0  0  0  0
   -4.8141    2.1749    2.9942 H   0  0  0  0  0  0  0  0  0  0  0  0
   -7.1498    2.2493    1.3751 H   0  0  0  0  0  0  0  0  0  0  0  0
   -4.4612    0.1214    2.0510 H   0  0  0  0  0  0  0  0  0  0  0  0
   -6.0520    0.5922   -0.2511 H   0  0  0  0  0  0  0  0  0  0  0  0
   -0.9226    0.9543    0.4348 H   0  0  0  0  0  0  0  0  0  0  0  0
    3.2962    1.5732    2.3021 H   0  0  0  0  0  0  0  0  0  0  0  0
    4.6772    3.3508    1.8629 H   0  0  0  0  0  0  0  0  0  0  0  0
    6.7406    4.3523    1.1131 H   0  0  0  0  0  0  0  0  0  0  0  0
    8.4240    4.7225   -0.6425 H   0  0  0  0  0  0  0  0  0  0  0  0
    8.5139    3.2382   -2.6238 H   0  0  0  0  0  0  0  0  0  0  0  0
    6.8942    1.3801   -2.8511 H   0  0  0  0  0  0  0  0  0  0  0  0
    5.2047    0.9945   -1.1445 H   0  0  0  0  0  0  0  0  0  0  0  0
  1  2  1  0  0  0  0
  1 47  1  0  0  0  0
  1 48  1  0  0  0  0
  1 49  1  0  0  0  0
  2  3  2  0  0  0  0
  2  4  1  0  0  0  0
  4  5  1  0  0  0  0
  5  6  2  0  0  0  0
  6  7  1  0  0  0  0
  6 50  1  0  0  0  0
  7  8  2  0  0  0  0
  7 51  1  0  0  0  0
  8  9  1  0  0  0  0
  9 10  2  0  0  0  0
  9 11  1  0  0  0  0
 11 12  2  0  0  0  0
 12 13  1  0  0  0  0
 12 14  1  0  0  0  0
 13 52  1  0  0  0  0
 14 15  1  0  0  0  0
 14 21  2  0  0  0  0
 15 16  1  0  0  0  0
 15 53  1  0  0  0  0
 16 17  1  0  0  0  0
 16 54  1  0  0  0  0
 16 55  1  0  0  0  0
 17 18  1  0  0  0  0
 17 56  1  0  0  0  0
 17 57  1  0  0  0  0
 18 19  1  0  0  0  0
 18 58  1  0  0  0  0
 19 20  1  0  0  0  0
 19 59  1  0  0  0  0
 19 60  1  0  0  0  0
 20 15  1  0  0  0  0
 20 61  1  0  0  0  0
 20 62  1  0  0  0  0
 21 22  1  0  0  0  0
 21 33  1  0  0  0  0
 23 22  1  0  0  0  0
 23 24  1  0  0  0  0
 23 63  1  1  0  0  0
 24 25  1  0  0  0  0
 25 26  1  0  0  0  0
 25 27  1  0  0  0  0
 25 64  1  6  0  0  0
 26 65  1  0  0  0  0
 26 66  1  0  0  0  0
 26 67  1  0  0  0  0
 27 28  1  0  0  0  0
 27 29  1  0  0  0  0
 27 68  1  1  0  0  0
 28 69  1  0  0  0  0
 29 30  1  0  0  0  0
 29 31  1  0  0  0  0
 29 70  1  1  0  0  0
 30 71  1  0  0  0  0
 31 32  1  0  0  0  0
 31 23  1  0  0  0  0
 31 72  1  1  0  0  0
 32 73  1  0  0  0  0
 33 34  2  0  0  0  0
 33 74  1  0  0  0  0
 34 35  1  0  0  0  0
 34 11  1  0  0  0  0
 35 36  2  0  0  0  0
 35 37  1  0  0  0  0
 37 38  2  0  0  0  0
 37  8  1  0  0  0  0
 38 39  1  0  0  0  0
 38  5  1  0  0  0  0
 39 40  2  0  0  0  0
 39 75  1  0  0  0  0
 40 41  1  0  0  0  0
 40 76  1  0  0  0  0
 41 42  2  0  0  0  0
 42 43  1  0  0  0  0
 42 77  1  0  0  0  0
 43 44  2  0  0  0  0
 43 78  1  0  0  0  0
 44 45  1  0  0  0  0
 44 79  1  0  0  0  0
 45 46  2  0  0  0  0
 45 80  1  0  0  0  0
 46 41  1  0  0  0  0
 46 81  1  0  0  0  0
M  END
>  <IDENTIFIER>
CNP0094693.2

>  <Energy>
1046.41

$$$$
