
 OpenBabel09122503273D

107111  0  0  0  0  0  0  0  0999 V2000
    3.0290    0.6490   -1.4627 C   0  0  0  0  0  0  0  0  0  0  0  0
    2.0494   -0.0447   -0.8552 C   0  0  0  0  0  0  0  0  0  0  0  0
    2.3818   -1.4335   -0.3340 C   0  0  1  0  0  0  0  0  0  0  0  0
    3.2679   -1.3020    0.7226 O   0  0  0  0  0  0  0  0  0  0  0  0
    4.5261   -1.8089    0.7909 C   0  0  0  0  0  0  0  0  0  0  0  0
    4.9435   -2.5648   -0.0743 O   0  0  0  0  0  0  0  0  0  0  0  0
    5.4205   -1.4224    1.9056 C   0  0  0  0  0  0  0  0  0  0  0  0
    5.0285   -0.5673    2.8717 C   0  0  0  0  0  0  0  0  0  0  0  0
    5.8832   -0.1149    4.0093 C   0  0  0  0  0  0  0  0  0  0  0  0
    7.2195   -0.5351    4.1890 C   0  0  0  0  0  0  0  0  0  0  0  0
    7.9703   -0.0679    5.2733 C   0  0  0  0  0  0  0  0  0  0  0  0
    7.4049    0.8194    6.1902 C   0  0  0  0  0  0  0  0  0  0  0  0
    6.0857    1.2431    6.0260 C   0  0  0  0  0  0  0  0  0  0  0  0
    5.3294    0.7808    4.9441 C   0  0  0  0  0  0  0  0  0  0  0  0
    1.1085   -2.1483    0.1478 C   0  0  0  0  0  0  0  0  0  0  0  0
   -0.0186   -2.1081   -0.9247 C   0  0  2  0  0  0  0  0  0  0  0  0
    0.2789   -3.0664   -1.8825 O   0  0  0  0  0  0  0  0  0  0  0  0
   -0.4303   -4.1968   -2.1400 C   0  0  0  0  0  0  0  0  0  0  0  0
    0.0845   -5.1632   -3.1577 C   0  0  0  0  0  0  0  0  0  0  0  0
   -1.4708   -4.4417   -1.5472 O   0  0  0  0  0  0  0  0  0  0  0  0
   -0.2483   -0.6610   -1.5891 C   0  0  1  0  0  0  0  0  0  0  0  0
    0.3087   -0.6320   -3.0717 C   0  0  0  0  0  0  0  0  0  0  0  0
   -0.3332   -1.5473   -3.8823 O   0  0  0  0  0  0  0  0  0  0  0  0
   -0.0489   -1.7463   -5.1954 C   0  0  0  0  0  0  0  0  0  0  0  0
   -0.7561   -2.8264   -5.9463 C   0  0  0  0  0  0  0  0  0  0  0  0
    0.7846   -1.0594   -5.7663 O   0  0  0  0  0  0  0  0  0  0  0  0
   -1.7804   -0.3329   -1.6736 C   0  0  1  0  0  0  0  0  0  0  0  0
   -2.5144   -1.2845   -2.3810 O   0  0  0  0  0  0  0  0  0  0  0  0
   -3.1677   -1.0616   -3.5602 C   0  0  0  0  0  0  0  0  0  0  0  0
   -4.0195   -2.1324   -4.1568 C   0  0  0  0  0  0  0  0  0  0  0  0
   -3.0726    0.0080   -4.1459 O   0  0  0  0  0  0  0  0  0  0  0  0
   -2.4701    0.0073   -0.3219 C   0  0  2  0  0  0  0  0  0  0  0  0
   -3.4019   -0.9776   -0.0205 O   0  0  0  0  0  0  0  0  0  0  0  0
   -3.3505   -1.8622    1.0093 C   0  0  0  0  0  0  0  0  0  0  0  0
   -4.4391   -2.8764    1.1500 C   0  0  0  0  0  0  0  0  0  0  0  0
   -2.4309   -1.8472    1.8145 O   0  0  0  0  0  0  0  0  0  0  0  0
   -3.1675    1.4216   -0.3775 C   0  0  2  0  0  0  0  0  0  0  0  0
   -4.3541    1.3194   -1.1392 O   0  0  0  0  0  0  0  0  0  0  0  0
   -2.3315    2.6458   -0.8748 C   0  0  1  0  0  0  0  0  0  0  0  0
   -2.1437    2.9838   -2.3988 C   0  0  0  0  0  0  0  0  0  0  0  0
   -3.2902    3.7680   -0.3866 C   0  0  0  0  0  0  0  0  0  0  0  0
   -3.9581    3.3578    0.7701 O   0  0  0  0  0  0  0  0  0  0  0  0
   -3.5533    2.0364    1.0308 C   0  0  1  0  0  0  0  0  0  0  0  0
   -4.7529    1.3272    1.6962 C   0  0  0  0  0  0  0  0  0  0  0  0
   -2.3773    2.2064    2.0559 C   0  0  1  0  0  0  0  0  0  0  0  0
   -2.3138    1.1347    2.9444 O   0  0  0  0  0  0  0  0  0  0  0  0
   -2.4799    1.2146    4.2940 C   0  0  0  0  0  0  0  0  0  0  0  0
   -2.4062   -0.0254    5.1242 C   0  0  0  0  0  0  0  0  0  0  0  0
   -2.6916    2.2859    4.8445 O   0  0  0  0  0  0  0  0  0  0  0  0
   -0.9927    2.3970    1.3974 C   0  0  0  0  0  0  0  0  0  0  0  0
   -0.9317    2.7061   -0.1418 C   0  0  1  0  0  0  0  0  0  0  0  0
    0.3584    2.0182   -0.8262 C   0  0  1  0  0  0  0  0  0  0  0  0
    1.4256    2.6197   -0.1640 O   0  0  0  0  0  0  0  0  0  0  0  0
    2.1750    3.6542   -0.6395 C   0  0  0  0  0  0  0  0  0  0  0  0
    3.3729    4.1099    0.1264 C   0  0  0  0  0  0  0  0  0  0  0  0
    1.8917    4.2081   -1.6925 O   0  0  0  0  0  0  0  0  0  0  0  0
    0.5839    0.4244   -0.7433 C   0  0  2  0  0  0  0  0  0  0  0  0
    4.0313    0.2374   -1.5361 H   0  0  0  0  0  0  0  0  0  0  0  0
    2.8591    1.6023   -1.9347 H   0  0  0  0  0  0  0  0  0  0  0  0
    2.8072   -2.0287   -1.1737 H   0  0  0  0  0  0  0  0  0  0  0  0
    6.4148   -1.8488    1.9045 H   0  0  0  0  0  0  0  0  0  0  0  0
    4.0198   -0.1641    2.8259 H   0  0  0  0  0  0  0  0  0  0  0  0
    7.7008   -1.2177    3.5064 H   0  0  0  0  0  0  0  0  0  0  0  0
    8.9943   -0.3942    5.4019 H   0  0  0  0  0  0  0  0  0  0  0  0
    7.9897    1.1790    7.0272 H   0  0  0  0  0  0  0  0  0  0  0  0
    5.6483    1.9317    6.7376 H   0  0  0  0  0  0  0  0  0  0  0  0
    4.3081    1.1257    4.8375 H   0  0  0  0  0  0  0  0  0  0  0  0
    0.7466   -1.6500    1.0728 H   0  0  0  0  0  0  0  0  0  0  0  0
    1.3256   -3.1952    0.4533 H   0  0  0  0  0  0  0  0  0  0  0  0
   -0.9278   -2.4034   -0.3603 H   0  0  0  0  0  0  0  0  0  0  0  0
    1.0327   -4.7884   -3.5984 H   0  0  0  0  0  0  0  0  0  0  0  0
   -0.6622   -5.2938   -3.9677 H   0  0  0  0  0  0  0  0  0  0  0  0
    0.2768   -6.1451   -2.6767 H   0  0  0  0  0  0  0  0  0  0  0  0
    1.3903   -0.8755   -3.1005 H   0  0  0  0  0  0  0  0  0  0  0  0
    0.1817    0.3860   -3.5017 H   0  0  0  0  0  0  0  0  0  0  0  0
   -1.4649   -3.3580   -5.2794 H   0  0  0  0  0  0  0  0  0  0  0  0
   -0.0172   -3.5595   -6.3330 H   0  0  0  0  0  0  0  0  0  0  0  0
   -1.3198   -2.3879   -6.7965 H   0  0  0  0  0  0  0  0  0  0  0  0
   -1.7766    0.5639   -2.2460 H   0  0  0  0  0  0  0  0  0  0  0  0
   -3.9981   -3.0424   -3.5231 H   0  0  0  0  0  0  0  0  0  0  0  0
   -3.6491   -2.3825   -5.1723 H   0  0  0  0  0  0  0  0  0  0  0  0
   -5.0652   -1.7680   -4.2390 H   0  0  0  0  0  0  0  0  0  0  0  0
   -1.7080    0.0328    0.4579 H   0  0  0  0  0  0  0  0  0  0  0  0
   -5.1874   -2.7507    0.3385 H   0  0  0  0  0  0  0  0  0  0  0  0
   -4.9463   -2.7497    2.1289 H   0  0  0  0  0  0  0  0  0  0  0  0
   -4.0100   -3.8981    1.0851 H   0  0  0  0  0  0  0  0  0  0  0  0
   -4.1099    1.0955   -2.0699 H   0  0  0  0  0  0  0  0  0  0  0  0
   -3.1145    2.9807   -2.9378 H   0  0  0  0  0  0  0  0  0  0  0  0
   -1.4504    2.3734   -2.9962 H   0  0  0  0  0  0  0  0  0  0  0  0
   -1.7256    4.0105   -2.4895 H   0  0  0  0  0  0  0  0  0  0  0  0
   -4.1050    3.9351   -1.1273 H   0  0  0  0  0  0  0  0  0  0  0  0
   -2.7741    4.7413   -0.2415 H   0  0  0  0  0  0  0  0  0  0  0  0
   -5.0453    1.8639    2.6245 H   0  0  0  0  0  0  0  0  0  0  0  0
   -4.5099    0.2858    1.9744 H   0  0  0  0  0  0  0  0  0  0  0  0
   -5.6344    1.3147    1.0223 H   0  0  0  0  0  0  0  0  0  0  0  0
   -2.5986    3.1384    2.6260 H   0  0  0  0  0  0  0  0  0  0  0  0
   -2.2108   -0.9098    4.4836 H   0  0  0  0  0  0  0  0  0  0  0  0
   -3.3680   -0.1722    5.6593 H   0  0  0  0  0  0  0  0  0  0  0  0
   -1.5868    0.0711    5.8674 H   0  0  0  0  0  0  0  0  0  0  0  0
   -0.5255    1.4320    1.5722 H   0  0  0  0  0  0  0  0  0  0  0  0
   -0.3032    3.0278    1.9986 H   0  0  0  0  0  0  0  0  0  0  0  0
   -0.7043    3.7938   -0.2150 H   0  0  0  0  0  0  0  0  0  0  0  0
    0.4140    2.2999   -1.8948 H   0  0  0  0  0  0  0  0  0  0  0  0
    3.4924    3.5049    1.0494 H   0  0  0  0  0  0  0  0  0  0  0  0
    3.2566    5.1784    0.4024 H   0  0  0  0  0  0  0  0  0  0  0  0
    4.2810    3.9896   -0.5018 H   0  0  0  0  0  0  0  0  0  0  0  0
    0.3979    0.2534    0.3043 H   0  0  0  0  0  0  0  0  0  0  0  0
  1  2  2  0  0  0  0
  1 58  1  0  0  0  0
  1 59  1  0  0  0  0
  2  3  1  0  0  0  0
  3  4  1  0  0  0  0
  3 15  1  0  0  0  0
  3 60  1  6  0  0  0
  4  5  1  0  0  0  0
  5  6  2  0  0  0  0
  5  7  1  0  0  0  0
  7  8  2  0  0  0  0
  7 61  1  0  0  0  0
  8  9  1  0  0  0  0
  8 62  1  0  0  0  0
  9 10  2  0  0  0  0
 10 11  1  0  0  0  0
 10 63  1  0  0  0  0
 11 12  2  0  0  0  0
 11 64  1  0  0  0  0
 12 13  1  0  0  0  0
 12 65  1  0  0  0  0
 13 14  2  0  0  0  0
 13 66  1  0  0  0  0
 14  9  1  0  0  0  0
 14 67  1  0  0  0  0
 15 16  1  0  0  0  0
 15 68  1  0  0  0  0
 15 69  1  0  0  0  0
 16 17  1  0  0  0  0
 16 21  1  0  0  0  0
 16 70  1  1  0  0  0
 17 18  1  0  0  0  0
 18 19  1  0  0  0  0
 18 20  2  0  0  0  0
 19 71  1  0  0  0  0
 19 72  1  0  0  0  0
 19 73  1  0  0  0  0
 21 22  1  6  0  0  0
 21 27  1  0  0  0  0
 22 23  1  0  0  0  0
 22 74  1  0  0  0  0
 22 75  1  0  0  0  0
 23 24  1  0  0  0  0
 24 25  1  0  0  0  0
 24 26  2  0  0  0  0
 25 76  1  0  0  0  0
 25 77  1  0  0  0  0
 25 78  1  0  0  0  0
 27 28  1  0  0  0  0
 27 32  1  0  0  0  0
 27 79  1  6  0  0  0
 28 29  1  0  0  0  0
 29 30  1  0  0  0  0
 29 31  2  0  0  0  0
 30 80  1  0  0  0  0
 30 81  1  0  0  0  0
 30 82  1  0  0  0  0
 32 33  1  0  0  0  0
 32 37  1  0  0  0  0
 32 83  1  1  0  0  0
 33 34  1  0  0  0  0
 34 35  1  0  0  0  0
 34 36  2  0  0  0  0
 35 84  1  0  0  0  0
 35 85  1  0  0  0  0
 35 86  1  0  0  0  0
 37 38  1  6  0  0  0
 37 39  1  0  0  0  0
 38 87  1  0  0  0  0
 39 40  1  6  0  0  0
 39 41  1  0  0  0  0
 40 88  1  0  0  0  0
 40 89  1  0  0  0  0
 40 90  1  0  0  0  0
 41 42  1  0  0  0  0
 41 91  1  0  0  0  0
 41 92  1  0  0  0  0
 42 43  1  0  0  0  0
 43 44  1  1  0  0  0
 43 45  1  0  0  0  0
 43 37  1  0  0  0  0
 44 93  1  0  0  0  0
 44 94  1  0  0  0  0
 44 95  1  0  0  0  0
 45 46  1  0  0  0  0
 45 50  1  0  0  0  0
 45 96  1  1  0  0  0
 46 47  1  0  0  0  0
 47 48  1  0  0  0  0
 47 49  2  0  0  0  0
 48 97  1  0  0  0  0
 48 98  1  0  0  0  0
 48 99  1  0  0  0  0
 50100  1  0  0  0  0
 50101  1  0  0  0  0
 51 50  1  0  0  0  0
 51 52  1  0  0  0  0
 51 39  1  0  0  0  0
 51102  1  6  0  0  0
 52 53  1  0  0  0  0
 52 57  1  0  0  0  0
 52103  1  6  0  0  0
 53 54  1  0  0  0  0
 54 55  1  0  0  0  0
 54 56  2  0  0  0  0
 55104  1  0  0  0  0
 55105  1  0  0  0  0
 55106  1  0  0  0  0
 57  2  1  0  0  0  0
 57 21  1  0  0  0  0
 57107  1  1  0  0  0
M  END
>  <IDENTIFIER>
CNP0531132.1

>  <Energy>
1269.61

$$$$
