
 OpenBabel09062508153D

 40 43  0  0  0  0  0  0  0  0999 V2000
    3.5291   -2.4491   -0.1529 O   0  0  0  0  0  0  0  0  0  0  0  0
    3.1949   -1.3094    0.1355 C   0  0  0  0  0  0  0  0  0  0  0  0
    4.2181   -0.3074    0.6273 C   0  0  0  0  0  0  0  0  0  0  0  0
    4.0132    0.9520   -0.1908 C   0  0  0  0  0  0  0  0  0  0  0  0
    2.7474    1.3863   -0.3776 C   0  0  0  0  0  0  0  0  0  0  0  0
    1.6406    0.5532    0.2474 C   0  0  1  0  0  0  0  0  0  0  0  0
    0.2234    0.9525   -0.1971 C   0  0  2  0  0  0  0  0  0  0  0  0
   -0.1900    2.4050    0.1418 C   0  0  0  0  0  0  0  0  0  0  0  0
   -1.7295    2.5701    0.1661 C   0  0  0  0  0  0  0  0  0  0  0  0
   -2.4130    1.5981   -0.8070 C   0  0  0  0  0  0  0  0  0  0  0  0
   -2.0829    0.1819   -0.4739 N   0  0  2  0  0  0  0  0  0  0  0  0
   -3.2424   -0.6291   -0.0380 C   0  0  0  0  0  0  0  0  0  0  0  0
   -2.8211   -1.9880    0.5689 C   0  0  0  0  0  0  0  0  0  0  0  0
   -1.5522   -2.4739   -0.1340 C   0  0  0  0  0  0  0  0  0  0  0  0
   -0.3913   -1.5296    0.2596 C   0  0  1  0  0  0  0  0  0  0  0  0
    0.8553   -1.7116   -0.6169 C   0  0  0  0  0  0  0  0  0  0  0  0
    1.9137   -0.8582   -0.0731 N   0  0  0  0  0  0  0  0  0  0  0  0
   -0.8482   -0.0299    0.3228 C   0  0  1  0  0  0  0  0  0  0  0  0
    5.2628   -0.6833    0.5903 H   0  0  0  0  0  0  0  0  0  0  0  0
    3.9704   -0.0673    1.6836 H   0  0  0  0  0  0  0  0  0  0  0  0
    4.8487    1.4545   -0.6675 H   0  0  0  0  0  0  0  0  0  0  0  0
    2.5442    2.2451   -1.0090 H   0  0  0  0  0  0  0  0  0  0  0  0
    1.7132    0.6698    1.3526 H   0  0  0  0  0  0  0  0  0  0  0  0
    0.2025    0.8487   -1.3071 H   0  0  0  0  0  0  0  0  0  0  0  0
    0.2717    3.0653   -0.6234 H   0  0  0  0  0  0  0  0  0  0  0  0
    0.1805    2.7241    1.1404 H   0  0  0  0  0  0  0  0  0  0  0  0
   -2.0040    3.6317   -0.0116 H   0  0  0  0  0  0  0  0  0  0  0  0
   -2.1082    2.2961    1.1756 H   0  0  0  0  0  0  0  0  0  0  0  0
   -2.0584    1.8181   -1.8369 H   0  0  0  0  0  0  0  0  0  0  0  0
   -3.5121    1.7699   -0.7966 H   0  0  0  0  0  0  0  0  0  0  0  0
   -3.8348   -0.8343   -0.9562 H   0  0  0  0  0  0  0  0  0  0  0  0
   -3.8973   -0.0893    0.6808 H   0  0  0  0  0  0  0  0  0  0  0  0
   -3.6641   -2.7058    0.4765 H   0  0  0  0  0  0  0  0  0  0  0  0
   -2.5873   -1.8765    1.6513 H   0  0  0  0  0  0  0  0  0  0  0  0
   -1.7355   -2.4568   -1.2315 H   0  0  0  0  0  0  0  0  0  0  0  0
   -1.2899   -3.5131    0.1601 H   0  0  0  0  0  0  0  0  0  0  0  0
   -0.0736   -1.7981    1.2944 H   0  0  0  0  0  0  0  0  0  0  0  0
    0.6114   -1.3971   -1.6547 H   0  0  0  0  0  0  0  0  0  0  0  0
    1.1656   -2.7782   -0.6510 H   0  0  0  0  0  0  0  0  0  0  0  0
   -1.0717    0.1854    1.3944 H   0  0  0  0  0  0  0  0  0  0  0  0
  1  2  2  0  0  0  0
  2  3  1  0  0  0  0
  3  4  1  0  0  0  0
  3 19  1  0  0  0  0
  3 20  1  0  0  0  0
  4  5  2  0  0  0  0
  4 21  1  0  0  0  0
  5 22  1  0  0  0  0
  6  5  1  0  0  0  0
  6  7  1  0  0  0  0
  6 23  1  1  0  0  0
  7  8  1  0  0  0  0
  7 24  1  6  0  0  0
  8  9  1  0  0  0  0
  8 25  1  0  0  0  0
  8 26  1  0  0  0  0
  9 10  1  0  0  0  0
  9 27  1  0  0  0  0
  9 28  1  0  0  0  0
 10 29  1  0  0  0  0
 10 30  1  0  0  0  0
 11 10  1  1  0  0  0
 11 12  1  0  0  0  0
 12 13  1  0  0  0  0
 12 31  1  0  0  0  0
 12 32  1  0  0  0  0
 13 14  1  0  0  0  0
 13 33  1  0  0  0  0
 13 34  1  0  0  0  0
 14 35  1  0  0  0  0
 14 36  1  0  0  0  0
 15 14  1  0  0  0  0
 15 16  1  0  0  0  0
 15 18  1  0  0  0  0
 15 37  1  1  0  0  0
 16 17  1  0  0  0  0
 16 38  1  0  0  0  0
 16 39  1  0  0  0  0
 17  2  1  0  0  0  0
 17  6  1  0  0  0  0
 18  7  1  0  0  0  0
 18 11  1  0  0  0  0
 18 40  1  1  0  0  0
M  END
>  <IDENTIFIER>
CNP0185440.2

>  <Energy>
518.218

$$$$
