
 OpenBabel09112504172D

154153  0  0  0  0  0  0  0  0999 V2000
   14.2500    1.2990    0.0000 C   0  0  0  0  0  0  0  0  0  0  0  0
   12.7500    1.2990    0.0000 C   0  0  0  0  0  2  0  0  0  0  0  0
   11.2500    1.2990    0.0000 C   0  0  0  0  0  2  0  0  0  0  0  0
    9.7500    1.2990    0.0000 C   0  0  0  0  0  2  0  0  0  0  0  0
    8.2500    1.2990    0.0000 C   0  0  0  0  0  2  0  0  0  0  0  0
    6.7500    1.2990    0.0000 C   0  0  0  0  0  2  0  0  0  0  0  0
    5.2500    1.2990    0.0000 C   0  0  0  0  0  2  0  0  0  0  0  0
    3.7500    1.2990    0.0000 C   0  0  0  0  0  2  0  0  0  0  0  0
    2.2500    1.2990    0.0000 C   0  0  0  0  0  0  0  0  0  0  0  0
    1.9722   -0.1071    0.0006 C   0  0  0  0  0  0  0  0  0  0  0  0
    3.1717   -1.2464   -0.0026 C   0  0  0  0  0  0  0  0  0  0  0  0
    3.1318   -2.8439    0.0011 C   0  0  0  0  0  0  0  0  0  0  0  0
    4.5930   -3.5982   -0.0141 C   0  0  0  0  0  0  0  0  0  0  0  0
    4.5000   -5.1962    0.0000 C   0  0  0  0  0  0  0  0  0  0  0  0
    5.2500   -6.4952    0.0000 C   0  0  0  0  0  0  0  0  0  0  0  0
    6.0000   -7.7942    0.0000 C   0  0  0  0  0  0  0  0  0  0  0  0
    6.7500   -9.0933    0.0000 C   0  0  0  0  0  0  0  0  0  0  0  0
    7.5000  -10.3923    0.0000 C   0  0  0  0  0  0  0  0  0  0  0  0
    8.2500  -11.6913    0.0000 C   0  0  0  0  0  0  0  0  0  0  0  0
    7.9823  -13.3062    0.2075 C   0  0  0  0  0  0  0  0  0  0  0  0
    9.3208  -14.2929    0.1208 C   0  0  0  0  0  0  0  0  0  0  0  0
    9.3713  -15.8306    0.6319 C   0  0  0  0  0  0  0  0  0  0  0  0
    8.8377  -16.0253    1.7142 O   0  0  0  0  0  0  0  0  0  0  0  0
   10.1312  -16.9147    0.0678 O   0  0  0  0  0  0  0  0  0  0  0  0
   10.4692  -18.1546    0.7673 C   0  0  0  0  0  0  0  0  0  0  0  0
   11.2500  -19.4856    0.0000 C   0  0  1  0  0  0  0  0  0  0  0  0
    9.9510  -20.2356    0.0000 C   0  0  0  0  0  0  0  0  0  0  0  0
    8.5343  -20.0781   -0.1843 O   0  0  0  0  0  0  0  0  0  0  0  0
    7.6162  -21.1788   -0.0739 C   0  0  0  0  0  0  0  0  0  0  0  0
    8.0452  -22.3221   -0.0335 O   0  0  0  0  0  0  0  0  0  0  0  0
    6.0538  -20.9856    0.0000 C   0  0  0  0  0  0  0  0  0  0  0  0
    4.7548  -21.7356    0.0000 C   0  0  0  0  0  0  0  0  0  0  0  0
    3.4558  -22.4856    0.0000 C   0  0  0  0  0  0  0  0  0  0  0  0
    2.5393  -22.2860   -1.2105 C   0  0  0  0  0  0  0  0  0  0  0  0
    1.1357  -22.8648   -0.9406 C   0  0  0  0  0  2  0  0  0  0  0  0
    0.9310  -24.3978   -0.8461 C   0  0  0  0  0  0  0  0  0  0  0  0
   -0.5339  -24.6132   -0.4236 C   0  0  0  0  0  0  0  0  0  0  0  0
   -1.1138  -26.0632   -0.3616 C   0  0  0  0  0  0  0  0  0  0  0  0
   -2.5837  -25.8978    0.0856 C   0  0  0  0  0  0  0  0  0  0  0  0
   -3.6647  -26.9580    0.1456 C   0  0  0  0  0  0  0  0  0  0  0  0
   -3.8229  -28.2837   -0.0587 C   0  0  0  0  0  0  0  0  0  0  0  0
   -2.9771  -29.4763   -0.4286 C   0  0  0  0  0  0  0  0  0  0  0  0
   -1.4722  -29.5824   -0.1450 C   0  0  0  0  0  0  0  0  0  0  0  0
   -1.0807  -31.0493   -0.4680 C   0  0  0  0  0  0  0  0  0  0  0  0
    0.3434  -31.4715   -0.1086 C   0  0  0  0  0  0  0  0  0  0  0  0
    0.4680  -32.9547   -0.4883 C   0  0  0  0  0  2  0  0  0  0  0  0
    1.6272  -33.7234    0.1413 C   0  0  0  0  0  0  0  0  0  0  0  0
    2.9943  -33.2159   -0.3170 C   0  0  0  0  0  0  0  0  0  0  0  0
    4.1088  -34.0879    0.2581 C   0  0  0  0  0  0  0  0  0  0  0  0
   12.5490  -18.7356    0.0000 O   0  0  0  0  0  0  0  0  0  0  0  0
   13.9242  -18.9068    0.0269 C   0  0  0  0  0  0  0  0  0  0  0  0
   14.3856  -20.0367    0.0570 O   0  0  0  0  0  0  0  0  0  0  0  0
   14.8999  -17.6404    0.0018 C   0  0  0  0  0  0  0  0  0  0  0  0
   16.4462  -17.9856    0.0000 C   0  0  0  0  0  0  0  0  0  0  0  0
   17.7452  -17.2356    0.0000 C   0  0  0  0  0  2  0  0  0  0  0  0
   19.0442  -16.4856    0.0000 C   0  0  0  0  0  0  0  0  0  0  0  0
   20.3433  -15.7356    0.0000 C   0  0  0  0  0  0  0  0  0  0  0  0
   21.6423  -14.9856    0.0000 C   0  0  0  0  0  2  0  0  0  0  0  0
   22.9413  -14.2356    0.0000 C   0  0  0  0  0  0  0  0  0  0  0  0
   24.5887  -13.9052   -0.0065 C   0  0  0  0  0  0  0  0  0  0  0  0
   25.1912  -12.3163    0.0065 C   0  0  0  0  0  0  0  0  0  0  0  0
   26.8385  -11.9856    0.0000 C   0  0  0  0  0  0  0  0  0  0  0  0
   28.1375  -11.2356    0.0000 C   0  0  0  0  0  2  0  0  0  0  0  0
   29.4365  -10.4856    0.0000 C   0  0  0  0  0  0  0  0  0  0  0  0
   30.6165  -11.4552   -0.0718 C   0  0  0  0  0  0  0  0  0  0  0  0
   31.9432  -10.7006   -0.0712 C   0  0  0  0  0  0  0  0  0  0  0  0
   14.3302    0.3931   -0.6354 H   0  0  0  0  0  0  0  0  0  0  0  0
   14.3302    2.2048   -0.6356 H   0  0  0  0  0  0  0  0  0  0  0  0
   15.3200    1.2990    0.0000 H   0  0  0  0  0  0  0  0  0  0  0  0
    1.5469    2.1245    0.0018 H   0  0  0  0  0  0  0  0  0  0  0  0
    0.9400   -0.4396    0.0029 H   0  0  0  0  0  0  0  0  0  0  0  0
    3.7850   -1.0321    0.9000 H   0  0  0  0  0  0  0  0  0  0  0  0
    3.7767   -1.0335   -0.9111 H   0  0  0  0  0  0  0  0  0  0  0  0
    2.5584   -3.1737   -0.8908 H   0  0  0  0  0  0  0  0  0  0  0  0
    2.5771   -3.1693    0.9066 H   0  0  0  0  0  0  0  0  0  0  0  0
    5.1450   -3.2850   -0.9251 H   0  0  0  0  0  0  0  0  0  0  0  0
    5.1740   -3.2727    0.8748 H   0  0  0  0  0  0  0  0  0  0  0  0
    3.8516   -5.3376    0.8981 H   0  0  0  0  0  0  0  0  0  0  0  0
    3.7798   -5.3512   -0.8447 H   0  0  0  0  0  0  0  0  0  0  0  0
    5.6984   -6.0690   -0.9559 H   0  0  0  0  0  0  0  0  0  0  0  0
    5.8088   -6.1555    0.9106 H   0  0  0  0  0  0  0  0  0  0  0  0
    5.4668   -8.0827   -0.9555 H   0  0  0  0  0  0  0  0  0  0  0  0
    6.9975   -7.3236   -0.3009 H   0  0  0  0  0  0  0  0  0  0  0  0
    5.7596   -9.5585    0.3257 H   0  0  0  0  0  0  0  0  0  0  0  0
    7.3006   -8.7948    0.9462 H   0  0  0  0  0  0  0  0  0  0  0  0
    7.1136  -10.7819    0.9968 H   0  0  0  0  0  0  0  0  0  0  0  0
    6.8884  -10.7715   -0.8600 H   0  0  0  0  0  0  0  0  0  0  0  0
    9.0528  -11.5121    0.7581 H   0  0  0  0  0  0  0  0  0  0  0  0
    8.8119  -11.6665   -0.9640 H   0  0  0  0  0  0  0  0  0  0  0  0
    7.5442  -13.4255    1.2193 H   0  0  0  0  0  0  0  0  0  0  0  0
    7.2352  -13.6593   -0.5353 H   0  0  0  0  0  0  0  0  0  0  0  0
    9.7704  -14.2322   -0.8922 H   0  0  0  0  0  0  0  0  0  0  0  0
   10.0411  -13.7915    0.8003 H   0  0  0  0  0  0  0  0  0  0  0  0
   11.1196  -17.8707    1.6268 H   0  0  0  0  0  0  0  0  0  0  0  0
    9.5623  -18.4247    1.3658 H   0  0  0  0  0  0  0  0  0  0  0  0
   11.0897  -19.3157   -1.0904 H   0  0  0  0  0  0  0  0  0  0  0  0
   10.0077  -20.6819    1.0212 H   0  0  0  0  0  0  0  0  0  0  0  0
   10.2037  -21.1273   -0.6278 H   0  0  0  0  0  0  0  0  0  0  0  0
    5.9541  -20.3041    0.8772 H   0  0  0  0  0  0  0  0  0  0  0  0
    5.9049  -20.3133   -0.8772 H   0  0  0  0  0  0  0  0  0  0  0  0
    5.0810  -22.2585    0.9334 H   0  0  0  0  0  0  0  0  0  0  0  0
    5.0986  -22.3039   -0.8982 H   0  0  0  0  0  0  0  0  0  0  0  0
    3.6196  -23.5869    0.1125 H   0  0  0  0  0  0  0  0  0  0  0  0
    2.8944  -22.1379    0.8992 H   0  0  0  0  0  0  0  0  0  0  0  0
    2.9802  -22.7202   -2.1324 H   0  0  0  0  0  0  0  0  0  0  0  0
    2.4029  -21.1941   -1.3632 H   0  0  0  0  0  0  0  0  0  0  0  0
    1.1183  -24.8544   -1.8403 H   0  0  0  0  0  0  0  0  0  0  0  0
    1.6057  -24.8520   -0.0906 H   0  0  0  0  0  0  0  0  0  0  0  0
   -0.6570  -24.1415    0.5784 H   0  0  0  0  0  0  0  0  0  0  0  0
   -1.1572  -24.0445   -1.1507 H   0  0  0  0  0  0  0  0  0  0  0  0
   -1.0689  -26.5199   -1.3727 H   0  0  0  0  0  0  0  0  0  0  0  0
   -0.5548  -26.6917    0.3641 H   0  0  0  0  0  0  0  0  0  0  0  0
   -2.5681  -25.4334    1.0963 H   0  0  0  0  0  0  0  0  0  0  0  0
   -3.0282  -25.1571   -0.6159 H   0  0  0  0  0  0  0  0  0  0  0  0
   -4.6045  -26.4771    0.4136 H   0  0  0  0  0  0  0  0  0  0  0  0
   -4.8626  -28.5949    0.0524 H   0  0  0  0  0  0  0  0  0  0  0  0
   -3.4300  -30.2778    0.2010 H   0  0  0  0  0  0  0  0  0  0  0  0
   -3.2098  -29.7535   -1.4791 H   0  0  0  0  0  0  0  0  0  0  0  0
   -1.2849  -29.3735    0.9303 H   0  0  0  0  0  0  0  0  0  0  0  0
   -0.8917  -28.8807   -0.7741 H   0  0  0  0  0  0  0  0  0  0  0  0
   -1.2534  -31.2338   -1.5525 H   0  0  0  0  0  0  0  0  0  0  0  0
   -1.7515  -31.7290    0.1082 H   0  0  0  0  0  0  0  0  0  0  0  0
    0.4922  -31.3464    0.9855 H   0  0  0  0  0  0  0  0  0  0  0  0
    1.0913  -30.8677   -0.6629 H   0  0  0  0  0  0  0  0  0  0  0  0
    1.5448  -33.6818    1.2490 H   0  0  0  0  0  0  0  0  0  0  0  0
    1.5148  -34.7844   -0.1719 H   0  0  0  0  0  0  0  0  0  0  0  0
    3.0521  -33.2492   -1.4266 H   0  0  0  0  0  0  0  0  0  0  0  0
    3.1385  -32.1686    0.0226 H   0  0  0  0  0  0  0  0  0  0  0  0
    4.0777  -34.0758    1.3686 H   0  0  0  0  0  0  0  0  0  0  0  0
    5.0949  -33.7046   -0.0770 H   0  0  0  0  0  0  0  0  0  0  0  0
    3.9983  -35.1363   -0.0950 H   0  0  0  0  0  0  0  0  0  0  0  0
   14.6776  -17.0460   -0.9091 H   0  0  0  0  0  0  0  0  0  0  0  0
   14.6792  -17.0135    0.8910 H   0  0  0  0  0  0  0  0  0  0  0  0
   16.5656  -18.6417    0.8880 H   0  0  0  0  0  0  0  0  0  0  0  0
   16.5652  -18.6572   -0.8764 H   0  0  0  0  0  0  0  0  0  0  0  0
   18.6750  -15.9300   -0.8959 H   0  0  0  0  0  0  0  0  0  0  0  0
   18.6750  -15.9300    0.8959 H   0  0  0  0  0  0  0  0  0  0  0  0
   20.7124  -16.2912    0.8960 H   0  0  0  0  0  0  0  0  0  0  0  0
   20.7124  -16.2912   -0.8960 H   0  0  0  0  0  0  0  0  0  0  0  0
   22.6918  -13.6022   -0.8767 H   0  0  0  0  0  0  0  0  0  0  0  0
   22.7025  -13.6208    0.8928 H   0  0  0  0  0  0  0  0  0  0  0  0
   25.0204  -14.4169    0.8792 H   0  0  0  0  0  0  0  0  0  0  0  0
   25.0096  -14.3981   -0.9079 H   0  0  0  0  0  0  0  0  0  0  0  0
   24.7702  -11.8234    0.9079 H   0  0  0  0  0  0  0  0  0  0  0  0
   24.7594  -11.8047   -0.8792 H   0  0  0  0  0  0  0  0  0  0  0  0
   27.0777  -12.6005   -0.8927 H   0  0  0  0  0  0  0  0  0  0  0  0
   27.0884  -12.6190    0.8766 H   0  0  0  0  0  0  0  0  0  0  0  0
   29.4958   -9.8809    0.9300 H   0  0  0  0  0  0  0  0  0  0  0  0
   29.4507   -9.8019   -0.8754 H   0  0  0  0  0  0  0  0  0  0  0  0
   30.5912  -12.1403    0.8039 H   0  0  0  0  0  0  0  0  0  0  0  0
   30.5466  -12.0607   -1.0021 H   0  0  0  0  0  0  0  0  0  0  0  0
   32.7839  -11.4239   -0.1238 H   0  0  0  0  0  0  0  0  0  0  0  0
   32.0017  -10.0222   -0.9491 H   0  0  0  0  0  0  0  0  0  0  0  0
   32.0462  -10.1022    0.8593 H   0  0  0  0  0  0  0  0  0  0  0  0
  1  2  1  0  0  0  0
  1 67  1  0  0  0  0
  1 68  1  0  0  0  0
  1 69  1  0  0  0  0
  2  3  1  0  0  0  0
  3  4  1  0  0  0  0
  4  5  1  0  0  0  0
  5  6  1  0  0  0  0
  6  7  1  0  0  0  0
  7  8  1  0  0  0  0
  8  9  1  0  0  0  0
  9 10  2  0  0  0  0
  9 70  1  0  0  0  0
 10 11  1  0  0  0  0
 10 71  1  0  0  0  0
 11 12  1  0  0  0  0
 11 72  1  0  0  0  0
 11 73  1  0  0  0  0
 12 13  1  0  0  0  0
 12 74  1  0  0  0  0
 12 75  1  0  0  0  0
 13 14  1  0  0  0  0
 13 76  1  0  0  0  0
 13 77  1  0  0  0  0
 14 15  1  0  0  0  0
 14 78  1  0  0  0  0
 14 79  1  0  0  0  0
 15 16  1  0  0  0  0
 15 80  1  0  0  0  0
 15 81  1  0  0  0  0
 16 17  1  0  0  0  0
 16 82  1  0  0  0  0
 16 83  1  0  0  0  0
 17 18  1  0  0  0  0
 17 84  1  0  0  0  0
 17 85  1  0  0  0  0
 18 19  1  0  0  0  0
 18 86  1  0  0  0  0
 18 87  1  0  0  0  0
 19 20  1  0  0  0  0
 19 88  1  0  0  0  0
 19 89  1  0  0  0  0
 20 21  1  0  0  0  0
 20 90  1  0  0  0  0
 20 91  1  0  0  0  0
 21 22  1  0  0  0  0
 21 92  1  0  0  0  0
 21 93  1  0  0  0  0
 22 23  2  0  0  0  0
 22 24  1  0  0  0  0
 24 25  1  0  0  0  0
 25 94  1  0  0  0  0
 25 95  1  0  0  0  0
 26 25  1  0  0  0  0
 26 27  1  0  0  0  0
 26 50  1  0  0  0  0
 26 96  1  1  0  0  0
 27 28  1  0  0  0  0
 27 97  1  0  0  0  0
 27 98  1  0  0  0  0
 28 29  1  0  0  0  0
 29 30  2  0  0  0  0
 29 31  1  0  0  0  0
 31 32  1  0  0  0  0
 31 99  1  0  0  0  0
 31100  1  0  0  0  0
 32 33  1  0  0  0  0
 32101  1  0  0  0  0
 32102  1  0  0  0  0
 33 34  1  0  0  0  0
 33103  1  0  0  0  0
 33104  1  0  0  0  0
 34 35  1  0  0  0  0
 34105  1  0  0  0  0
 34106  1  0  0  0  0
 35 36  1  0  0  0  0
 36 37  1  0  0  0  0
 36107  1  0  0  0  0
 36108  1  0  0  0  0
 37 38  1  0  0  0  0
 37109  1  0  0  0  0
 37110  1  0  0  0  0
 38 39  1  0  0  0  0
 38111  1  0  0  0  0
 38112  1  0  0  0  0
 39 40  1  0  0  0  0
 39113  1  0  0  0  0
 39114  1  0  0  0  0
 40 41  2  0  0  0  0
 40115  1  0  0  0  0
 41 42  1  0  0  0  0
 41116  1  0  0  0  0
 42 43  1  0  0  0  0
 42117  1  0  0  0  0
 42118  1  0  0  0  0
 43 44  1  0  0  0  0
 43119  1  0  0  0  0
 43120  1  0  0  0  0
 44 45  1  0  0  0  0
 44121  1  0  0  0  0
 44122  1  0  0  0  0
 45 46  1  0  0  0  0
 45123  1  0  0  0  0
 45124  1  0  0  0  0
 46 47  1  0  0  0  0
 47 48  1  0  0  0  0
 47125  1  0  0  0  0
 47126  1  0  0  0  0
 48 49  1  0  0  0  0
 48127  1  0  0  0  0
 48128  1  0  0  0  0
 49129  1  0  0  0  0
 49130  1  0  0  0  0
 49131  1  0  0  0  0
 50 51  1  0  0  0  0
 51 52  2  0  0  0  0
 51 53  1  0  0  0  0
 53 54  1  0  0  0  0
 53132  1  0  0  0  0
 53133  1  0  0  0  0
 54 55  1  0  0  0  0
 54134  1  0  0  0  0
 54135  1  0  0  0  0
 55 56  1  0  0  0  0
 56 57  1  0  0  0  0
 56136  1  0  0  0  0
 56137  1  0  0  0  0
 57 58  1  0  0  0  0
 57138  1  0  0  0  0
 57139  1  0  0  0  0
 58 59  1  0  0  0  0
 59 60  1  0  0  0  0
 59140  1  0  0  0  0
 59141  1  0  0  0  0
 60 61  1  0  0  0  0
 60142  1  0  0  0  0
 60143  1  0  0  0  0
 61 62  1  0  0  0  0
 61144  1  0  0  0  0
 61145  1  0  0  0  0
 62 63  1  0  0  0  0
 62146  1  0  0  0  0
 62147  1  0  0  0  0
 63 64  1  0  0  0  0
 64 65  1  0  0  0  0
 64148  1  0  0  0  0
 64149  1  0  0  0  0
 65 66  1  0  0  0  0
 65150  1  0  0  0  0
 65151  1  0  0  0  0
 66152  1  0  0  0  0
 66153  1  0  0  0  0
 66154  1  0  0  0  0
M  END
>  <IDENTIFIER>
CNP0539868.1

>  <Energy>
8778.94

$$$$
