
 OpenBabel09102508453D

 42 47  0  0  0  0  0  0  0  0999 V2000
    0.2931    3.6487    0.0536 C   0  0  0  0  0  0  0  0  0  0  0  0
    0.9249    2.3524    0.3706 N   0  3  1  0  0  0  0  0  0  0  0  0
    2.1802    2.6548    0.8025 O   0  5  0  0  0  0  0  0  0  0  0  0
    0.2157    1.6764    1.5142 C   0  0  0  0  0  0  0  0  0  0  0  0
   -0.1071    0.1824    1.2662 C   0  0  1  0  0  0  0  0  0  0  0  0
   -1.2980    0.0155    0.3439 C   0  0  0  0  0  0  0  0  0  0  0  0
   -2.4275   -0.6827    0.8440 C   0  0  0  0  0  0  0  0  0  0  0  0
   -3.5174   -0.8709    0.0067 C   0  0  0  0  0  0  0  0  0  0  0  0
   -3.5375   -0.4097   -1.2539 C   0  0  0  0  0  0  0  0  0  0  0  0
   -2.4690    0.2857   -1.8015 C   0  0  0  0  0  0  0  0  0  0  0  0
   -1.3221    0.5080   -1.0017 C   0  0  0  0  0  0  0  0  0  0  0  0
   -0.1815    1.2459   -1.6635 C   0  0  0  0  0  0  0  0  0  0  0  0
    1.1082    1.4877   -0.8414 C   0  0  2  0  0  0  0  0  0  0  0  0
    1.7120    0.1664   -0.4180 C   0  0  0  0  0  0  0  0  0  0  0  0
    2.8680   -0.3781   -1.0150 C   0  0  0  0  0  0  0  0  0  0  0  0
    3.3456   -1.5827   -0.5018 C   0  0  0  0  0  0  0  0  0  0  0  0
    2.7540   -2.2089    0.5397 C   0  0  0  0  0  0  0  0  0  0  0  0
    1.6247   -1.6951    1.1726 C   0  0  0  0  0  0  0  0  0  0  0  0
    1.0950   -0.4893    0.6699 C   0  0  0  0  0  0  0  0  0  0  0  0
    3.4237   -3.3297    0.8179 O   0  0  0  0  0  0  0  0  0  0  0  0
    4.4804   -3.4222   -0.0851 C   0  0  0  0  0  0  0  0  0  0  0  0
    4.4013   -2.2960   -0.9012 O   0  0  0  0  0  0  0  0  0  0  0  0
   -4.6975   -0.7388   -1.8276 O   0  0  0  0  0  0  0  0  0  0  0  0
   -5.4435   -1.4448   -0.8869 C   0  0  0  0  0  0  0  0  0  0  0  0
   -4.6641   -1.5044    0.2655 O   0  0  0  0  0  0  0  0  0  0  0  0
    0.3222    4.3208    0.9407 H   0  0  0  0  0  0  0  0  0  0  0  0
   -0.7741    3.5226   -0.2278 H   0  0  0  0  0  0  0  0  0  0  0  0
    0.8320    4.1583   -0.7760 H   0  0  0  0  0  0  0  0  0  0  0  0
   -0.7242    2.1983    1.8083 H   0  0  0  0  0  0  0  0  0  0  0  0
    0.8626    1.7193    2.4218 H   0  0  0  0  0  0  0  0  0  0  0  0
   -0.3611   -0.2891    2.2424 H   0  0  0  0  0  0  0  0  0  0  0  0
   -2.4549   -1.0786    1.8516 H   0  0  0  0  0  0  0  0  0  0  0  0
   -2.5199    0.6379   -2.8246 H   0  0  0  0  0  0  0  0  0  0  0  0
   -0.5604    2.2185   -2.0404 H   0  0  0  0  0  0  0  0  0  0  0  0
    0.1103    0.6565   -2.5613 H   0  0  0  0  0  0  0  0  0  0  0  0
    1.8055    1.9910   -1.5516 H   0  0  0  0  0  0  0  0  0  0  0  0
    3.3661    0.1119   -1.8415 H   0  0  0  0  0  0  0  0  0  0  0  0
    1.1720   -2.2103    2.0099 H   0  0  0  0  0  0  0  0  0  0  0  0
    4.3792   -4.3442   -0.6962 H   0  0  0  0  0  0  0  0  0  0  0  0
    5.4476   -3.4305    0.4605 H   0  0  0  0  0  0  0  0  0  0  0  0
   -5.6531   -2.4708   -1.2585 H   0  0  0  0  0  0  0  0  0  0  0  0
   -6.3953   -0.9133   -0.6769 H   0  0  0  0  0  0  0  0  0  0  0  0
  1 26  1  0  0  0  0
  1 27  1  0  0  0  0
  1 28  1  0  0  0  0
  2  1  1  0  0  0  0
  2  3  1  1  0  0  0
  2  4  1  0  0  0  0
  4 29  1  0  0  0  0
  4 30  1  0  0  0  0
  5  4  1  0  0  0  0
  5  6  1  0  0  0  0
  5 31  1  1  0  0  0
  6  7  2  0  0  0  0
  7  8  1  0  0  0  0
  7 32  1  0  0  0  0
  8  9  2  0  0  0  0
  9 10  1  0  0  0  0
  9 23  1  0  0  0  0
 10 11  2  0  0  0  0
 10 33  1  0  0  0  0
 11 12  1  0  0  0  0
 11  6  1  0  0  0  0
 12 34  1  0  0  0  0
 12 35  1  0  0  0  0
 13 12  1  0  0  0  0
 13 14  1  0  0  0  0
 13  2  1  0  0  0  0
 13 36  1  6  0  0  0
 14 15  2  0  0  0  0
 15 16  1  0  0  0  0
 15 37  1  0  0  0  0
 16 17  2  0  0  0  0
 17 18  1  0  0  0  0
 17 20  1  0  0  0  0
 18 19  2  0  0  0  0
 18 38  1  0  0  0  0
 19 14  1  0  0  0  0
 19  5  1  0  0  0  0
 20 21  1  0  0  0  0
 21 22  1  0  0  0  0
 21 39  1  0  0  0  0
 21 40  1  0  0  0  0
 22 16  1  0  0  0  0
 23 24  1  0  0  0  0
 24 25  1  0  0  0  0
 24 41  1  0  0  0  0
 24 42  1  0  0  0  0
 25  8  1  0  0  0  0
M  CHG  2   2   1   3  -1
M  END
>  <IDENTIFIER>
CNP0513650.1

>  <Energy>
564.468

$$$$
