
 OpenBabel09112519053D

 81 85  0  0  0  0  0  0  0  0999 V2000
    4.8714    0.7167   -1.6828 C   0  0  0  0  0  0  0  0  0  0  0  0
    3.7669    0.9377   -0.6318 C   0  0  2  0  0  0  0  0  0  0  0  0
    4.2049    0.5272    0.7997 C   0  0  2  0  0  0  0  0  0  0  0  0
    5.4719    1.2792    1.3114 C   0  0  0  0  0  0  0  0  0  0  0  0
    6.7691    0.4773    1.1298 C   0  0  0  0  0  0  0  0  0  0  0  0
    6.5857   -0.8444    1.8780 C   0  0  2  0  0  0  0  0  0  0  0  0
    7.8677   -1.6844    1.8837 C   0  0  0  0  0  0  0  0  0  0  0  0
    5.4025   -1.5564    1.2630 C   0  0  0  0  0  0  0  0  0  0  0  0
    5.4531   -2.7533    1.0171 O   0  0  0  0  0  0  0  0  0  0  0  0
    4.2938   -0.8581    0.9105 O   0  0  0  0  0  0  0  0  0  0  0  0
    2.4134    0.3386   -1.1682 C   0  0  1  0  0  0  0  0  0  0  0  0
    2.3940   -1.0809   -1.8143 C   0  0  0  0  0  0  0  0  0  0  0  0
    0.8885   -1.5171   -1.8477 C   0  0  0  0  0  0  0  0  0  0  0  0
    0.0987   -0.2436   -1.4758 C   0  0  1  0  0  0  0  0  0  0  0  0
   -0.1023    0.5733   -2.8067 C   0  0  0  0  0  0  0  0  0  0  0  0
   -1.3179   -0.4003   -0.8929 C   0  0  0  0  0  0  0  0  0  0  0  0
   -1.7503    0.4424    0.1169 C   0  0  0  0  0  0  0  0  0  0  0  0
   -0.8296    1.5392    0.7104 C   0  0  0  0  0  0  0  0  0  0  0  0
    0.5354    1.7182    0.0209 C   0  0  0  0  0  0  0  0  0  0  0  0
    1.0753    0.3510   -0.3839 C   0  0  2  0  0  0  0  0  0  0  0  0
    1.1669   -0.5703    0.9043 C   0  0  0  0  0  0  0  0  0  0  0  0
   -3.1530    0.2587    0.7403 C   0  0  1  0  0  0  0  0  0  0  0  0
   -2.9326   -0.7707    1.8931 C   0  0  0  0  0  0  0  0  0  0  0  0
   -3.6700    1.5882    1.3748 C   0  0  0  0  0  0  0  0  0  0  0  0
   -5.1294    1.4992    1.8479 C   0  0  0  0  0  0  0  0  0  0  0  0
   -6.0678    1.1941    0.6672 C   0  0  1  0  0  0  0  0  0  0  0  0
   -6.1031    2.2946   -0.2167 O   0  0  0  0  0  0  0  0  0  0  0  0
   -5.7042   -0.1602   -0.0420 C   0  0  0  0  0  0  0  0  0  0  0  0
   -6.5509   -0.2644   -1.3407 C   0  0  0  0  0  0  0  0  0  0  0  0
   -6.1585   -1.3482    0.8495 C   0  0  0  0  0  0  0  0  0  0  0  0
   -4.1544   -0.1820   -0.4061 C   0  0  2  0  0  0  0  0  0  0  0  0
   -3.6649   -1.5291   -0.9743 C   0  0  0  0  0  0  0  0  0  0  0  0
   -2.2598   -1.3964   -1.5730 C   0  0  0  0  0  0  0  0  0  0  0  0
    5.7745    1.3088   -1.4412 H   0  0  0  0  0  0  0  0  0  0  0  0
    4.5321    1.0662   -2.6813 H   0  0  0  0  0  0  0  0  0  0  0  0
    5.1390   -0.3590   -1.7531 H   0  0  0  0  0  0  0  0  0  0  0  0
    3.6016    2.0389   -0.5705 H   0  0  0  0  0  0  0  0  0  0  0  0
    3.4097    0.9116    1.4547 H   0  0  0  0  0  0  0  0  0  0  0  0
    5.3610    1.4172    2.4116 H   0  0  0  0  0  0  0  0  0  0  0  0
    5.5347    2.3028    0.8845 H   0  0  0  0  0  0  0  0  0  0  0  0
    7.6091    1.0529    1.5762 H   0  0  0  0  0  0  0  0  0  0  0  0
    7.0079    0.2881    0.0647 H   0  0  0  0  0  0  0  0  0  0  0  0
    6.3330   -0.6064    2.9357 H   0  0  0  0  0  0  0  0  0  0  0  0
    8.1675   -1.9482    0.8479 H   0  0  0  0  0  0  0  0  0  0  0  0
    7.7109   -2.6157    2.4687 H   0  0  0  0  0  0  0  0  0  0  0  0
    8.6914   -1.1114    2.3621 H   0  0  0  0  0  0  0  0  0  0  0  0
    2.2508    1.0316   -2.0101 H   0  0  0  0  0  0  0  0  0  0  0  0
    2.9635   -1.8343   -1.2293 H   0  0  0  0  0  0  0  0  0  0  0  0
    2.8354   -1.0167   -2.8325 H   0  0  0  0  0  0  0  0  0  0  0  0
    0.7305   -2.2600   -1.0384 H   0  0  0  0  0  0  0  0  0  0  0  0
    0.5750   -2.0412   -2.7763 H   0  0  0  0  0  0  0  0  0  0  0  0
   -0.7419    0.0105   -3.5142 H   0  0  0  0  0  0  0  0  0  0  0  0
    0.8073    0.7565   -3.4062 H   0  0  0  0  0  0  0  0  0  0  0  0
   -0.6104    1.5420   -2.6258 H   0  0  0  0  0  0  0  0  0  0  0  0
   -0.6555    1.2641    1.7720 H   0  0  0  0  0  0  0  0  0  0  0  0
   -1.3086    2.5389    0.7059 H   0  0  0  0  0  0  0  0  0  0  0  0
    1.2282    2.2641    0.6969 H   0  0  0  0  0  0  0  0  0  0  0  0
    0.4208    2.3496   -0.8818 H   0  0  0  0  0  0  0  0  0  0  0  0
    1.6552   -0.0741    1.7544 H   0  0  0  0  0  0  0  0  0  0  0  0
    1.7009   -1.5252    0.7397 H   0  0  0  0  0  0  0  0  0  0  0  0
    0.1728   -0.8527    1.2980 H   0  0  0  0  0  0  0  0  0  0  0  0
   -2.1970   -0.3678    2.6216 H   0  0  0  0  0  0  0  0  0  0  0  0
   -2.4974   -1.7248    1.5355 H   0  0  0  0  0  0  0  0  0  0  0  0
   -3.8194   -0.9981    2.4912 H   0  0  0  0  0  0  0  0  0  0  0  0
   -3.5965    2.4102    0.6339 H   0  0  0  0  0  0  0  0  0  0  0  0
   -3.0370    1.8778    2.2425 H   0  0  0  0  0  0  0  0  0  0  0  0
   -5.4263    2.4673    2.3062 H   0  0  0  0  0  0  0  0  0  0  0  0
   -5.2320    0.7297    2.6377 H   0  0  0  0  0  0  0  0  0  0  0  0
   -7.1035    1.1109    1.0650 H   0  0  0  0  0  0  0  0  0  0  0  0
   -5.2779    2.3160   -0.7595 H   0  0  0  0  0  0  0  0  0  0  0  0
   -7.6353   -0.1758   -1.1101 H   0  0  0  0  0  0  0  0  0  0  0  0
   -6.4041   -1.2314   -1.8609 H   0  0  0  0  0  0  0  0  0  0  0  0
   -6.2936    0.5443   -2.0579 H   0  0  0  0  0  0  0  0  0  0  0  0
   -7.2576   -1.3015    1.0122 H   0  0  0  0  0  0  0  0  0  0  0  0
   -5.7237   -1.3615    1.8528 H   0  0  0  0  0  0  0  0  0  0  0  0
   -5.9470   -2.3213    0.3592 H   0  0  0  0  0  0  0  0  0  0  0  0
   -4.0409    0.5746   -1.2144 H   0  0  0  0  0  0  0  0  0  0  0  0
   -4.3225   -1.9386   -1.7668 H   0  0  0  0  0  0  0  0  0  0  0  0
   -3.6634   -2.2863   -0.1686 H   0  0  0  0  0  0  0  0  0  0  0  0
   -2.4037   -1.0240   -2.6057 H   0  0  0  0  0  0  0  0  0  0  0  0
   -1.8104   -2.4095   -1.6427 H   0  0  0  0  0  0  0  0  0  0  0  0
  1 34  1  0  0  0  0
  1 35  1  0  0  0  0
  1 36  1  0  0  0  0
  2  1  1  0  0  0  0
  2  3  1  0  0  0  0
  2 11  1  0  0  0  0
  2 37  1  1  0  0  0
  3  4  1  0  0  0  0
  3 38  1  1  0  0  0
  4  5  1  0  0  0  0
  4 39  1  0  0  0  0
  4 40  1  0  0  0  0
  5  6  1  0  0  0  0
  5 41  1  0  0  0  0
  5 42  1  0  0  0  0
  6  7  1  0  0  0  0
  6  8  1  0  0  0  0
  6 43  1  1  0  0  0
  7 44  1  0  0  0  0
  7 45  1  0  0  0  0
  7 46  1  0  0  0  0
  8  9  2  0  0  0  0
  8 10  1  0  0  0  0
 10  3  1  0  0  0  0
 11 12  1  0  0  0  0
 11 47  1  6  0  0  0
 12 13  1  0  0  0  0
 12 48  1  0  0  0  0
 12 49  1  0  0  0  0
 13 14  1  0  0  0  0
 13 50  1  0  0  0  0
 13 51  1  0  0  0  0
 14 15  1  6  0  0  0
 14 16  1  0  0  0  0
 15 52  1  0  0  0  0
 15 53  1  0  0  0  0
 15 54  1  0  0  0  0
 16 17  2  0  0  0  0
 17 18  1  0  0  0  0
 17 22  1  0  0  0  0
 18 19  1  0  0  0  0
 18 55  1  0  0  0  0
 18 56  1  0  0  0  0
 19 20  1  0  0  0  0
 19 57  1  0  0  0  0
 19 58  1  0  0  0  0
 20 21  1  1  0  0  0
 20 11  1  0  0  0  0
 20 14  1  0  0  0  0
 21 59  1  0  0  0  0
 21 60  1  0  0  0  0
 21 61  1  0  0  0  0
 22 23  1  1  0  0  0
 22 24  1  0  0  0  0
 23 62  1  0  0  0  0
 23 63  1  0  0  0  0
 23 64  1  0  0  0  0
 24 25  1  0  0  0  0
 24 65  1  0  0  0  0
 24 66  1  0  0  0  0
 25 26  1  0  0  0  0
 25 67  1  0  0  0  0
 25 68  1  0  0  0  0
 26 27  1  0  0  0  0
 26 28  1  0  0  0  0
 26 69  1  1  0  0  0
 27 70  1  0  0  0  0
 28 29  1  0  0  0  0
 28 30  1  0  0  0  0
 28 31  1  0  0  0  0
 29 71  1  0  0  0  0
 29 72  1  0  0  0  0
 29 73  1  0  0  0  0
 30 74  1  0  0  0  0
 30 75  1  0  0  0  0
 30 76  1  0  0  0  0
 31 32  1  0  0  0  0
 31 22  1  0  0  0  0
 31 77  1  6  0  0  0
 32 33  1  0  0  0  0
 32 78  1  0  0  0  0
 32 79  1  0  0  0  0
 33 16  1  0  0  0  0
 33 80  1  0  0  0  0
 33 81  1  0  0  0  0
M  END
>  <IDENTIFIER>
CNP0208558.1

>  <Energy>
954.184

$$$$
