
 OpenBabel09082509013D

 77 81  0  0  0  0  0  0  0  0999 V2000
   -2.4877    3.6366    1.7532 C   0  0  0  0  0  0  0  0  0  0  0  0
   -3.6197    3.8309    0.9950 O   0  0  0  0  0  0  0  0  0  0  0  0
   -3.9764    3.1258   -0.1108 C   0  0  0  0  0  0  0  0  0  0  0  0
   -3.1752    2.0904   -0.6502 C   0  0  0  0  0  0  0  0  0  0  0  0
   -3.5904    1.3753   -1.7912 C   0  0  0  0  0  0  0  0  0  0  0  0
   -2.7927    0.2885   -2.4434 C   0  0  0  0  0  0  0  0  0  0  0  0
   -1.9046   -0.6618   -1.8405 C   0  0  0  0  0  0  0  0  0  0  0  0
   -1.6614   -0.8678   -0.5117 O   0  0  0  0  0  0  0  0  0  0  0  0
   -2.3289   -0.5919    0.6699 C   0  0  2  0  0  0  0  0  0  0  0  0
   -1.4941    0.2225    1.4824 O   0  0  0  0  0  0  0  0  0  0  0  0
   -0.2091   -0.3767    1.7545 C   0  0  2  0  0  0  0  0  0  0  0  0
    0.8871    0.2372    0.8542 C   0  0  0  0  0  0  0  0  0  0  0  0
    2.1077   -0.4715    0.9454 O   0  0  0  0  0  0  0  0  0  0  0  0
    2.9470    0.0040    1.9759 C   0  0  2  0  0  0  0  0  0  0  0  0
    3.6820    1.1340    1.4931 O   0  0  0  0  0  0  0  0  0  0  0  0
    4.8686    1.4733    2.2270 C   0  0  2  0  0  0  0  0  0  0  0  0
    6.1100    1.2929    1.3324 C   0  0  0  0  0  0  0  0  0  0  0  0
    7.2729    1.7051    2.0000 O   0  0  0  0  0  0  0  0  0  0  0  0
    4.9789    0.7836    3.6182 C   0  0  1  0  0  0  0  0  0  0  0  0
    3.9296    1.2771    4.4191 O   0  0  0  0  0  0  0  0  0  0  0  0
    4.8219   -0.7544    3.5182 C   0  0  2  0  0  0  0  0  0  0  0  0
    6.0475   -1.4468    3.4645 O   0  0  0  0  0  0  0  0  0  0  0  0
    3.8860   -1.1730    2.3609 C   0  0  2  0  0  0  0  0  0  0  0  0
    4.6472   -1.6297    1.2588 O   0  0  0  0  0  0  0  0  0  0  0  0
   -0.1916   -1.9501    1.7787 C   0  0  2  0  0  0  0  0  0  0  0  0
   -0.0068   -2.5184    0.5065 O   0  0  0  0  0  0  0  0  0  0  0  0
   -1.5381   -2.3925    2.3445 C   0  0  2  0  0  0  0  0  0  0  0  0
   -1.6084   -3.7753    2.5838 O   0  0  0  0  0  0  0  0  0  0  0  0
   -2.6901   -1.9100    1.4229 C   0  0  1  0  0  0  0  0  0  0  0  0
   -3.8639   -1.7716    2.1848 O   0  0  0  0  0  0  0  0  0  0  0  0
   -1.1993   -1.5388   -2.6910 C   0  0  0  0  0  0  0  0  0  0  0  0
   -0.4419   -2.3433   -2.1834 O   0  0  0  0  0  0  0  0  0  0  0  0
   -1.3696   -1.5014   -4.0923 C   0  0  0  0  0  0  0  0  0  0  0  0
   -0.6947   -2.3518   -5.0288 C   0  0  0  0  0  0  0  0  0  0  0  0
    0.1980   -3.3130   -4.6911 O   0  0  0  0  0  0  0  0  0  0  0  0
   -0.9521   -2.2084   -6.3974 C   0  0  0  0  0  0  0  0  0  0  0  0
   -1.8575   -1.2531   -6.8654 C   0  0  0  0  0  0  0  0  0  0  0  0
   -2.0951   -1.1171   -8.1851 O   0  0  0  0  0  0  0  0  0  0  0  0
   -2.5201   -0.4306   -5.9591 C   0  0  0  0  0  0  0  0  0  0  0  0
   -2.2839   -0.5488   -4.5875 C   0  0  0  0  0  0  0  0  0  0  0  0
   -2.9302    0.2638   -3.7674 O   0  0  0  0  0  0  0  0  0  0  0  0
   -4.8005    1.7540   -2.4074 C   0  0  0  0  0  0  0  0  0  0  0  0
   -5.5908    2.7727   -1.8835 C   0  0  0  0  0  0  0  0  0  0  0  0
   -5.1875    3.4561   -0.7342 C   0  0  0  0  0  0  0  0  0  0  0  0
   -5.9562    4.4430   -0.2264 O   0  0  0  0  0  0  0  0  0  0  0  0
   -2.4847    4.3653    2.5893 H   0  0  0  0  0  0  0  0  0  0  0  0
   -1.5779    3.8004    1.1364 H   0  0  0  0  0  0  0  0  0  0  0  0
   -2.4846    2.6118    2.1807 H   0  0  0  0  0  0  0  0  0  0  0  0
   -2.2250    1.8615   -0.2006 H   0  0  0  0  0  0  0  0  0  0  0  0
   -3.2913   -0.1071    0.4391 H   0  0  0  0  0  0  0  0  0  0  0  0
    0.0172   -0.0947    2.8058 H   0  0  0  0  0  0  0  0  0  0  0  0
    0.9995    1.3300    1.0393 H   0  0  0  0  0  0  0  0  0  0  0  0
    0.5707    0.1530   -0.2044 H   0  0  0  0  0  0  0  0  0  0  0  0
    2.3448    0.2843    2.8696 H   0  0  0  0  0  0  0  0  0  0  0  0
    4.8202    2.5648    2.4347 H   0  0  0  0  0  0  0  0  0  0  0  0
    5.9861    1.8814    0.3946 H   0  0  0  0  0  0  0  0  0  0  0  0
    6.2475    0.2483    1.0081 H   0  0  0  0  0  0  0  0  0  0  0  0
    7.2745    2.6980    1.9861 H   0  0  0  0  0  0  0  0  0  0  0  0
    5.9325    1.0175    4.1474 H   0  0  0  0  0  0  0  0  0  0  0  0
    4.1983    2.1809    4.7299 H   0  0  0  0  0  0  0  0  0  0  0  0
    4.3583   -1.0567    4.4846 H   0  0  0  0  0  0  0  0  0  0  0  0
    6.6179   -1.0221    2.7772 H   0  0  0  0  0  0  0  0  0  0  0  0
    3.2787   -2.0427    2.6964 H   0  0  0  0  0  0  0  0  0  0  0  0
    4.4518   -1.0977    0.4455 H   0  0  0  0  0  0  0  0  0  0  0  0
    0.6304   -2.2929    2.4536 H   0  0  0  0  0  0  0  0  0  0  0  0
    0.9616   -2.7061    0.3980 H   0  0  0  0  0  0  0  0  0  0  0  0
   -1.6221   -1.8783    3.3290 H   0  0  0  0  0  0  0  0  0  0  0  0
   -1.4675   -4.2370    1.7167 H   0  0  0  0  0  0  0  0  0  0  0  0
   -2.9039   -2.6569    0.6265 H   0  0  0  0  0  0  0  0  0  0  0  0
   -3.7408   -0.9888    2.7837 H   0  0  0  0  0  0  0  0  0  0  0  0
    0.4873   -3.5568   -3.8072 H   0  0  0  0  0  0  0  0  0  0  0  0
   -0.4395   -2.8498   -7.1038 H   0  0  0  0  0  0  0  0  0  0  0  0
   -1.6498   -1.6654   -8.8469 H   0  0  0  0  0  0  0  0  0  0  0  0
   -3.2211    0.3115   -6.3221 H   0  0  0  0  0  0  0  0  0  0  0  0
   -5.1494    1.2485   -3.2999 H   0  0  0  0  0  0  0  0  0  0  0  0
   -6.5206    3.0308   -2.3757 H   0  0  0  0  0  0  0  0  0  0  0  0
   -6.7972    4.7028   -0.6309 H   0  0  0  0  0  0  0  0  0  0  0  0
  1  2  1  0  0  0  0
  1 46  1  0  0  0  0
  1 47  1  0  0  0  0
  1 48  1  0  0  0  0
  2  3  1  0  0  0  0
  3  4  2  0  0  0  0
  4  5  1  0  0  0  0
  4 49  1  0  0  0  0
  5  6  1  0  0  0  0
  5 42  2  0  0  0  0
  6  7  2  0  0  0  0
  7  8  1  0  0  0  0
  7 31  1  0  0  0  0
  9  8  1  0  0  0  0
  9 10  1  0  0  0  0
  9 50  1  6  0  0  0
 10 11  1  0  0  0  0
 11 12  1  0  0  0  0
 11 25  1  0  0  0  0
 11 51  1  1  0  0  0
 12 13  1  0  0  0  0
 12 52  1  0  0  0  0
 12 53  1  0  0  0  0
 14 13  1  0  0  0  0
 14 15  1  0  0  0  0
 14 54  1  1  0  0  0
 15 16  1  0  0  0  0
 16 17  1  0  0  0  0
 16 19  1  0  0  0  0
 16 55  1  1  0  0  0
 17 18  1  0  0  0  0
 17 56  1  0  0  0  0
 17 57  1  0  0  0  0
 18 58  1  0  0  0  0
 19 20  1  0  0  0  0
 19 21  1  0  0  0  0
 19 59  1  1  0  0  0
 20 60  1  0  0  0  0
 21 22  1  0  0  0  0
 21 23  1  0  0  0  0
 21 61  1  1  0  0  0
 22 62  1  0  0  0  0
 23 24  1  0  0  0  0
 23 14  1  0  0  0  0
 23 63  1  1  0  0  0
 24 64  1  0  0  0  0
 25 26  1  0  0  0  0
 25 27  1  0  0  0  0
 25 65  1  1  0  0  0
 26 66  1  0  0  0  0
 27 28  1  0  0  0  0
 27 29  1  0  0  0  0
 27 67  1  1  0  0  0
 28 68  1  0  0  0  0
 29 30  1  0  0  0  0
 29  9  1  0  0  0  0
 29 69  1  6  0  0  0
 30 70  1  0  0  0  0
 31 32  2  0  0  0  0
 31 33  1  0  0  0  0
 33 34  2  0  0  0  0
 34 35  1  0  0  0  0
 34 36  1  0  0  0  0
 35 71  1  0  0  0  0
 36 37  2  0  0  0  0
 36 72  1  0  0  0  0
 37 38  1  0  0  0  0
 37 39  1  0  0  0  0
 38 73  1  0  0  0  0
 39 40  2  0  0  0  0
 39 74  1  0  0  0  0
 40 41  1  0  0  0  0
 40 33  1  0  0  0  0
 41  6  1  0  0  0  0
 42 43  1  0  0  0  0
 42 75  1  0  0  0  0
 43 44  2  0  0  0  0
 43 76  1  0  0  0  0
 44 45  1  0  0  0  0
 44  3  1  0  0  0  0
 45 77  1  0  0  0  0
M  END
>  <IDENTIFIER>
CNP0174885.6

>  <Energy>
1057.3

$$$$
