
 OpenBabel09052514592D

196195  0  0  0  0  0  0  0  0999 V2000
   26.5298   17.0490    0.0000 C   0  0  0  0  0  0  0  0  0  0  0  0
   27.2798   15.7500    0.0000 C   0  0  0  0  0  0  0  0  0  0  0  0
   28.0298   14.4510    0.0000 C   0  0  0  0  0  0  0  0  0  0  0  0
   25.8932   14.6763   -0.1826 C   0  0  0  0  0  0  0  0  0  0  0  0
   24.2856   14.5307    0.0244 C   0  0  0  0  0  0  0  0  0  0  0  0
   23.6643   13.0046   -0.2659 C   0  0  0  0  0  0  0  0  0  0  0  0
   22.0836   12.7500    0.0000 C   0  0  0  0  0  0  0  0  0  0  0  0
   20.7846   12.0000    0.0000 C   0  0  0  0  0  2  0  0  0  0  0  0
   19.4856   11.2500    0.0000 C   0  0  0  0  0  0  0  0  0  0  0  0
   18.1865   10.5000    0.0000 C   0  0  0  0  0  0  0  0  0  0  0  0
   16.8875    9.7500    0.0000 C   0  0  0  0  0  2  0  0  0  0  0  0
   15.5885    9.0000    0.0000 C   0  0  0  0  0  0  0  0  0  0  0  0
   13.9441    8.6537    0.0399 C   0  0  0  0  0  0  0  0  0  0  0  0
   13.3414    7.0640   -0.0302 C   0  0  0  0  0  0  0  0  0  0  0  0
   11.6913    6.7500    0.0000 C   0  0  0  0  0  0  0  0  0  0  0  0
   10.3923    6.0000    0.0000 C   0  0  0  0  0  0  0  0  0  0  0  0
    9.0933    5.2500    0.0000 C   0  0  0  0  0  0  0  0  0  0  0  0
    7.7942    4.5000    0.0000 C   0  0  0  0  0  0  0  0  0  0  0  0
    6.4952    3.7500    0.0000 C   0  0  0  0  0  0  0  0  0  0  0  0
    5.1962    3.0000    0.0000 C   0  0  0  0  0  0  0  0  0  0  0  0
    3.5748    2.7393   -0.0818 C   0  0  0  0  0  0  0  0  0  0  0  0
    3.0515    1.1675    0.1086 C   0  0  0  0  0  0  0  0  0  0  0  0
    1.4672    0.7456   -0.0465 C   0  0  0  0  0  0  0  0  0  0  0  0
    0.8461   -0.6860    0.4240 C   0  0  0  0  0  0  0  0  0  0  0  0
    1.0287   -0.9932    1.5912 O   0  0  0  0  0  0  0  0  0  0  0  0
   -0.0560   -1.4985   -0.3434 O   0  0  0  0  0  0  0  0  0  0  0  0
   -1.2990   -2.2500    0.0000 C   0  0  2  0  0  0  0  0  0  0  0  0
   -2.0490   -0.9510   -0.0000 C   0  0  0  0  0  0  0  0  0  0  0  0
   -3.4775   -0.6300    0.1638 O   0  0  0  0  0  0  0  0  0  0  0  0
   -3.9924    0.7288    0.0405 C   0  0  0  0  0  0  0  0  0  0  0  0
   -3.1630    1.6087   -0.1379 O   0  0  0  0  0  0  0  0  0  0  0  0
   -5.5482    1.2885    0.1063 C   0  0  0  0  0  0  0  0  0  0  0  0
   -5.7990    2.9462    0.0000 C   0  0  0  0  0  0  0  0  0  0  0  0
   -6.5490    4.2452    0.0000 C   0  0  0  0  0  0  0  0  0  0  0  0
   -7.2990    5.5442    0.0000 C   0  0  0  0  0  0  0  0  0  0  0  0
   -8.0490    6.8433    0.0000 C   0  0  0  0  0  0  0  0  0  0  0  0
   -8.7990    8.1423    0.0000 C   0  0  0  0  0  0  0  0  0  0  0  0
   -9.5490    9.4413    0.0000 C   0  0  0  0  0  0  0  0  0  0  0  0
   -9.8783   11.0881    0.0638 C   0  0  0  0  0  0  0  0  0  0  0  0
  -11.4531   11.7011   -0.1545 C   0  0  0  0  0  0  0  0  0  0  0  0
  -11.7990   13.3385    0.0000 C   0  0  0  0  0  0  0  0  0  0  0  0
  -12.5490   14.6375    0.0000 C   0  0  0  0  0  0  0  0  0  0  0  0
  -13.2990   15.9365    0.0000 C   0  0  0  0  0  0  0  0  0  0  0  0
  -14.0490   17.2356    0.0000 C   0  0  0  0  0  0  0  0  0  0  0  0
  -14.7990   18.5346    0.0000 C   0  0  0  0  0  2  0  0  0  0  0  0
  -15.5490   19.8336    0.0000 C   0  0  0  0  0  0  0  0  0  0  0  0
  -16.0096   21.3873    0.3611 C   0  0  0  0  0  0  0  0  0  0  0  0
  -17.3488   22.1401   -0.3758 C   0  0  0  0  0  0  0  0  0  0  0  0
  -17.7990   23.7308    0.0000 C   0  0  0  0  0  0  0  0  0  0  0  0
  -18.5490   25.0298    0.0000 C   0  0  0  0  0  0  0  0  0  0  0  0
  -16.5000   24.4808    0.0000 C   0  0  0  0  0  0  0  0  0  0  0  0
   -0.5490   -3.5490    0.0000 C   0  0  0  0  0  0  0  0  0  0  0  0
    0.7813   -3.9979   -0.4605 O   0  0  0  0  0  0  0  0  0  0  0  0
    1.4728   -5.1821    0.0024 C   0  0  0  0  0  0  0  0  0  0  0  0
    1.1627   -5.6005    1.1069 O   0  0  0  0  0  0  0  0  0  0  0  0
    2.6010   -6.1005   -0.7911 C   0  0  0  0  0  0  0  0  0  0  0  0
    3.2010   -7.4462    0.0000 C   0  0  0  0  0  0  0  0  0  0  0  0
    3.9510   -8.7452    0.0000 C   0  0  0  0  0  0  0  0  0  0  0  0
    4.7010  -10.0442    0.0000 C   0  0  0  0  0  0  0  0  0  0  0  0
    5.4510  -11.3433    0.0000 C   0  0  0  0  0  0  0  0  0  0  0  0
    6.2010  -12.6423    0.0000 C   0  0  0  0  0  0  0  0  0  0  0  0
    6.9510  -13.9413    0.0000 C   0  0  0  0  0  0  0  0  0  0  0  0
    7.3100  -15.5649   -0.2387 C   0  0  0  0  0  0  0  0  0  0  0  0
    8.8240  -16.2115    0.1907 C   0  0  0  0  0  0  0  0  0  0  0  0
    9.2010  -17.8385    0.0000 C   0  0  0  0  0  0  0  0  0  0  0  0
    9.9510  -19.1375    0.0000 C   0  0  0  0  0  2  0  0  0  0  0  0
   10.7010  -20.4365    0.0000 C   0  0  0  0  0  0  0  0  0  0  0  0
   11.4510  -21.7356    0.0000 C   0  0  0  0  0  0  0  0  0  0  0  0
   12.2010  -23.0346    0.0000 C   0  0  0  0  0  2  0  0  0  0  0  0
   12.9510  -24.3336    0.0000 C   0  0  0  0  0  0  0  0  0  0  0  0
   13.2378  -25.8936   -0.6568 C   0  0  0  0  0  0  0  0  0  0  0  0
   14.4510  -26.9317    0.0000 C   0  0  0  0  0  0  0  0  0  0  0  0
   15.2010  -28.2308    0.0000 C   0  0  0  0  0  0  0  0  0  0  0  0
   15.7500  -26.1817    0.0000 C   0  0  0  0  0  0  0  0  0  0  0  0
   27.4063   17.7424    0.0598 H   0  0  0  0  0  0  0  0  0  0  0  0
   25.9094   16.9526    0.9337 H   0  0  0  0  0  0  0  0  0  0  0  0
   25.9948   17.9756    0.0000 H   0  0  0  0  0  0  0  0  0  0  0  0
   27.6351   15.9878    1.0515 H   0  0  0  0  0  0  0  0  0  0  0  0
   27.9720   14.0822    1.0698 H   0  0  0  0  0  0  0  0  0  0  0  0
   29.0325   14.9051   -0.1738 H   0  0  0  0  0  0  0  0  0  0  0  0
   28.5648   13.5244    0.0000 H   0  0  0  0  0  0  0  0  0  0  0  0
   25.9564   14.3598   -1.2542 H   0  0  0  0  0  0  0  0  0  0  0  0
   25.9958   13.7684    0.4818 H   0  0  0  0  0  0  0  0  0  0  0  0
   24.0491   14.7954    1.0782 H   0  0  0  0  0  0  0  0  0  0  0  0
   23.7712   15.2643   -0.6315 H   0  0  0  0  0  0  0  0  0  0  0  0
   23.8783   12.7530   -1.3258 H   0  0  0  0  0  0  0  0  0  0  0  0
   24.2133   12.2769    0.3693 H   0  0  0  0  0  0  0  0  0  0  0  0
   22.0405   13.0981    1.0534 H   0  0  0  0  0  0  0  0  0  0  0  0
   21.7111   13.6036   -0.6044 H   0  0  0  0  0  0  0  0  0  0  0  0
   19.8547   10.6943   -0.8959 H   0  0  0  0  0  0  0  0  0  0  0  0
   19.8547   10.6944    0.8960 H   0  0  0  0  0  0  0  0  0  0  0  0
   17.8174   11.0557    0.8959 H   0  0  0  0  0  0  0  0  0  0  0  0
   17.8174   11.0556   -0.8960 H   0  0  0  0  0  0  0  0  0  0  0  0
   15.8011    8.4357   -0.9319 H   0  0  0  0  0  0  0  0  0  0  0  0
   15.8672    8.3222    0.8337 H   0  0  0  0  0  0  0  0  0  0  0  0
   13.5474    9.1015    0.9761 H   0  0  0  0  0  0  0  0  0  0  0  0
   13.4847    9.2047   -0.8066 H   0  0  0  0  0  0  0  0  0  0  0  0
   13.7903    6.5136    0.8228 H   0  0  0  0  0  0  0  0  0  0  0  0
   13.7382    6.6081   -0.9618 H   0  0  0  0  0  0  0  0  0  0  0  0
   11.4548    7.4393   -0.8477 H   0  0  0  0  0  0  0  0  0  0  0  0
   11.4985    7.3919    0.8993 H   0  0  0  0  0  0  0  0  0  0  0  0
   10.6798    5.5164   -0.9717 H   0  0  0  0  0  0  0  0  0  0  0  0
   10.8714    5.4586    0.8813 H   0  0  0  0  0  0  0  0  0  0  0  0
    9.5730    4.2288    0.1873 H   0  0  0  0  0  0  0  0  0  0  0  0
    8.8575    5.6944    1.0135 H   0  0  0  0  0  0  0  0  0  0  0  0
    7.3213    5.5164   -0.2188 H   0  0  0  0  0  0  0  0  0  0  0  0
    8.0407    4.0342   -1.0049 H   0  0  0  0  0  0  0  0  0  0  0  0
    6.0518    4.2304   -0.9334 H   0  0  0  0  0  0  0  0  0  0  0  0
    6.1622    4.3035    0.9199 H   0  0  0  0  0  0  0  0  0  0  0  0
    5.4549    2.2645   -0.8046 H   0  0  0  0  0  0  0  0  0  0  0  0
    5.3577    2.4077    0.9351 H   0  0  0  0  0  0  0  0  0  0  0  0
    3.2284    3.1021   -1.0726 H   0  0  0  0  0  0  0  0  0  0  0  0
    3.0800    3.3565    0.6974 H   0  0  0  0  0  0  0  0  0  0  0  0
    3.6163    0.5282   -0.6018 H   0  0  0  0  0  0  0  0  0  0  0  0
    3.3594    0.8726    1.1337 H   0  0  0  0  0  0  0  0  0  0  0  0
    0.9330    1.4848    0.5871 H   0  0  0  0  0  0  0  0  0  0  0  0
    1.1551    0.9392   -1.0937 H   0  0  0  0  0  0  0  0  0  0  0  0
   -1.4434   -2.2741    1.1073 H   0  0  0  0  0  0  0  0  0  0  0  0
   -1.5666   -0.2150    0.6984 H   0  0  0  0  0  0  0  0  0  0  0  0
   -1.8960   -0.5541   -1.0389 H   0  0  0  0  0  0  0  0  0  0  0  0
   -5.9714    0.9591    1.0781 H   0  0  0  0  0  0  0  0  0  0  0  0
   -6.1271    0.7957   -0.7024 H   0  0  0  0  0  0  0  0  0  0  0  0
   -5.2041    3.0988   -0.9344 H   0  0  0  0  0  0  0  0  0  0  0  0
   -5.0682    3.2061    0.8087 H   0  0  0  0  0  0  0  0  0  0  0  0
   -7.1068    3.9066   -0.9148 H   0  0  0  0  0  0  0  0  0  0  0  0
   -7.0266    3.8050    0.9368 H   0  0  0  0  0  0  0  0  0  0  0  0
   -8.3155    5.0731    0.2204 H   0  0  0  0  0  0  0  0  0  0  0  0
   -6.8306    5.7899    1.0048 H   0  0  0  0  0  0  0  0  0  0  0  0
   -7.0258    7.3232   -0.1765 H   0  0  0  0  0  0  0  0  0  0  0  0
   -8.4867    6.6130   -1.0169 H   0  0  0  0  0  0  0  0  0  0  0  0
   -8.2353    8.6341   -0.8605 H   0  0  0  0  0  0  0  0  0  0  0  0
   -8.3411    8.4141    0.9878 H   0  0  0  0  0  0  0  0  0  0  0  0
  -10.1503    9.2742   -0.9327 H   0  0  0  0  0  0  0  0  0  0  0  0
  -10.2758    9.1773    0.8069 H   0  0  0  0  0  0  0  0  0  0  0  0
   -9.5223   11.4428    1.0540 H   0  0  0  0  0  0  0  0  0  0  0  0
   -9.2444   11.5762   -0.7060 H   0  0  0  0  0  0  0  0  0  0  0  0
  -12.1156   11.1693    0.5605 H   0  0  0  0  0  0  0  0  0  0  0  0
  -11.7649   11.3991   -1.1764 H   0  0  0  0  0  0  0  0  0  0  0  0
  -10.9197   13.6603   -0.6147 H   0  0  0  0  0  0  0  0  0  0  0  0
  -11.4054   13.4184    1.0434 H   0  0  0  0  0  0  0  0  0  0  0  0
  -13.3508   14.0177    0.5140 H   0  0  0  0  0  0  0  0  0  0  0  0
  -12.6539   14.5734   -1.1186 H   0  0  0  0  0  0  0  0  0  0  0  0
  -13.3047   15.9300    1.1279 H   0  0  0  0  0  0  0  0  0  0  0  0
  -14.2819   15.5009   -0.3751 H   0  0  0  0  0  0  0  0  0  0  0  0
  -13.9106   17.3680   -1.1038 H   0  0  0  0  0  0  0  0  0  0  0  0
  -13.1955   17.8070    0.4486 H   0  0  0  0  0  0  0  0  0  0  0  0
  -15.5061   19.9741   -1.1005 H   0  0  0  0  0  0  0  0  0  0  0  0
  -16.5379   19.3731    0.2054 H   0  0  0  0  0  0  0  0  0  0  0  0
  -15.1126   21.9992    0.1333 H   0  0  0  0  0  0  0  0  0  0  0  0
  -16.1792   21.4271    1.4575 H   0  0  0  0  0  0  0  0  0  0  0  0
  -18.2354   21.4992   -0.1865 H   0  0  0  0  0  0  0  0  0  0  0  0
  -17.1562   22.1085   -1.4691 H   0  0  0  0  0  0  0  0  0  0  0  0
  -17.9997   23.5251    1.0832 H   0  0  0  0  0  0  0  0  0  0  0  0
  -18.5091   25.2070   -1.1050 H   0  0  0  0  0  0  0  0  0  0  0  0
  -19.5567   24.5916    0.1952 H   0  0  0  0  0  0  0  0  0  0  0  0
  -19.0840   25.9564    0.0000 H   0  0  0  0  0  0  0  0  0  0  0  0
  -15.9364   23.9013    0.7574 H   0  0  0  0  0  0  0  0  0  0  0  0
  -16.2228   24.2900   -1.0631 H   0  0  0  0  0  0  0  0  0  0  0  0
  -15.5734   25.0158    0.0000 H   0  0  0  0  0  0  0  0  0  0  0  0
   -1.1973   -4.0655   -0.7390 H   0  0  0  0  0  0  0  0  0  0  0  0
   -0.8307   -4.1754    0.8837 H   0  0  0  0  0  0  0  0  0  0  0  0
    2.1097   -6.4575   -1.7197 H   0  0  0  0  0  0  0  0  0  0  0  0
    3.4575   -5.4582   -1.0829 H   0  0  0  0  0  0  0  0  0  0  0  0
    3.6823   -6.9217    0.8596 H   0  0  0  0  0  0  0  0  0  0  0  0
    2.1825   -7.7653    0.3620 H   0  0  0  0  0  0  0  0  0  0  0  0
    3.2275   -9.1467   -0.7623 H   0  0  0  0  0  0  0  0  0  0  0  0
    3.5931   -9.0216    1.0363 H   0  0  0  0  0  0  0  0  0  0  0  0
    5.0990   -9.8350   -1.0375 H   0  0  0  0  0  0  0  0  0  0  0  0
    5.5101   -9.5467    0.6164 H   0  0  0  0  0  0  0  0  0  0  0  0
    4.5383  -11.7377   -0.5561 H   0  0  0  0  0  0  0  0  0  0  0  0
    5.2662  -11.4546    1.1089 H   0  0  0  0  0  0  0  0  0  0  0  0
    5.3379  -13.2993    0.3389 H   0  0  0  0  0  0  0  0  0  0  0  0
    6.2603  -12.6128   -1.1234 H   0  0  0  0  0  0  0  0  0  0  0  0
    7.1978  -13.9461    1.0902 H   0  0  0  0  0  0  0  0  0  0  0  0
    7.9078  -13.5800   -0.4569 H   0  0  0  0  0  0  0  0  0  0  0  0
    7.1706  -15.7732   -1.3198 H   0  0  0  0  0  0  0  0  0  0  0  0
    6.5398  -16.1464    0.3104 H   0  0  0  0  0  0  0  0  0  0  0  0
    9.5833  -15.6398   -0.3845 H   0  0  0  0  0  0  0  0  0  0  0  0
    8.9791  -15.9752    1.2634 H   0  0  0  0  0  0  0  0  0  0  0  0
    8.3346  -18.2244    0.5766 H   0  0  0  0  0  0  0  0  0  0  0  0
    8.9040  -17.8988   -1.0678 H   0  0  0  0  0  0  0  0  0  0  0  0
   11.2565  -20.0675   -0.8961 H   0  0  0  0  0  0  0  0  0  0  0  0
   11.2568  -20.0673    0.8958 H   0  0  0  0  0  0  0  0  0  0  0  0
   10.8952  -22.1048   -0.8958 H   0  0  0  0  0  0  0  0  0  0  0  0
   10.8955  -22.1046    0.8961 H   0  0  0  0  0  0  0  0  0  0  0  0
   12.8433  -24.5972    1.0725 H   0  0  0  0  0  0  0  0  0  0  0  0
   13.9599  -23.8932   -0.1043 H   0  0  0  0  0  0  0  0  0  0  0  0
   12.2787  -26.4485   -0.5909 H   0  0  0  0  0  0  0  0  0  0  0  0
   13.4614  -25.7559   -1.7355 H   0  0  0  0  0  0  0  0  0  0  0  0
   14.0911  -26.9381    1.0588 H   0  0  0  0  0  0  0  0  0  0  0  0
   14.3108  -28.8742    0.1864 H   0  0  0  0  0  0  0  0  0  0  0  0
   15.3884  -28.2848   -1.1029 H   0  0  0  0  0  0  0  0  0  0  0  0
   15.7360  -29.1575    0.0000 H   0  0  0  0  0  0  0  0  0  0  0  0
   15.7953  -25.9828   -1.0971 H   0  0  0  0  0  0  0  0  0  0  0  0
   15.4279  -25.2954    0.5786 H   0  0  0  0  0  0  0  0  0  0  0  0
   16.6766  -25.6467    0.0000 H   0  0  0  0  0  0  0  0  0  0  0  0
  1  2  1  0  0  0  0
  1 75  1  0  0  0  0
  1 76  1  0  0  0  0
  1 77  1  0  0  0  0
  2  3  1  0  0  0  0
  2  4  1  0  0  0  0
  2 78  1  0  0  0  0
  3 79  1  0  0  0  0
  3 80  1  0  0  0  0
  3 81  1  0  0  0  0
  4  5  1  0  0  0  0
  4 82  1  0  0  0  0
  4 83  1  0  0  0  0
  5  6  1  0  0  0  0
  5 84  1  0  0  0  0
  5 85  1  0  0  0  0
  6  7  1  0  0  0  0
  6 86  1  0  0  0  0
  6 87  1  0  0  0  0
  7  8  1  0  0  0  0
  7 88  1  0  0  0  0
  7 89  1  0  0  0  0
  8  9  1  0  0  0  0
  9 10  1  0  0  0  0
  9 90  1  0  0  0  0
  9 91  1  0  0  0  0
 10 11  1  0  0  0  0
 10 92  1  0  0  0  0
 10 93  1  0  0  0  0
 11 12  1  0  0  0  0
 12 13  1  0  0  0  0
 12 94  1  0  0  0  0
 12 95  1  0  0  0  0
 13 14  1  0  0  0  0
 13 96  1  0  0  0  0
 13 97  1  0  0  0  0
 14 15  1  0  0  0  0
 14 98  1  0  0  0  0
 14 99  1  0  0  0  0
 15 16  1  0  0  0  0
 15100  1  0  0  0  0
 15101  1  0  0  0  0
 16 17  1  0  0  0  0
 16102  1  0  0  0  0
 16103  1  0  0  0  0
 17 18  1  0  0  0  0
 17104  1  0  0  0  0
 17105  1  0  0  0  0
 18 19  1  0  0  0  0
 18106  1  0  0  0  0
 18107  1  0  0  0  0
 19 20  1  0  0  0  0
 19108  1  0  0  0  0
 19109  1  0  0  0  0
 20 21  1  0  0  0  0
 20110  1  0  0  0  0
 20111  1  0  0  0  0
 21 22  1  0  0  0  0
 21112  1  0  0  0  0
 21113  1  0  0  0  0
 22 23  1  0  0  0  0
 22114  1  0  0  0  0
 22115  1  0  0  0  0
 23 24  1  0  0  0  0
 23116  1  0  0  0  0
 23117  1  0  0  0  0
 24 25  2  0  0  0  0
 24 26  1  0  0  0  0
 26 27  1  0  0  0  0
 27 28  1  0  0  0  0
 27 52  1  0  0  0  0
 27118  1  6  0  0  0
 28 29  1  0  0  0  0
 28119  1  0  0  0  0
 28120  1  0  0  0  0
 29 30  1  0  0  0  0
 30 31  2  0  0  0  0
 30 32  1  0  0  0  0
 32 33  1  0  0  0  0
 32121  1  0  0  0  0
 32122  1  0  0  0  0
 33 34  1  0  0  0  0
 33123  1  0  0  0  0
 33124  1  0  0  0  0
 34 35  1  0  0  0  0
 34125  1  0  0  0  0
 34126  1  0  0  0  0
 35 36  1  0  0  0  0
 35127  1  0  0  0  0
 35128  1  0  0  0  0
 36 37  1  0  0  0  0
 36129  1  0  0  0  0
 36130  1  0  0  0  0
 37 38  1  0  0  0  0
 37131  1  0  0  0  0
 37132  1  0  0  0  0
 38 39  1  0  0  0  0
 38133  1  0  0  0  0
 38134  1  0  0  0  0
 39 40  1  0  0  0  0
 39135  1  0  0  0  0
 39136  1  0  0  0  0
 40 41  1  0  0  0  0
 40137  1  0  0  0  0
 40138  1  0  0  0  0
 41 42  1  0  0  0  0
 41139  1  0  0  0  0
 41140  1  0  0  0  0
 42 43  1  0  0  0  0
 42141  1  0  0  0  0
 42142  1  0  0  0  0
 43 44  1  0  0  0  0
 43143  1  0  0  0  0
 43144  1  0  0  0  0
 44 45  1  0  0  0  0
 44145  1  0  0  0  0
 44146  1  0  0  0  0
 45 46  1  0  0  0  0
 46 47  1  0  0  0  0
 46147  1  0  0  0  0
 46148  1  0  0  0  0
 47 48  1  0  0  0  0
 47149  1  0  0  0  0
 47150  1  0  0  0  0
 48 49  1  0  0  0  0
 48151  1  0  0  0  0
 48152  1  0  0  0  0
 49 50  1  0  0  0  0
 49 51  1  0  0  0  0
 49153  1  0  0  0  0
 50154  1  0  0  0  0
 50155  1  0  0  0  0
 50156  1  0  0  0  0
 51157  1  0  0  0  0
 51158  1  0  0  0  0
 51159  1  0  0  0  0
 52 53  1  0  0  0  0
 52160  1  0  0  0  0
 52161  1  0  0  0  0
 53 54  1  0  0  0  0
 54 55  2  0  0  0  0
 54 56  1  0  0  0  0
 56 57  1  0  0  0  0
 56162  1  0  0  0  0
 56163  1  0  0  0  0
 57 58  1  0  0  0  0
 57164  1  0  0  0  0
 57165  1  0  0  0  0
 58 59  1  0  0  0  0
 58166  1  0  0  0  0
 58167  1  0  0  0  0
 59 60  1  0  0  0  0
 59168  1  0  0  0  0
 59169  1  0  0  0  0
 60 61  1  0  0  0  0
 60170  1  0  0  0  0
 60171  1  0  0  0  0
 61 62  1  0  0  0  0
 61172  1  0  0  0  0
 61173  1  0  0  0  0
 62 63  1  0  0  0  0
 62174  1  0  0  0  0
 62175  1  0  0  0  0
 63 64  1  0  0  0  0
 63176  1  0  0  0  0
 63177  1  0  0  0  0
 64 65  1  0  0  0  0
 64178  1  0  0  0  0
 64179  1  0  0  0  0
 65 66  1  0  0  0  0
 65180  1  0  0  0  0
 65181  1  0  0  0  0
 66 67  1  0  0  0  0
 67 68  1  0  0  0  0
 67182  1  0  0  0  0
 67183  1  0  0  0  0
 68 69  1  0  0  0  0
 68184  1  0  0  0  0
 68185  1  0  0  0  0
 69 70  1  0  0  0  0
 70 71  1  0  0  0  0
 70186  1  0  0  0  0
 70187  1  0  0  0  0
 71 72  1  0  0  0  0
 71188  1  0  0  0  0
 71189  1  0  0  0  0
 72 73  1  0  0  0  0
 72 74  1  0  0  0  0
 72190  1  0  0  0  0
 73191  1  0  0  0  0
 73192  1  0  0  0  0
 73193  1  0  0  0  0
 74194  1  0  0  0  0
 74195  1  0  0  0  0
 74196  1  0  0  0  0
M  END
>  <IDENTIFIER>
CNP0499602.2

>  <Energy>
17602.5

$$$$
