
 OpenBabel09052508593D

 36 36  0  0  0  0  0  0  0  0999 V2000
   -1.9958    1.2200    1.7786 C   0  0  0  0  0  0  0  0  0  0  0  0
   -2.1342    1.4685    0.3007 C   0  0  0  0  0  0  0  0  0  0  0  0
   -2.9654    2.3085   -0.0214 O   0  0  0  0  0  0  0  0  0  0  0  0
   -1.3329    0.7785   -0.8286 C   0  0  1  0  0  0  0  0  0  0  0  0
   -1.7497    1.3649   -2.0472 O   0  0  0  0  0  0  0  0  0  0  0  0
    0.2108    0.9920   -0.7071 C   0  0  0  0  0  0  0  0  0  0  0  0
    0.9233    0.0920    0.3420 C   0  0  2  0  0  0  0  0  0  0  0  0
    2.4517    0.4206    0.4403 C   0  0  0  0  0  0  0  0  0  0  0  0
    3.1448   -0.4111    1.5340 C   0  0  0  0  0  0  0  0  0  0  0  0
    3.2244    0.2672   -0.8820 C   0  0  0  0  0  0  0  0  0  0  0  0
    0.6162   -1.3879    0.0298 C   0  0  0  0  0  0  0  0  0  0  0  0
   -0.8956   -1.6339    0.0624 C   0  0  0  0  0  0  0  0  0  0  0  0
   -1.6157   -0.7566   -0.9811 C   0  0  1  0  0  0  0  0  0  0  0  0
   -3.1205   -1.0708   -1.0044 C   0  0  0  0  0  0  0  0  0  0  0  0
   -2.7173    1.8537    2.3384 H   0  0  0  0  0  0  0  0  0  0  0  0
   -0.9950    1.5146    2.1405 H   0  0  0  0  0  0  0  0  0  0  0  0
   -2.2318    0.1751    2.0428 H   0  0  0  0  0  0  0  0  0  0  0  0
   -1.4185    2.3018   -2.0793 H   0  0  0  0  0  0  0  0  0  0  0  0
    0.4243    2.0661   -0.5171 H   0  0  0  0  0  0  0  0  0  0  0  0
    0.6389    0.7325   -1.6988 H   0  0  0  0  0  0  0  0  0  0  0  0
    0.5177    0.2979    1.3445 H   0  0  0  0  0  0  0  0  0  0  0  0
    2.5347    1.4871    0.7486 H   0  0  0  0  0  0  0  0  0  0  0  0
    3.1738   -1.4884    1.2688 H   0  0  0  0  0  0  0  0  0  0  0  0
    2.6215   -0.2889    2.5059 H   0  0  0  0  0  0  0  0  0  0  0  0
    4.1946   -0.0717    1.6635 H   0  0  0  0  0  0  0  0  0  0  0  0
    3.1838   -0.7770   -1.2535 H   0  0  0  0  0  0  0  0  0  0  0  0
    4.2897    0.5437   -0.7288 H   0  0  0  0  0  0  0  0  0  0  0  0
    2.8311    0.9516   -1.6598 H   0  0  0  0  0  0  0  0  0  0  0  0
    1.0760   -2.0557    0.7861 H   0  0  0  0  0  0  0  0  0  0  0  0
    1.0154   -1.6632   -0.9703 H   0  0  0  0  0  0  0  0  0  0  0  0
   -1.2749   -1.4527    1.0818 H   0  0  0  0  0  0  0  0  0  0  0  0
   -1.0817   -2.7064   -0.1657 H   0  0  0  0  0  0  0  0  0  0  0  0
   -1.1990   -1.0681   -1.9672 H   0  0  0  0  0  0  0  0  0  0  0  0
   -3.5930   -0.8158   -0.0322 H   0  0  0  0  0  0  0  0  0  0  0  0
   -3.2831   -2.1528   -1.1965 H   0  0  0  0  0  0  0  0  0  0  0  0
   -3.6250   -0.4977   -1.8105 H   0  0  0  0  0  0  0  0  0  0  0  0
  1  2  1  0  0  0  0
  1 15  1  0  0  0  0
  1 16  1  0  0  0  0
  1 17  1  0  0  0  0
  2  3  2  0  0  0  0
  4  2  1  1  0  0  0
  4  5  1  0  0  0  0
  4  6  1  0  0  0  0
  5 18  1  0  0  0  0
  6  7  1  0  0  0  0
  6 19  1  0  0  0  0
  6 20  1  0  0  0  0
  7  8  1  0  0  0  0
  7 11  1  0  0  0  0
  7 21  1  1  0  0  0
  8  9  1  0  0  0  0
  8 10  1  0  0  0  0
  8 22  1  0  0  0  0
  9 23  1  0  0  0  0
  9 24  1  0  0  0  0
  9 25  1  0  0  0  0
 10 26  1  0  0  0  0
 10 27  1  0  0  0  0
 10 28  1  0  0  0  0
 11 12  1  0  0  0  0
 11 29  1  0  0  0  0
 11 30  1  0  0  0  0
 12 13  1  0  0  0  0
 12 31  1  0  0  0  0
 12 32  1  0  0  0  0
 13 14  1  0  0  0  0
 13  4  1  0  0  0  0
 13 33  1  6  0  0  0
 14 34  1  0  0  0  0
 14 35  1  0  0  0  0
 14 36  1  0  0  0  0
M  END
>  <IDENTIFIER>
CNP0064469.3

>  <Energy>
181.818

$$$$
