
 OpenBabel09092516153D

106107  0  0  0  0  0  0  0  0999 V2000
  -12.8762   -2.8938    0.8681 C   0  0  0  0  0  0  0  0  0  0  0  0
  -12.6007   -1.4375    1.2291 C   0  0  0  0  0  0  0  0  0  0  0  0
  -11.6839   -0.7750    0.1902 C   0  0  0  0  0  0  0  0  0  0  0  0
  -11.4223    0.7138    0.4839 C   0  0  0  0  0  0  0  0  0  0  0  0
  -10.7211    0.9985    1.8292 C   0  0  0  0  0  0  0  0  0  0  0  0
   -9.3464    0.3250    2.0040 C   0  0  0  0  0  0  0  0  0  0  0  0
   -8.3183    0.8023    0.9695 C   0  0  0  0  0  0  0  0  0  0  0  0
   -6.9422    0.1619    1.2164 C   0  0  0  0  0  0  0  0  0  0  0  0
   -5.8807    0.6044    0.1950 C   0  0  0  0  0  0  0  0  0  0  0  0
   -5.6184    2.0940    0.2726 C   0  0  0  0  0  0  0  0  0  0  0  0
   -4.4527    2.6975    0.5718 C   0  0  0  0  0  0  0  0  0  0  0  0
   -3.1317    2.0316    0.8769 C   0  0  0  0  0  0  0  0  0  0  0  0
   -2.0459    2.5385   -0.0839 C   0  0  0  0  0  0  0  0  0  0  0  0
   -2.3012    2.2203   -1.5788 C   0  0  1  0  0  0  0  0  0  0  0  0
   -1.3217    2.8618   -2.3598 O   0  0  0  0  0  0  0  0  0  0  0  0
   -2.3332    0.7029   -1.8820 C   0  0  1  0  0  0  0  0  0  0  0  0
   -2.5264    0.4069   -3.3720 C   0  0  0  0  0  0  0  0  0  0  0  0
   -1.9645   -0.9778   -3.4183 C   0  0  0  0  0  0  0  0  0  0  0  0
   -0.7280   -0.7494   -2.5515 C   0  0  2  0  0  0  0  0  0  0  0  0
   -0.0685   -2.0530   -2.0595 C   0  0  2  0  0  0  0  0  0  0  0  0
   -1.0340   -2.9259   -1.5242 O   0  0  0  0  0  0  0  0  0  0  0  0
    1.0685   -1.8851   -1.0145 C   0  0  0  0  0  0  0  0  0  0  0  0
    2.2926   -1.0154   -1.3768 C   0  0  0  0  0  0  0  0  0  0  0  0
    2.0802    0.5042   -1.1747 C   0  0  0  0  0  0  0  0  0  0  0  0
    3.3007    1.4005   -1.4806 C   0  0  0  0  0  0  0  0  0  0  0  0
    4.4219    1.5043   -0.4197 C   0  0  0  0  0  0  0  0  0  0  0  0
    5.2577    0.2385   -0.2086 C   0  0  0  0  0  0  0  0  0  0  0  0
    6.4699    0.5021    0.6992 C   0  0  0  0  0  0  0  0  0  0  0  0
    7.2852   -0.7726    0.9932 C   0  0  0  0  0  0  0  0  0  0  0  0
    7.9320   -1.3779   -0.2707 C   0  0  0  0  0  0  0  0  0  0  0  0
    8.7331   -2.6831   -0.0407 C   0  0  1  0  0  0  0  0  0  0  0  0
    8.8336   -3.3616   -1.2698 O   0  0  0  0  0  0  0  0  0  0  0  0
   10.1649   -2.6101    0.5686 C   0  0  0  0  0  0  0  0  0  0  0  0
   10.3294   -2.0532    1.9939 C   0  0  0  0  0  0  0  0  0  0  0  0
   10.4793   -0.5532    2.1180 C   0  0  0  0  0  0  0  0  0  0  0  0
   10.5259    0.3665    1.1602 C   0  0  0  0  0  0  0  0  0  0  0  0
   10.6897    1.7296    1.7825 C   0  0  2  0  0  0  0  0  0  0  0  0
   11.9779    2.3993    1.3143 C   0  0  0  0  0  0  0  0  0  0  0  0
   10.7377    1.4875    3.1438 O   0  0  0  0  0  0  0  0  0  0  0  0
   10.6227    0.1684    3.3645 C   0  0  0  0  0  0  0  0  0  0  0  0
   10.6354   -0.3344    4.4766 O   0  0  0  0  0  0  0  0  0  0  0  0
   -1.1304    0.0742   -1.4756 O   0  0  0  0  0  0  0  0  0  0  0  0
  -13.5419   -3.3461    1.6331 H   0  0  0  0  0  0  0  0  0  0  0  0
  -11.9260   -3.4688    0.8383 H   0  0  0  0  0  0  0  0  0  0  0  0
  -13.3751   -2.9591   -0.1220 H   0  0  0  0  0  0  0  0  0  0  0  0
  -12.1257   -1.4169    2.2319 H   0  0  0  0  0  0  0  0  0  0  0  0
  -13.5666   -0.8892    1.2758 H   0  0  0  0  0  0  0  0  0  0  0  0
  -12.1720   -0.8409   -0.8069 H   0  0  0  0  0  0  0  0  0  0  0  0
  -10.7210   -1.3249    0.1278 H   0  0  0  0  0  0  0  0  0  0  0  0
  -12.3933    1.2550    0.4762 H   0  0  0  0  0  0  0  0  0  0  0  0
  -10.8141    1.1332   -0.3447 H   0  0  0  0  0  0  0  0  0  0  0  0
  -11.3795    0.6742    2.6613 H   0  0  0  0  0  0  0  0  0  0  0  0
  -10.5952    2.0988    1.9301 H   0  0  0  0  0  0  0  0  0  0  0  0
   -9.4507   -0.7796    1.9610 H   0  0  0  0  0  0  0  0  0  0  0  0
   -8.9718    0.5871    3.0179 H   0  0  0  0  0  0  0  0  0  0  0  0
   -8.2468    1.9060    1.0494 H   0  0  0  0  0  0  0  0  0  0  0  0
   -8.6515    0.5315   -0.0541 H   0  0  0  0  0  0  0  0  0  0  0  0
   -7.0520   -0.9427    1.1430 H   0  0  0  0  0  0  0  0  0  0  0  0
   -6.5860    0.4079    2.2412 H   0  0  0  0  0  0  0  0  0  0  0  0
   -6.2223    0.3531   -0.8318 H   0  0  0  0  0  0  0  0  0  0  0  0
   -4.9750    0.0059    0.3897 H   0  0  0  0  0  0  0  0  0  0  0  0
   -6.4547    2.7525    0.0658 H   0  0  0  0  0  0  0  0  0  0  0  0
   -4.4536    3.7840    0.5937 H   0  0  0  0  0  0  0  0  0  0  0  0
   -3.1607    0.9298    0.8537 H   0  0  0  0  0  0  0  0  0  0  0  0
   -2.8398    2.3191    1.9094 H   0  0  0  0  0  0  0  0  0  0  0  0
   -1.0672    2.1082    0.2232 H   0  0  0  0  0  0  0  0  0  0  0  0
   -1.9730    3.6428    0.0297 H   0  0  0  0  0  0  0  0  0  0  0  0
   -3.2823    2.6511   -1.8730 H   0  0  0  0  0  0  0  0  0  0  0  0
   -0.4357    2.5033   -2.0932 H   0  0  0  0  0  0  0  0  0  0  0  0
   -3.1603    0.2108   -1.3255 H   0  0  0  0  0  0  0  0  0  0  0  0
   -1.8641    1.0563   -3.9896 H   0  0  0  0  0  0  0  0  0  0  0  0
   -3.5704    0.5142   -3.7358 H   0  0  0  0  0  0  0  0  0  0  0  0
   -1.7540   -1.3659   -4.4380 H   0  0  0  0  0  0  0  0  0  0  0  0
   -2.6810   -1.6602   -2.9063 H   0  0  0  0  0  0  0  0  0  0  0  0
    0.0084   -0.1883   -3.1652 H   0  0  0  0  0  0  0  0  0  0  0  0
    0.3578   -2.5507   -2.9583 H   0  0  0  0  0  0  0  0  0  0  0  0
   -1.4506   -2.4727   -0.7447 H   0  0  0  0  0  0  0  0  0  0  0  0
    1.4501   -2.9181   -0.8520 H   0  0  0  0  0  0  0  0  0  0  0  0
    0.6618   -1.5365   -0.0396 H   0  0  0  0  0  0  0  0  0  0  0  0
    2.6494   -1.2538   -2.4013 H   0  0  0  0  0  0  0  0  0  0  0  0
    3.0651   -1.3403   -0.6738 H   0  0  0  0  0  0  0  0  0  0  0  0
    1.7111    0.7242   -0.1496 H   0  0  0  0  0  0  0  0  0  0  0  0
    1.3077    0.8355   -1.8797 H   0  0  0  0  0  0  0  0  0  0  0  0
    2.8991    2.4366   -1.5570 H   0  0  0  0  0  0  0  0  0  0  0  0
    3.7207    1.1427   -2.4771 H   0  0  0  0  0  0  0  0  0  0  0  0
    3.9982    1.8445    0.5505 H   0  0  0  0  0  0  0  0  0  0  0  0
    5.1125    2.2969   -0.7850 H   0  0  0  0  0  0  0  0  0  0  0  0
    5.5970   -0.1142   -1.2033 H   0  0  0  0  0  0  0  0  0  0  0  0
    4.6567   -0.5310    0.2991 H   0  0  0  0  0  0  0  0  0  0  0  0
    6.0988    0.8981    1.6708 H   0  0  0  0  0  0  0  0  0  0  0  0
    7.1323    1.2705    0.2432 H   0  0  0  0  0  0  0  0  0  0  0  0
    6.6244   -1.5286    1.4709 H   0  0  0  0  0  0  0  0  0  0  0  0
    8.0441   -0.4982    1.7334 H   0  0  0  0  0  0  0  0  0  0  0  0
    8.5474   -0.6379   -0.8215 H   0  0  0  0  0  0  0  0  0  0  0  0
    7.0901   -1.6663   -0.9321 H   0  0  0  0  0  0  0  0  0  0  0  0
    8.1108   -3.3285    0.6177 H   0  0  0  0  0  0  0  0  0  0  0  0
    9.3407   -2.7785   -1.8946 H   0  0  0  0  0  0  0  0  0  0  0  0
   10.8852   -2.1186   -0.1199 H   0  0  0  0  0  0  0  0  0  0  0  0
   10.4778   -3.6765    0.6315 H   0  0  0  0  0  0  0  0  0  0  0  0
   11.2783   -2.4605    2.4055 H   0  0  0  0  0  0  0  0  0  0  0  0
    9.4993   -2.4288    2.6297 H   0  0  0  0  0  0  0  0  0  0  0  0
   10.4602    0.1806    0.0999 H   0  0  0  0  0  0  0  0  0  0  0  0
    9.8155    2.3708    1.5373 H   0  0  0  0  0  0  0  0  0  0  0  0
   12.8576    1.7655    1.5591 H   0  0  0  0  0  0  0  0  0  0  0  0
   12.0929    3.3822    1.8182 H   0  0  0  0  0  0  0  0  0  0  0  0
   11.9434    2.5635    0.2164 H   0  0  0  0  0  0  0  0  0  0  0  0
  1  2  1  0  0  0  0
  1 43  1  0  0  0  0
  1 44  1  0  0  0  0
  1 45  1  0  0  0  0
  2  3  1  0  0  0  0
  2 46  1  0  0  0  0
  2 47  1  0  0  0  0
  3  4  1  0  0  0  0
  3 48  1  0  0  0  0
  3 49  1  0  0  0  0
  4  5  1  0  0  0  0
  4 50  1  0  0  0  0
  4 51  1  0  0  0  0
  5  6  1  0  0  0  0
  5 52  1  0  0  0  0
  5 53  1  0  0  0  0
  6  7  1  0  0  0  0
  6 54  1  0  0  0  0
  6 55  1  0  0  0  0
  7  8  1  0  0  0  0
  7 56  1  0  0  0  0
  7 57  1  0  0  0  0
  8  9  1  0  0  0  0
  8 58  1  0  0  0  0
  8 59  1  0  0  0  0
  9 10  1  0  0  0  0
  9 60  1  0  0  0  0
  9 61  1  0  0  0  0
 10 11  2  0  0  0  0
 10 62  1  0  0  0  0
 11 12  1  0  0  0  0
 11 63  1  0  0  0  0
 12 13  1  0  0  0  0
 12 64  1  0  0  0  0
 12 65  1  0  0  0  0
 13 14  1  0  0  0  0
 13 66  1  0  0  0  0
 13 67  1  0  0  0  0
 14 15  1  0  0  0  0
 14 16  1  0  0  0  0
 14 68  1  6  0  0  0
 15 69  1  0  0  0  0
 16 17  1  0  0  0  0
 16 70  1  1  0  0  0
 17 18  1  0  0  0  0
 17 71  1  0  0  0  0
 17 72  1  0  0  0  0
 18 73  1  0  0  0  0
 18 74  1  0  0  0  0
 19 18  1  0  0  0  0
 19 20  1  0  0  0  0
 19 42  1  0  0  0  0
 19 75  1  6  0  0  0
 20 21  1  0  0  0  0
 20 22  1  0  0  0  0
 20 76  1  6  0  0  0
 21 77  1  0  0  0  0
 22 23  1  0  0  0  0
 22 78  1  0  0  0  0
 22 79  1  0  0  0  0
 23 24  1  0  0  0  0
 23 80  1  0  0  0  0
 23 81  1  0  0  0  0
 24 25  1  0  0  0  0
 24 82  1  0  0  0  0
 24 83  1  0  0  0  0
 25 26  1  0  0  0  0
 25 84  1  0  0  0  0
 25 85  1  0  0  0  0
 26 27  1  0  0  0  0
 26 86  1  0  0  0  0
 26 87  1  0  0  0  0
 27 28  1  0  0  0  0
 27 88  1  0  0  0  0
 27 89  1  0  0  0  0
 28 29  1  0  0  0  0
 28 90  1  0  0  0  0
 28 91  1  0  0  0  0
 29 30  1  0  0  0  0
 29 92  1  0  0  0  0
 29 93  1  0  0  0  0
 30 31  1  0  0  0  0
 30 94  1  0  0  0  0
 30 95  1  0  0  0  0
 31 32  1  0  0  0  0
 31 33  1  0  0  0  0
 31 96  1  1  0  0  0
 32 97  1  0  0  0  0
 33 34  1  0  0  0  0
 33 98  1  0  0  0  0
 33 99  1  0  0  0  0
 34 35  1  0  0  0  0
 34100  1  0  0  0  0
 34101  1  0  0  0  0
 35 36  2  0  0  0  0
 36 37  1  0  0  0  0
 36102  1  0  0  0  0
 37 38  1  0  0  0  0
 37 39  1  0  0  0  0
 37103  1  6  0  0  0
 38104  1  0  0  0  0
 38105  1  0  0  0  0
 38106  1  0  0  0  0
 39 40  1  0  0  0  0
 40 41  2  0  0  0  0
 40 35  1  0  0  0  0
 42 16  1  0  0  0  0
M  END
>  <IDENTIFIER>
CNP0287516.1

>  <Energy>
621.815

$$$$
