
 OpenBabel09122521583D

 87 94  0  0  0  0  0  0  0  0999 V2000
   -0.8662   -6.7657   -0.4841 O   0  0  0  0  0  0  0  0  0  0  0  0
   -1.1306   -5.6947    0.0411 C   0  0  0  0  0  0  0  0  0  0  0  0
   -0.3322   -5.2957    1.2788 C   0  0  0  0  0  0  0  0  0  0  0  0
    0.5736   -4.0345    1.2757 C   0  0  0  0  0  0  0  0  0  0  0  0
   -0.0585   -2.6411    1.5521 C   0  0  0  0  0  0  0  0  0  0  0  0
   -0.5793   -1.9213    0.3681 N   0  0  1  0  0  0  0  0  0  0  0  0
   -1.3222   -2.6949   -0.6184 C   0  0  1  0  0  0  0  0  0  0  0  0
   -2.4533   -3.5543    0.0444 C   0  0  0  0  0  0  0  0  0  0  0  0
   -2.3622   -4.9771   -0.4587 C   0  0  0  0  0  0  0  0  0  0  0  0
   -1.8999   -1.6440   -1.5846 C   0  0  0  0  0  0  0  0  0  0  0  0
   -1.4325   -0.2670   -1.0405 C   0  0  2  0  0  0  0  0  0  0  0  0
   -2.5558    0.7463   -1.4947 C   0  0  0  0  0  0  0  0  0  0  0  0
   -2.1033    2.1437   -1.4444 N   0  0  1  0  0  0  0  0  0  0  0  0
   -3.1189    3.2332   -1.5260 C   0  0  0  0  0  0  0  0  0  0  0  0
   -4.4144    2.9269   -0.7305 C   0  0  0  0  0  0  0  0  0  0  0  0
   -5.0969    4.1165    0.0096 C   0  0  0  0  0  0  0  0  0  0  0  0
   -4.1784    4.8784    1.0205 C   0  0  0  0  0  0  0  0  0  0  0  0
   -3.1456    3.9539    1.6098 C   0  0  0  0  0  0  0  0  0  0  0  0
   -3.4733    2.8488    2.3040 C   0  0  0  0  0  0  0  0  0  0  0  0
   -2.5220    1.6804    2.4900 C   0  0  0  0  0  0  0  0  0  0  0  0
   -1.2176    1.7780    1.6522 C   0  0  0  0  0  0  0  0  0  0  0  0
   -0.5039    0.4324    1.3743 C   0  0  2  0  0  0  0  0  0  0  0  0
   -0.2764   -0.1465    2.6396 O   0  0  0  0  0  0  0  0  0  0  0  0
    0.8197    0.7082    0.6921 C   0  0  0  0  0  0  0  0  0  0  0  0
    1.0905    0.5229   -0.6257 C   0  0  0  0  0  0  0  0  0  0  0  0
    2.5202    0.6795   -1.1052 C   0  0  0  0  0  0  0  0  0  0  0  0
    2.7544    1.0464   -2.4008 N   0  0  0  0  0  0  0  0  0  0  0  0
    4.0002    1.1937   -2.9452 C   0  0  0  0  0  0  0  0  0  0  0  0
    5.1404    0.9404   -2.1793 C   0  0  0  0  0  0  0  0  0  0  0  0
    4.9385    0.5255   -0.8721 C   0  0  0  0  0  0  0  0  0  0  0  0
    3.6737    0.3885   -0.3221 C   0  0  0  0  0  0  0  0  0  0  0  0
    3.7741   -0.0878    0.9484 N   0  0  0  0  0  0  0  0  0  0  0  0
    5.0960   -0.2150    1.1905 C   0  0  0  0  0  0  0  0  0  0  0  0
    5.6990   -0.6706    2.3610 C   0  0  0  0  0  0  0  0  0  0  0  0
    7.1031   -0.7458    2.3943 C   0  0  0  0  0  0  0  0  0  0  0  0
    7.8732   -0.3701    1.2629 C   0  0  0  0  0  0  0  0  0  0  0  0
    9.2181   -0.4515    1.2921 O   0  0  0  0  0  0  0  0  0  0  0  0
    7.2335    0.0860    0.0944 C   0  0  0  0  0  0  0  0  0  0  0  0
    5.8404    0.1527    0.0962 C   0  0  0  0  0  0  0  0  0  0  0  0
   -0.0031    0.0918   -1.6477 C   0  0  2  0  0  0  0  0  0  0  0  0
   -0.2203    1.1205   -2.7946 C   0  0  0  0  0  0  0  0  0  0  0  0
   -0.8990    2.4098   -2.2713 C   0  0  0  0  0  0  0  0  0  0  0  0
   -1.2838   -0.6179    0.4817 C   0  0  2  0  0  0  0  0  0  0  0  0
    0.3701   -6.1428    1.4532 H   0  0  0  0  0  0  0  0  0  0  0  0
   -1.0027   -5.2680    2.1645 H   0  0  0  0  0  0  0  0  0  0  0  0
    1.2629   -4.0151    0.4046 H   0  0  0  0  0  0  0  0  0  0  0  0
    1.2145   -4.1990    2.1725 H   0  0  0  0  0  0  0  0  0  0  0  0
    0.8077   -2.0433    1.9036 H   0  0  0  0  0  0  0  0  0  0  0  0
   -0.7954   -2.6893    2.3817 H   0  0  0  0  0  0  0  0  0  0  0  0
   -0.5720   -3.3156   -1.1572 H   0  0  0  0  0  0  0  0  0  0  0  0
   -3.4681   -3.1594   -0.1663 H   0  0  0  0  0  0  0  0  0  0  0  0
   -2.4150   -3.5708    1.1495 H   0  0  0  0  0  0  0  0  0  0  0  0
   -2.3697   -4.9539   -1.5710 H   0  0  0  0  0  0  0  0  0  0  0  0
   -3.2496   -5.5586   -0.1279 H   0  0  0  0  0  0  0  0  0  0  0  0
   -3.0080   -1.6834   -1.5396 H   0  0  0  0  0  0  0  0  0  0  0  0
   -1.6571   -1.8168   -2.6563 H   0  0  0  0  0  0  0  0  0  0  0  0
   -3.4549    0.5311   -0.8917 H   0  0  0  0  0  0  0  0  0  0  0  0
   -2.8596    0.5500   -2.5483 H   0  0  0  0  0  0  0  0  0  0  0  0
   -3.3864    3.4922   -2.5734 H   0  0  0  0  0  0  0  0  0  0  0  0
   -2.6290    4.1276   -1.0932 H   0  0  0  0  0  0  0  0  0  0  0  0
   -4.1751    2.2191    0.0697 H   0  0  0  0  0  0  0  0  0  0  0  0
   -5.1309    2.3769   -1.3779 H   0  0  0  0  0  0  0  0  0  0  0  0
   -5.9229    3.6516    0.5932 H   0  0  0  0  0  0  0  0  0  0  0  0
   -5.5594    4.8385   -0.6959 H   0  0  0  0  0  0  0  0  0  0  0  0
   -4.7809    5.4107    1.7871 H   0  0  0  0  0  0  0  0  0  0  0  0
   -3.6117    5.6419    0.4461 H   0  0  0  0  0  0  0  0  0  0  0  0
   -2.1265    4.1449    1.2976 H   0  0  0  0  0  0  0  0  0  0  0  0
   -4.5108    2.6834    2.5831 H   0  0  0  0  0  0  0  0  0  0  0  0
   -3.1017    0.8304    2.0843 H   0  0  0  0  0  0  0  0  0  0  0  0
   -2.3214    1.4626    3.5601 H   0  0  0  0  0  0  0  0  0  0  0  0
   -0.5398    2.4881    2.1769 H   0  0  0  0  0  0  0  0  0  0  0  0
   -1.4125    2.2088    0.6839 H   0  0  0  0  0  0  0  0  0  0  0  0
    0.3346    0.4404    3.1600 H   0  0  0  0  0  0  0  0  0  0  0  0
    1.5880    1.1127    1.3343 H   0  0  0  0  0  0  0  0  0  0  0  0
    4.1012    1.4991   -3.9778 H   0  0  0  0  0  0  0  0  0  0  0  0
    6.1329    1.0379   -2.6003 H   0  0  0  0  0  0  0  0  0  0  0  0
    3.0295   -0.3462    1.6292 H   0  0  0  0  0  0  0  0  0  0  0  0
    5.1057   -0.9617    3.2188 H   0  0  0  0  0  0  0  0  0  0  0  0
    7.5944   -1.0985    3.2922 H   0  0  0  0  0  0  0  0  0  0  0  0
    9.6968   -0.7665    2.0719 H   0  0  0  0  0  0  0  0  0  0  0  0
    7.8065    0.3699   -0.7795 H   0  0  0  0  0  0  0  0  0  0  0  0
    0.4304   -0.8342   -2.0865 H   0  0  0  0  0  0  0  0  0  0  0  0
   -0.8791    0.6505   -3.5562 H   0  0  0  0  0  0  0  0  0  0  0  0
    0.6841    1.3906   -3.3591 H   0  0  0  0  0  0  0  0  0  0  0  0
   -1.1469    3.0384   -3.1554 H   0  0  0  0  0  0  0  0  0  0  0  0
   -0.1767    2.9771   -1.6459 H   0  0  0  0  0  0  0  0  0  0  0  0
   -2.2806   -0.8172    0.9323 H   0  0  0  0  0  0  0  0  0  0  0  0
  1  2  2  0  0  0  0
  2  3  1  0  0  0  0
  3  4  1  0  0  0  0
  3 44  1  0  0  0  0
  3 45  1  0  0  0  0
  4  5  1  0  0  0  0
  4 46  1  0  0  0  0
  4 47  1  0  0  0  0
  5 48  1  0  0  0  0
  5 49  1  0  0  0  0
  6  5  1  1  0  0  0
  6  7  1  0  0  0  0
  7  8  1  0  0  0  0
  7 10  1  0  0  0  0
  7 50  1  6  0  0  0
  8  9  1  0  0  0  0
  8 51  1  0  0  0  0
  8 52  1  0  0  0  0
  9  2  1  0  0  0  0
  9 53  1  0  0  0  0
  9 54  1  0  0  0  0
 10 55  1  0  0  0  0
 10 56  1  0  0  0  0
 11 10  1  6  0  0  0
 11 12  1  0  0  0  0
 12 57  1  0  0  0  0
 12 58  1  0  0  0  0
 13 12  1  1  0  0  0
 13 14  1  0  0  0  0
 14 15  1  0  0  0  0
 14 59  1  0  0  0  0
 14 60  1  0  0  0  0
 15 16  1  0  0  0  0
 15 61  1  0  0  0  0
 15 62  1  0  0  0  0
 16 17  1  0  0  0  0
 16 63  1  0  0  0  0
 16 64  1  0  0  0  0
 17 18  1  0  0  0  0
 17 65  1  0  0  0  0
 17 66  1  0  0  0  0
 18 19  2  0  0  0  0
 18 67  1  0  0  0  0
 19 20  1  0  0  0  0
 19 68  1  0  0  0  0
 20 21  1  0  0  0  0
 20 69  1  0  0  0  0
 20 70  1  0  0  0  0
 21 22  1  0  0  0  0
 21 71  1  0  0  0  0
 21 72  1  0  0  0  0
 22 23  1  1  0  0  0
 22 24  1  0  0  0  0
 22 43  1  0  0  0  0
 23 73  1  0  0  0  0
 24 25  2  0  0  0  0
 24 74  1  0  0  0  0
 25 26  1  0  0  0  0
 25 40  1  0  0  0  0
 26 27  2  0  0  0  0
 27 28  1  0  0  0  0
 28 29  2  0  0  0  0
 28 75  1  0  0  0  0
 29 30  1  0  0  0  0
 29 76  1  0  0  0  0
 30 31  2  0  0  0  0
 31 32  1  0  0  0  0
 31 26  1  0  0  0  0
 32 33  1  0  0  0  0
 32 77  1  0  0  0  0
 33 34  2  0  0  0  0
 34 35  1  0  0  0  0
 34 78  1  0  0  0  0
 35 36  2  0  0  0  0
 35 79  1  0  0  0  0
 36 37  1  0  0  0  0
 36 38  1  0  0  0  0
 37 80  1  0  0  0  0
 38 39  2  0  0  0  0
 38 81  1  0  0  0  0
 39 33  1  0  0  0  0
 39 30  1  0  0  0  0
 40 41  1  0  0  0  0
 40 11  1  0  0  0  0
 40 82  1  6  0  0  0
 41 42  1  0  0  0  0
 41 83  1  0  0  0  0
 41 84  1  0  0  0  0
 42 13  1  0  0  0  0
 42 85  1  0  0  0  0
 42 86  1  0  0  0  0
 43  6  1  0  0  0  0
 43 11  1  0  0  0  0
 43 87  1  1  0  0  0
M  END
>  <IDENTIFIER>
CNP0170552.1

>  <Energy>
1539.45

$$$$
