
 OpenBabel09052514282D

266266  0  0  0  0  0  0  0  0999 V2000
   40.8836    2.6696    0.0000 C   0  0  0  0  0  0  0  0  0  0  0  0
   39.6171    1.8658   -0.0000 C   0  0  0  0  0  0  0  0  0  0  0  0
   37.9086    1.7614   -0.1706 C   0  0  0  0  0  0  0  0  0  0  0  0
   37.0842    0.2583   -0.0000 C   0  0  0  0  0  0  0  0  0  0  0  0
   35.8177   -0.5454    0.0000 C   0  0  0  0  0  2  0  0  0  0  0  0
   34.5512   -1.3491   -0.0000 C   0  0  0  0  0  0  0  0  0  0  0  0
   33.5353   -2.5809   -0.3093 C   0  0  0  0  0  0  0  0  0  0  0  0
   31.9405   -2.3160    0.0507 C   0  0  3  0  0  0  0  0  0  0  0  0
   31.8503   -2.0044    1.4172 O   0  0  0  0  0  0  0  0  0  0  0  0
   30.8550   -3.4854   -0.2678 C   0  0  0  0  0  0  0  0  0  0  0  0
   29.3492   -3.5563    0.3201 C   0  0  0  0  0  0  0  0  0  0  0  0
   29.2417   -3.5266    1.5375 O   0  0  0  0  0  0  0  0  0  0  0  0
   28.2042   -3.9062   -0.4562 N   0  0  0  0  0  0  0  0  0  0  0  0
   26.8894   -4.6729    0.0000 C   0  0  3  0  0  0  0  0  0  0  0  0
   27.6931   -5.9394    0.0000 C   0  0  0  0  0  0  0  0  0  0  0  0
   28.4969   -7.2059    0.0000 C   0  0  0  0  0  0  0  0  0  0  0  0
   29.3006   -8.4724    0.0000 C   0  0  0  0  0  0  0  0  0  0  0  0
   27.2304   -8.0096    0.0000 C   0  0  0  0  0  0  0  0  0  0  0  0
   26.0857   -3.4064    0.0000 C   0  0  0  0  0  0  0  0  0  0  0  0
   26.5011   -2.8274    1.0327 O   0  0  0  0  0  0  0  0  0  0  0  0
   24.6810   -3.3677   -0.3903 N   0  0  0  0  0  0  0  0  0  0  0  0
   23.7832   -2.2027    0.0000 C   0  0  3  0  0  0  0  0  0  0  0  0
   25.0497   -1.3990    0.0000 C   0  0  0  0  0  0  0  0  0  0  0  0
   26.3162   -0.5953    0.0000 C   0  0  0  0  0  0  0  0  0  0  0  0
   26.2480    0.7959   -0.6224 C   0  0  0  0  0  0  0  0  0  0  0  0
   25.2106    1.2260   -1.1041 O   0  0  0  0  0  0  0  0  0  0  0  0
   27.3484    1.5773   -0.6326 O   0  0  0  0  0  0  0  0  0  0  0  0
   22.2976   -2.1838   -0.5742 C   0  0  0  0  0  0  0  0  0  0  0  0
   22.1773   -2.3673   -1.7813 O   0  0  0  0  0  0  0  0  0  0  0  0
   21.1263   -2.2167    0.2724 N   0  0  0  0  0  0  0  0  0  0  0  0
   19.9210   -3.1153    0.0000 C   0  0  3  0  0  0  0  0  0  0  0  0
   20.7247   -4.3818    0.0000 C   0  0  0  0  0  0  0  0  0  0  0  0
   21.5284   -5.6483    0.0000 C   0  0  0  0  0  0  0  0  0  0  0  0
   22.8093   -5.7239    0.7876 C   0  0  0  0  0  0  0  0  0  0  0  0
   23.5714   -6.8399    0.6795 N   0  0  0  0  0  0  0  0  0  0  0  0
   23.1571   -4.8172    1.5259 O   0  0  0  0  0  0  0  0  0  0  0  0
   18.6291   -2.3994   -0.5701 C   0  0  0  0  0  0  0  0  0  0  0  0
   18.5112   -2.1244   -1.7682 O   0  0  0  0  0  0  0  0  0  0  0  0
   17.7165   -1.8599    0.2954 N   0  0  0  0  0  0  0  0  0  0  0  0
   16.8148   -0.6451    0.0000 C   0  0  3  0  0  0  0  0  0  0  0  0
   15.5483   -1.4488    0.0000 C   0  0  0  0  0  0  0  0  0  0  0  0
   15.5391   -1.8936    1.1630 O   0  0  0  0  0  0  0  0  0  0  0  0
   14.2954   -0.9341   -0.4456 N   0  0  0  0  0  0  0  0  0  0  0  0
   12.9525   -1.5576    0.0000 C   0  0  3  0  0  0  0  0  0  0  0  0
   13.7562   -2.8241    0.0000 C   0  0  0  0  0  0  0  0  0  0  0  0
   14.5600   -4.0906    0.0000 C   0  0  0  0  0  0  0  0  0  0  0  0
   15.3637   -5.3571    0.0000 C   0  0  0  0  0  0  0  0  0  0  0  0
   13.2935   -4.8944   -0.0000 C   0  0  0  0  0  0  0  0  0  0  0  0
   12.1488   -0.2911    0.0000 C   0  0  0  0  0  0  0  0  0  0  0  0
   12.4797    0.6071    0.7637 O   0  0  0  0  0  0  0  0  0  0  0  0
   10.9628   -0.1994   -0.7474 N   0  0  0  0  0  0  0  0  0  0  0  0
    9.9524    0.9211   -0.8553 C   0  0  3  0  0  0  0  0  0  0  0  0
   10.2832    2.1630    0.0090 C   0  0  0  0  0  0  0  0  0  0  0  0
   11.5132    2.9100   -0.5920 C   0  0  0  0  0  0  0  0  0  0  0  0
   12.1260    3.9026    0.3595 C   0  0  0  0  0  0  0  0  0  0  0  0
   12.2483    5.2072    0.0241 N   0  0  0  0  0  0  0  0  0  0  0  0
   12.5641    3.5124    1.4318 O   0  0  0  0  0  0  0  0  0  0  0  0
    8.4393    0.4324   -0.8809 C   0  0  0  0  0  0  0  0  0  0  0  0
    8.2073   -0.3564   -1.7841 O   0  0  0  0  0  0  0  0  0  0  0  0
    7.3592    0.8787   -0.0884 N   0  0  0  0  0  0  0  0  0  0  0  0
    5.9068    0.4981   -0.3237 C   0  0  3  0  0  0  0  0  0  0  0  0
    4.8528    1.8370   -0.3717 C   0  0  0  0  0  0  0  0  0  0  0  0
    4.6306    2.7303    0.7419 O   0  0  0  0  0  0  0  0  0  0  0  0
    3.9143    3.9659    0.9988 C   0  0  0  0  0  0  0  0  0  0  0  0
    3.7949    4.2518    2.1787 O   0  0  0  0  0  0  0  0  0  0  0  0
    3.2064    5.0525    0.0000 C   0  0  3  0  0  0  0  0  0  0  0  0
    3.2064    6.5525    0.0000 C   0  0  0  0  0  0  0  0  0  0  0  0
    3.2064    8.0525    0.0000 C   0  0  0  0  0  0  0  0  0  0  0  0
    4.7064    6.5525    0.0000 C   0  0  0  0  0  0  0  0  0  0  0  0
    1.6560    4.6905   -0.2709 N   0  0  0  0  0  0  0  0  0  0  0  0
    0.4266    4.5392    0.5186 C   0  0  0  0  0  0  0  0  0  0  0  0
    0.5389    4.5590    1.7333 O   0  0  0  0  0  0  0  0  0  0  0  0
   -1.2015    4.5175   -0.0744 C   0  0  3  0  0  0  0  0  0  0  0  0
   -1.9758    5.8049    0.3722 C   0  0  0  0  0  0  0  0  0  0  0  0
   -1.5340    7.2314   -0.0096 C   0  0  0  0  0  0  0  0  0  0  0  0
   -2.6305    8.2408    0.3638 C   0  0  0  0  0  0  0  0  0  0  0  0
   -2.5142    9.5549    0.0490 N   0  0  0  0  0  0  0  0  0  0  0  0
   -3.6499    7.8684    0.9332 O   0  0  0  0  0  0  0  0  0  0  0  0
   -2.2999    3.3524   -0.0602 N   0  0  0  0  0  0  0  0  0  0  0  0
   -3.6700    3.3407    0.4954 C   0  0  0  0  0  0  0  0  0  0  0  0
   -3.9224    4.1430    1.3792 O   0  0  0  0  0  0  0  0  0  0  0  0
   -5.0508    2.4634    0.0248 C   0  0  3  0  0  0  0  0  0  0  0  0
   -6.6158    2.7771    0.6836 C   0  0  0  0  0  0  0  0  0  0  0  0
   -7.8353    3.7057   -0.0000 C   0  0  0  0  0  0  0  0  0  0  0  0
   -9.3323    3.7999    0.0000 C   0  0  0  0  0  0  0  0  0  0  0  0
   -7.7411    5.2027    0.0000 C   0  0  0  0  0  0  0  0  0  0  0  0
   -4.8631    0.9860   -0.3292 N   0  0  0  0  0  0  0  0  0  0  0  0
   -5.4790   -0.1795    0.2026 C   0  0  0  0  0  0  0  0  0  0  0  0
   -6.1029   -0.1064    1.2442 O   0  0  0  0  0  0  0  0  0  0  0  0
   -5.4109   -1.6276   -0.4958 C   0  0  3  0  0  0  0  0  0  0  0  0
   -6.8601   -2.4552   -0.8980 C   0  0  0  0  0  0  0  0  0  0  0  0
   -8.2484   -2.6623    0.0000 C   0  0  0  0  0  0  0  0  0  0  0  0
   -9.4042   -3.6184    0.0000 C   0  0  0  0  0  0  0  0  0  0  0  0
   -9.2045   -1.5065    0.0000 C   0  0  0  0  0  0  0  0  0  0  0  0
   -4.1443   -2.4179   -0.1098 N   0  0  0  0  0  0  0  0  0  0  0  0
   -4.0795   -3.7118    0.3960 C   0  0  0  0  0  0  0  0  0  0  0  0
   -5.1569   -4.2009    0.6952 O   0  0  0  0  0  0  0  0  0  0  0  0
   -2.7963   -4.7142    0.6747 C   0  0  3  0  0  0  0  0  0  0  0  0
   -2.9625   -6.0888   -0.0672 C   0  0  0  0  0  0  0  0  0  0  0  0
   -4.3205   -6.8061    0.1613 C   0  0  0  0  0  0  0  0  0  0  0  0
   -4.3522   -8.2471   -0.2896 C   0  0  0  0  0  0  0  0  0  0  0  0
   -5.4749   -8.9822   -0.0941 N   0  0  0  0  0  0  0  0  0  0  0  0
   -3.3757   -8.7643   -0.8115 O   0  0  0  0  0  0  0  0  0  0  0  0
   -1.2932   -4.4514    0.9164 N   0  0  0  0  0  0  0  0  0  0  0  0
   -0.2073   -4.9027    0.1192 C   0  0  0  0  0  0  0  0  0  0  0  0
   -0.3851   -4.9978   -1.0858 O   0  0  0  0  0  0  0  0  0  0  0  0
    1.1346   -5.6715    0.7142 C   0  0  3  0  0  0  0  0  0  0  0  0
    1.2574   -7.1858    0.0000 C   0  0  0  0  0  0  0  0  0  0  0  0
    2.1391   -8.3993    0.0000 C   0  0  0  0  0  0  0  0  0  0  0  0
    3.0208   -9.6128    0.0000 C   0  0  0  0  0  0  0  0  0  0  0  0
    0.9256   -9.2810    0.0000 C   0  0  0  0  0  0  0  0  0  0  0  0
    2.4054   -4.8587    0.9760 N   0  0  0  0  0  0  0  0  0  0  0  0
    3.2450   -4.0843    0.1585 C   0  0  0  0  0  0  0  0  0  0  0  0
    2.9550   -3.9459   -1.0196 O   0  0  0  0  0  0  0  0  0  0  0  0
    4.6615   -3.4630    0.6841 C   0  0  3  0  0  0  0  0  0  0  0  0
    5.8356   -4.3774    0.0000 C   0  0  0  0  0  0  0  0  0  0  0  0
    7.3090   -4.6585   -0.0000 C   0  0  0  0  0  0  0  0  0  0  0  0
    5.5545   -5.8509    0.0000 C   0  0  0  0  0  0  0  0  0  0  0  0
    4.7541   -1.9123    0.5596 N   0  0  0  0  0  0  0  0  0  0  0  0
    5.6597   -1.1457   -0.2045 C   0  0  0  0  0  0  0  0  0  0  0  0
    6.3850   -1.7878   -0.9371 O   0  0  0  0  0  0  0  0  0  0  0  0
   18.0813    0.1586    0.0000 C   0  0  0  0  0  0  0  0  0  0  0  0
   19.3478    0.9624    0.0000 C   0  0  0  0  0  0  0  0  0  0  0  0
   17.2775    1.4251    0.0000 C   0  0  0  0  0  0  0  0  0  0  0  0
   41.5954    1.8540    0.2787 H   0  0  0  0  0  0  0  0  0  0  0  0
   40.6102    3.3039    0.8721 H   0  0  0  0  0  0  0  0  0  0  0  0
   41.7870    3.2430   -0.0000 H   0  0  0  0  0  0  0  0  0  0  0  0
   39.8750    1.1220   -0.7881 H   0  0  0  0  0  0  0  0  0  0  0  0
   39.6848    1.3258    0.9773 H   0  0  0  0  0  0  0  0  0  0  0  0
   37.6594    2.1597   -1.1762 H   0  0  0  0  0  0  0  0  0  0  0  0
   37.4662    2.4527    0.5774 H   0  0  0  0  0  0  0  0  0  0  0  0
   37.4426   -0.0129    1.0146 H   0  0  0  0  0  0  0  0  0  0  0  0
   37.6834   -0.3655   -0.6951 H   0  0  0  0  0  0  0  0  0  0  0  0
   33.9620   -0.5744   -0.5341 H   0  0  0  0  0  0  0  0  0  0  0  0
   34.3255   -1.2238    1.0792 H   0  0  0  0  0  0  0  0  0  0  0  0
   33.8863   -3.4668    0.2635 H   0  0  0  0  0  0  0  0  0  0  0  0
   33.6026   -2.8256   -1.3893 H   0  0  0  0  0  0  0  0  0  0  0  0
   31.6056   -1.4420   -0.5583 H   0  0  0  0  0  0  0  0  0  0  0  0
   31.6639   -1.0303    1.4880 H   0  0  0  0  0  0  0  0  0  0  0  0
   30.8328   -3.6598   -1.3631 H   0  0  0  0  0  0  0  0  0  0  0  0
   31.3251   -4.3893    0.1772 H   0  0  0  0  0  0  0  0  0  0  0  0
   28.3728   -3.9090   -1.4769 H   0  0  0  0  0  0  0  0  0  0  0  0
   26.7169   -4.9042    1.0933 H   0  0  0  0  0  0  0  0  0  0  0  0
   27.4978   -5.8982   -1.1308 H   0  0  0  0  0  0  0  0  0  0  0  0
   28.5008   -5.7115    0.7570 H   0  0  0  0  0  0  0  0  0  0  0  0
   29.0828   -6.9173   -0.9383 H   0  0  0  0  0  0  0  0  0  0  0  0
   29.1748   -8.8804   -1.0524 H   0  0  0  0  0  0  0  0  0  0  0  0
   30.3098   -8.0295    0.2060 H   0  0  0  0  0  0  0  0  0  0  0  0
   29.8739   -9.3758    0.0000 H   0  0  0  0  0  0  0  0  0  0  0  0
   26.7560   -7.8260   -1.0030 H   0  0  0  0  0  0  0  0  0  0  0  0
   26.8381   -7.8379    1.0411 H   0  0  0  0  0  0  0  0  0  0  0  0
   26.3270   -8.5829    0.0000 H   0  0  0  0  0  0  0  0  0  0  0  0
   24.3213   -4.0901   -1.0314 H   0  0  0  0  0  0  0  0  0  0  0  0
   23.5909   -2.3205    1.0942 H   0  0  0  0  0  0  0  0  0  0  0  0
   24.9509   -1.2467   -1.1139 H   0  0  0  0  0  0  0  0  0  0  0  0
   24.5080   -0.5685    0.5194 H   0  0  0  0  0  0  0  0  0  0  0  0
   27.1317   -1.1281   -0.5409 H   0  0  0  0  0  0  0  0  0  0  0  0
   26.6454   -0.4326    1.0532 H   0  0  0  0  0  0  0  0  0  0  0  0
   28.1861    1.2738   -0.2547 H   0  0  0  0  0  0  0  0  0  0  0  0
   21.2911   -2.0431    1.2743 H   0  0  0  0  0  0  0  0  0  0  0  0
   20.1438   -3.2401   -1.0838 H   0  0  0  0  0  0  0  0  0  0  0  0
   19.8139   -4.9832   -0.3224 H   0  0  0  0  0  0  0  0  0  0  0  0
   20.6596   -4.4065    1.1159 H   0  0  0  0  0  0  0  0  0  0  0  0
   21.7964   -5.8324   -1.0645 H   0  0  0  0  0  0  0  0  0  0  0  0
   20.9330   -6.5333    0.3511 H   0  0  0  0  0  0  0  0  0  0  0  0
   23.2789   -7.6150    0.0633 H   0  0  0  0  0  0  0  0  0  0  0  0
   24.4516   -6.9352    1.2041 H   0  0  0  0  0  0  0  0  0  0  0  0
   17.8720   -2.1041    1.2917 H   0  0  0  0  0  0  0  0  0  0  0  0
   16.7065   -0.5761   -1.1157 H   0  0  0  0  0  0  0  0  0  0  0  0
   14.3134   -0.2434   -1.2152 H   0  0  0  0  0  0  0  0  0  0  0  0
   12.8954   -1.6058    1.1233 H   0  0  0  0  0  0  0  0  0  0  0  0
   12.7059   -2.9317   -0.4712 H   0  0  0  0  0  0  0  0  0  0  0  0
   13.9472   -2.9247   -1.1336 H   0  0  0  0  0  0  0  0  0  0  0  0
   14.7485   -3.8776    1.0721 H   0  0  0  0  0  0  0  0  0  0  0  0
   15.3025   -5.7630    1.0538 H   0  0  0  0  0  0  0  0  0  0  0  0
   16.3469   -4.8461   -0.1098 H   0  0  0  0  0  0  0  0  0  0  0  0
   15.9370   -6.2605    0.0000 H   0  0  0  0  0  0  0  0  0  0  0  0
   13.2501   -5.4298    0.9907 H   0  0  0  0  0  0  0  0  0  0  0  0
   13.2831   -5.3294   -1.0394 H   0  0  0  0  0  0  0  0  0  0  0  0
   12.3901   -5.4678   -0.0000 H   0  0  0  0  0  0  0  0  0  0  0  0
   10.7587   -1.0136   -1.3466 H   0  0  0  0  0  0  0  0  0  0  0  0
   10.0344    1.2992   -1.9002 H   0  0  0  0  0  0  0  0  0  0  0  0
    9.4456    2.8930   -0.0022 H   0  0  0  0  0  0  0  0  0  0  0  0
   10.4253    1.8380    1.0604 H   0  0  0  0  0  0  0  0  0  0  0  0
   11.2069    3.4011   -1.5423 H   0  0  0  0  0  0  0  0  0  0  0  0
   12.3258    2.2178   -0.8788 H   0  0  0  0  0  0  0  0  0  0  0  0
   12.7041    5.8688    0.6703 H   0  0  0  0  0  0  0  0  0  0  0  0
   11.9107    5.5550   -0.8846 H   0  0  0  0  0  0  0  0  0  0  0  0
    7.5525    1.5547    0.6602 H   0  0  0  0  0  0  0  0  0  0  0  0
    5.8441    0.4583   -1.4359 H   0  0  0  0  0  0  0  0  0  0  0  0
    5.2505    2.5012   -1.1740 H   0  0  0  0  0  0  0  0  0  0  0  0
    3.8649    1.4811   -0.7341 H   0  0  0  0  0  0  0  0  0  0  0  0
    3.6452    4.7414   -0.9893 H   0  0  0  0  0  0  0  0  0  0  0  0
    2.8511    6.4969    1.0609 H   0  0  0  0  0  0  0  0  0  0  0  0
    3.2851    8.1943   -1.1071 H   0  0  0  0  0  0  0  0  0  0  0  0
    2.1134    8.1907    0.1909 H   0  0  0  0  0  0  0  0  0  0  0  0
    3.2064    9.1225    0.0000 H   0  0  0  0  0  0  0  0  0  0  0  0
    4.9527    6.8385   -1.0586 H   0  0  0  0  0  0  0  0  0  0  0  0
    5.0105    7.0658    0.9608 H   0  0  0  0  0  0  0  0  0  0  0  0
    5.7764    6.5525    0.0000 H   0  0  0  0  0  0  0  0  0  0  0  0
    1.4543    4.6451   -1.2812 H   0  0  0  0  0  0  0  0  0  0  0  0
   -1.0447    4.6844   -1.1616 H   0  0  0  0  0  0  0  0  0  0  0  0
   -2.1273    5.7707    1.4735 H   0  0  0  0  0  0  0  0  0  0  0  0
   -2.9610    5.7340   -0.1456 H   0  0  0  0  0  0  0  0  0  0  0  0
   -1.3909    7.2824   -1.1115 H   0  0  0  0  0  0  0  0  0  0  0  0
   -0.5842    7.5012    0.4963 H   0  0  0  0  0  0  0  0  0  0  0  0
   -1.6833    9.9081   -0.4416 H   0  0  0  0  0  0  0  0  0  0  0  0
   -3.2705   10.2159    0.2887 H   0  0  0  0  0  0  0  0  0  0  0  0
   -2.1207    2.6213   -0.7642 H   0  0  0  0  0  0  0  0  0  0  0  0
   -5.2263    2.8942   -0.9844 H   0  0  0  0  0  0  0  0  0  0  0  0
   -6.5521    2.9235    1.7813 H   0  0  0  0  0  0  0  0  0  0  0  0
   -7.1382    1.8174    0.5588 H   0  0  0  0  0  0  0  0  0  0  0  0
   -7.6607    3.4409   -1.0732 H   0  0  0  0  0  0  0  0  0  0  0  0
   -9.4608    3.8689    1.1090 H   0  0  0  0  0  0  0  0  0  0  0  0
   -9.5136    2.7338   -0.2680 H   0  0  0  0  0  0  0  0  0  0  0  0
  -10.4002    3.8671   -0.0000 H   0  0  0  0  0  0  0  0  0  0  0  0
   -6.6942    5.2584   -0.3758 H   0  0  0  0  0  0  0  0  0  0  0  0
   -7.7055    5.3284    1.1097 H   0  0  0  0  0  0  0  0  0  0  0  0
   -7.6739    6.2706   -0.0000 H   0  0  0  0  0  0  0  0  0  0  0  0
   -4.3040    0.8328   -1.1814 H   0  0  0  0  0  0  0  0  0  0  0  0
   -5.1189   -1.3618   -1.5356 H   0  0  0  0  0  0  0  0  0  0  0  0
   -7.2305   -1.9997   -1.8427 H   0  0  0  0  0  0  0  0  0  0  0  0
   -6.5328   -3.4645   -1.2182 H   0  0  0  0  0  0  0  0  0  0  0  0
   -7.7943   -2.7860    1.0152 H   0  0  0  0  0  0  0  0  0  0  0  0
   -9.7599   -3.5216    1.0649 H   0  0  0  0  0  0  0  0  0  0  0  0
   -8.7722   -4.5315   -0.0571 H   0  0  0  0  0  0  0  0  0  0  0  0
  -10.2287   -4.3004    0.0000 H   0  0  0  0  0  0  0  0  0  0  0  0
   -8.4619   -0.7351    0.2927 H   0  0  0  0  0  0  0  0  0  0  0  0
   -9.3691   -1.4513   -1.1052 H   0  0  0  0  0  0  0  0  0  0  0  0
   -9.8865   -0.6820   -0.0000 H   0  0  0  0  0  0  0  0  0  0  0  0
   -3.2427   -1.9676   -0.3240 H   0  0  0  0  0  0  0  0  0  0  0  0
   -3.0905   -4.9969    1.7126 H   0  0  0  0  0  0  0  0  0  0  0  0
   -2.7707   -5.9851   -1.1559 H   0  0  0  0  0  0  0  0  0  0  0  0
   -2.1947   -6.7684    0.3627 H   0  0  0  0  0  0  0  0  0  0  0  0
   -5.1314   -6.2794   -0.3811 H   0  0  0  0  0  0  0  0  0  0  0  0
   -4.5425   -6.8122    1.2511 H   0  0  0  0  0  0  0  0  0  0  0  0
   -6.3048   -8.5639    0.3518 H   0  0  0  0  0  0  0  0  0  0  0  0
   -5.5140   -9.9718   -0.3798 H   0  0  0  0  0  0  0  0  0  0  0  0
   -1.0551   -4.4184    1.9193 H   0  0  0  0  0  0  0  0  0  0  0  0
    0.8127   -5.9649    1.7380 H   0  0  0  0  0  0  0  0  0  0  0  0
    0.1227   -7.2845   -0.0126 H   0  0  0  0  0  0  0  0  0  0  0  0
    1.4197   -6.8916   -1.0617 H   0  0  0  0  0  0  0  0  0  0  0  0
    2.3786   -8.1920    1.0740 H   0  0  0  0  0  0  0  0  0  0  0  0
    2.9789   -9.8120   -1.1019 H   0  0  0  0  0  0  0  0  0  0  0  0
    3.9887   -9.0730    0.1425 H   0  0  0  0  0  0  0  0  0  0  0  0
    3.6497  -10.4784    0.0000 H   0  0  0  0  0  0  0  0  0  0  0  0
    0.4436   -9.1279    1.0116 H   0  0  0  0  0  0  0  0  0  0  0  0
    0.5555   -9.1853   -1.0597 H   0  0  0  0  0  0  0  0  0  0  0  0
    0.0600   -9.9099    0.0000 H   0  0  0  0  0  0  0  0  0  0  0  0
    2.7188   -4.9058    1.9567 H   0  0  0  0  0  0  0  0  0  0  0  0
    4.7374   -3.6966    1.7661 H   0  0  0  0  0  0  0  0  0  0  0  0
    5.6654   -4.0998   -1.0668 H   0  0  0  0  0  0  0  0  0  0  0  0
    7.4350   -4.7210    1.1094 H   0  0  0  0  0  0  0  0  0  0  0  0
    7.6464   -3.6437   -0.2769 H   0  0  0  0  0  0  0  0  0  0  0  0
    8.3600   -4.8590    0.0000 H   0  0  0  0  0  0  0  0  0  0  0  0
    5.7685   -6.1247    1.0661 H   0  0  0  0  0  0  0  0  0  0  0  0
    6.0433   -6.2718   -0.9300 H   0  0  0  0  0  0  0  0  0  0  0  0
    5.3540   -6.9019    0.0000 H   0  0  0  0  0  0  0  0  0  0  0  0
    4.0822   -1.3788    1.1299 H   0  0  0  0  0  0  0  0  0  0  0  0
   18.1920    0.0335    1.1307 H   0  0  0  0  0  0  0  0  0  0  0  0
   20.0392    0.0949    0.0194 H   0  0  0  0  0  0  0  0  0  0  0  0
   19.3945    1.5389    0.9817 H   0  0  0  0  0  0  0  0  0  0  0  0
   20.2512    1.5358    0.0000 H   0  0  0  0  0  0  0  0  0  0  0  0
   16.9689    1.5137   -1.0758 H   0  0  0  0  0  0  0  0  0  0  0  0
   16.6011    1.4090    0.9108 H   0  0  0  0  0  0  0  0  0  0  0  0
   16.7041    2.3285    0.0000 H   0  0  0  0  0  0  0  0  0  0  0  0
  1  2  1  0  0  0  0
  1125  1  0  0  0  0
  1126  1  0  0  0  0
  1127  1  0  0  0  0
  2  3  1  0  0  0  0
  2128  1  0  0  0  0
  2129  1  0  0  0  0
  3  4  1  0  0  0  0
  3130  1  0  0  0  0
  3131  1  0  0  0  0
  4  5  1  0  0  0  0
  4132  1  0  0  0  0
  4133  1  0  0  0  0
  5  6  1  0  0  0  0
  6  7  1  0  0  0  0
  6134  1  0  0  0  0
  6135  1  0  0  0  0
  7  8  1  0  0  0  0
  7136  1  0  0  0  0
  7137  1  0  0  0  0
  8  9  1  0  0  0  0
  8 10  1  0  0  0  0
  8138  1  0  0  0  0
  9139  1  0  0  0  0
 10 11  1  0  0  0  0
 10140  1  0  0  0  0
 10141  1  0  0  0  0
 11 12  2  0  0  0  0
 11 13  1  0  0  0  0
 13 14  1  0  0  0  0
 13142  1  0  0  0  0
 14 15  1  0  0  0  0
 14 19  1  0  0  0  0
 14143  1  0  0  0  0
 15 16  1  0  0  0  0
 15144  1  0  0  0  0
 15145  1  0  0  0  0
 16 17  1  0  0  0  0
 16 18  1  0  0  0  0
 16146  1  0  0  0  0
 17147  1  0  0  0  0
 17148  1  0  0  0  0
 17149  1  0  0  0  0
 18150  1  0  0  0  0
 18151  1  0  0  0  0
 18152  1  0  0  0  0
 19 20  2  0  0  0  0
 19 21  1  0  0  0  0
 21 22  1  0  0  0  0
 21153  1  0  0  0  0
 22 23  1  0  0  0  0
 22 28  1  0  0  0  0
 22154  1  0  0  0  0
 23 24  1  0  0  0  0
 23155  1  0  0  0  0
 23156  1  0  0  0  0
 24 25  1  0  0  0  0
 24157  1  0  0  0  0
 24158  1  0  0  0  0
 25 26  2  0  0  0  0
 25 27  1  0  0  0  0
 27159  1  0  0  0  0
 28 29  2  0  0  0  0
 28 30  1  0  0  0  0
 30 31  1  0  0  0  0
 30160  1  0  0  0  0
 31 32  1  0  0  0  0
 31 37  1  0  0  0  0
 31161  1  0  0  0  0
 32 33  1  0  0  0  0
 32162  1  0  0  0  0
 32163  1  0  0  0  0
 33 34  1  0  0  0  0
 33164  1  0  0  0  0
 33165  1  0  0  0  0
 34 35  1  0  0  0  0
 34 36  2  0  0  0  0
 35166  1  0  0  0  0
 35167  1  0  0  0  0
 37 38  2  0  0  0  0
 37 39  1  0  0  0  0
 39 40  1  0  0  0  0
 39168  1  0  0  0  0
 40 41  1  0  0  0  0
 40122  1  0  0  0  0
 40169  1  0  0  0  0
 41 42  2  0  0  0  0
 41 43  1  0  0  0  0
 43 44  1  0  0  0  0
 43170  1  0  0  0  0
 44 45  1  0  0  0  0
 44 49  1  0  0  0  0
 44171  1  0  0  0  0
 45 46  1  0  0  0  0
 45172  1  0  0  0  0
 45173  1  0  0  0  0
 46 47  1  0  0  0  0
 46 48  1  0  0  0  0
 46174  1  0  0  0  0
 47175  1  0  0  0  0
 47176  1  0  0  0  0
 47177  1  0  0  0  0
 48178  1  0  0  0  0
 48179  1  0  0  0  0
 48180  1  0  0  0  0
 49 50  2  0  0  0  0
 49 51  1  0  0  0  0
 51 52  1  0  0  0  0
 51181  1  0  0  0  0
 52 53  1  0  0  0  0
 52 58  1  0  0  0  0
 52182  1  0  0  0  0
 53 54  1  0  0  0  0
 53183  1  0  0  0  0
 53184  1  0  0  0  0
 54 55  1  0  0  0  0
 54185  1  0  0  0  0
 54186  1  0  0  0  0
 55 56  1  0  0  0  0
 55 57  2  0  0  0  0
 56187  1  0  0  0  0
 56188  1  0  0  0  0
 58 59  2  0  0  0  0
 58 60  1  0  0  0  0
 60 61  1  0  0  0  0
 60189  1  0  0  0  0
 61 62  1  0  0  0  0
 61190  1  0  0  0  0
 62 63  1  0  0  0  0
 62191  1  0  0  0  0
 62192  1  0  0  0  0
 63 64  1  0  0  0  0
 64 65  2  0  0  0  0
 64 66  1  0  0  0  0
 66 67  1  0  0  0  0
 66 70  1  0  0  0  0
 66193  1  0  0  0  0
 67 68  1  0  0  0  0
 67 69  1  0  0  0  0
 67194  1  0  0  0  0
 68195  1  0  0  0  0
 68196  1  0  0  0  0
 68197  1  0  0  0  0
 69198  1  0  0  0  0
 69199  1  0  0  0  0
 69200  1  0  0  0  0
 70 71  1  0  0  0  0
 70201  1  0  0  0  0
 71 72  2  0  0  0  0
 71 73  1  0  0  0  0
 73 74  1  0  0  0  0
 73 79  1  0  0  0  0
 73202  1  0  0  0  0
 74 75  1  0  0  0  0
 74203  1  0  0  0  0
 74204  1  0  0  0  0
 75 76  1  0  0  0  0
 75205  1  0  0  0  0
 75206  1  0  0  0  0
 76 77  1  0  0  0  0
 76 78  2  0  0  0  0
 77207  1  0  0  0  0
 77208  1  0  0  0  0
 79 80  1  0  0  0  0
 79209  1  0  0  0  0
 80 81  2  0  0  0  0
 80 82  1  0  0  0  0
 82 83  1  0  0  0  0
 82 87  1  0  0  0  0
 82210  1  0  0  0  0
 83 84  1  0  0  0  0
 83211  1  0  0  0  0
 83212  1  0  0  0  0
 84 85  1  0  0  0  0
 84 86  1  0  0  0  0
 84213  1  0  0  0  0
 85214  1  0  0  0  0
 85215  1  0  0  0  0
 85216  1  0  0  0  0
 86217  1  0  0  0  0
 86218  1  0  0  0  0
 86219  1  0  0  0  0
 87 88  1  0  0  0  0
 87220  1  0  0  0  0
 88 89  2  0  0  0  0
 88 90  1  0  0  0  0
 90 91  1  0  0  0  0
 90 95  1  0  0  0  0
 90221  1  0  0  0  0
 91 92  1  0  0  0  0
 91222  1  0  0  0  0
 91223  1  0  0  0  0
 92 93  1  0  0  0  0
 92 94  1  0  0  0  0
 92224  1  0  0  0  0
 93225  1  0  0  0  0
 93226  1  0  0  0  0
 93227  1  0  0  0  0
 94228  1  0  0  0  0
 94229  1  0  0  0  0
 94230  1  0  0  0  0
 95 96  1  0  0  0  0
 95231  1  0  0  0  0
 96 97  2  0  0  0  0
 96 98  1  0  0  0  0
 98 99  1  0  0  0  0
 98104  1  0  0  0  0
 98232  1  0  0  0  0
 99100  1  0  0  0  0
 99233  1  0  0  0  0
 99234  1  0  0  0  0
100101  1  0  0  0  0
100235  1  0  0  0  0
100236  1  0  0  0  0
101102  1  0  0  0  0
101103  2  0  0  0  0
102237  1  0  0  0  0
102238  1  0  0  0  0
104105  1  0  0  0  0
104239  1  0  0  0  0
105106  2  0  0  0  0
105107  1  0  0  0  0
107108  1  0  0  0  0
107112  1  0  0  0  0
107240  1  0  0  0  0
108109  1  0  0  0  0
108241  1  0  0  0  0
108242  1  0  0  0  0
109110  1  0  0  0  0
109111  1  0  0  0  0
109243  1  0  0  0  0
110244  1  0  0  0  0
110245  1  0  0  0  0
110246  1  0  0  0  0
111247  1  0  0  0  0
111248  1  0  0  0  0
111249  1  0  0  0  0
112113  1  0  0  0  0
112250  1  0  0  0  0
113114  2  0  0  0  0
113115  1  0  0  0  0
115116  1  0  0  0  0
115119  1  0  0  0  0
115251  1  0  0  0  0
116117  1  0  0  0  0
116118  1  0  0  0  0
116252  1  0  0  0  0
117253  1  0  0  0  0
117254  1  0  0  0  0
117255  1  0  0  0  0
118256  1  0  0  0  0
118257  1  0  0  0  0
118258  1  0  0  0  0
119120  1  0  0  0  0
119259  1  0  0  0  0
120121  2  0  0  0  0
120 61  1  0  0  0  0
122123  1  0  0  0  0
122124  1  0  0  0  0
122260  1  0  0  0  0
123261  1  0  0  0  0
123262  1  0  0  0  0
123263  1  0  0  0  0
124264  1  0  0  0  0
124265  1  0  0  0  0
124266  1  0  0  0  0
M  END
>  <IDENTIFIER>
CNP0322835.0

>  <Energy>
18990.3

$$$$
