
 OpenBabel09052509433D

 47 51  0  0  0  0  0  0  0  0999 V2000
    1.8301    1.8792   -1.1061 O   0  0  0  0  0  0  0  0  0  0  0  0
    2.1065    0.8228   -0.5682 C   0  0  0  0  0  0  0  0  0  0  0  0
    3.2303    0.2211   -0.9306 O   0  0  0  0  0  0  0  0  0  0  0  0
    3.6438   -0.9256   -0.4159 C   0  0  0  0  0  0  0  0  0  0  0  0
    4.8574   -1.4672   -0.8547 C   0  0  0  0  0  0  0  0  0  0  0  0
    5.3264   -2.6666   -0.3200 C   0  0  0  0  0  0  0  0  0  0  0  0
    4.5834   -3.3327    0.6540 C   0  0  0  0  0  0  0  0  0  0  0  0
    3.3670   -2.8047    1.0980 C   0  0  0  0  0  0  0  0  0  0  0  0
    2.8779   -1.5889    0.5677 C   0  0  0  0  0  0  0  0  0  0  0  0
    1.6615   -0.9901    0.9801 C   0  0  0  0  0  0  0  0  0  0  0  0
    0.8737   -1.5541    1.9266 O   0  0  0  0  0  0  0  0  0  0  0  0
    1.2547    0.2449    0.4141 C   0  0  0  0  0  0  0  0  0  0  0  0
   -0.0550    0.8929    0.9325 C   0  0  0  0  0  0  0  0  0  0  0  0
   -0.1686    2.4233    0.7374 C   0  0  0  0  0  0  0  0  0  0  0  0
    0.9405    3.1765    1.1979 C   0  0  0  0  0  0  0  0  0  0  0  0
    0.9772    4.5656    1.1026 C   0  0  0  0  0  0  0  0  0  0  0  0
   -0.1003    5.2538    0.5615 C   0  0  0  0  0  0  0  0  0  0  0  0
   -1.2215    4.5544    0.1259 C   0  0  0  0  0  0  0  0  0  0  0  0
   -1.2812    3.1548    0.2089 C   0  0  0  0  0  0  0  0  0  0  0  0
   -2.8073    2.4672   -0.3294 Cl  0  0  0  0  0  0  0  0  0  0  0  0
   -1.2669    0.0240    0.5410 C   0  0  0  0  0  0  0  0  0  0  0  0
   -1.6410   -0.2306   -0.8103 C   0  0  0  0  0  0  0  0  0  0  0  0
   -0.9774    0.3100   -1.8544 O   0  0  0  0  0  0  0  0  0  0  0  0
   -2.7567   -1.0425   -1.0800 C   0  0  0  0  0  0  0  0  0  0  0  0
   -3.1861   -1.3083   -2.3954 C   0  0  0  0  0  0  0  0  0  0  0  0
   -4.3095   -2.1094   -2.6207 C   0  0  0  0  0  0  0  0  0  0  0  0
   -5.0112   -2.6539   -1.5426 C   0  0  0  0  0  0  0  0  0  0  0  0
   -4.5937   -2.3968   -0.2342 C   0  0  0  0  0  0  0  0  0  0  0  0
   -3.4726   -1.5929    0.0015 C   0  0  0  0  0  0  0  0  0  0  0  0
   -3.0956   -1.3469    1.2472 O   0  0  0  0  0  0  0  0  0  0  0  0
   -2.0532   -0.5841    1.5550 C   0  0  0  0  0  0  0  0  0  0  0  0
   -1.7911   -0.4153    2.7321 O   0  0  0  0  0  0  0  0  0  0  0  0
    5.4409   -0.9531   -1.6083 H   0  0  0  0  0  0  0  0  0  0  0  0
    6.2680   -3.0791   -0.6591 H   0  0  0  0  0  0  0  0  0  0  0  0
    4.9523   -4.2620    1.0691 H   0  0  0  0  0  0  0  0  0  0  0  0
    2.8386   -3.3625    1.8545 H   0  0  0  0  0  0  0  0  0  0  0  0
    1.0522   -2.3822    2.3860 H   0  0  0  0  0  0  0  0  0  0  0  0
    0.0540    0.8573    2.0378 H   0  0  0  0  0  0  0  0  0  0  0  0
    1.7980    2.6770    1.6329 H   0  0  0  0  0  0  0  0  0  0  0  0
    1.8450    5.1094    1.4530 H   0  0  0  0  0  0  0  0  0  0  0  0
   -0.0733    6.3336    0.4914 H   0  0  0  0  0  0  0  0  0  0  0  0
   -2.0605    5.1118   -0.2722 H   0  0  0  0  0  0  0  0  0  0  0  0
   -0.2692    0.9513   -1.7666 H   0  0  0  0  0  0  0  0  0  0  0  0
   -2.6624   -0.8964   -3.2493 H   0  0  0  0  0  0  0  0  0  0  0  0
   -4.6376   -2.3079   -3.6328 H   0  0  0  0  0  0  0  0  0  0  0  0
   -5.8811   -3.2728   -1.7209 H   0  0  0  0  0  0  0  0  0  0  0  0
   -5.1447   -2.8189    0.5967 H   0  0  0  0  0  0  0  0  0  0  0  0
  1  2  2  0  0  0  0
  2  3  1  0  0  0  0
  3  4  1  0  0  0  0
  4  5  2  0  0  0  0
  5  6  1  0  0  0  0
  5 33  1  0  0  0  0
  6  7  2  0  0  0  0
  6 34  1  0  0  0  0
  7  8  1  0  0  0  0
  7 35  1  0  0  0  0
  8  9  2  0  0  0  0
  8 36  1  0  0  0  0
  9 10  1  0  0  0  0
  9  4  1  0  0  0  0
 10 11  1  0  0  0  0
 10 12  2  0  0  0  0
 11 37  1  0  0  0  0
 12 13  1  0  0  0  0
 12  2  1  0  0  0  0
 13 14  1  0  0  0  0
 13 21  1  0  0  0  0
 13 38  1  0  0  0  0
 14 15  2  0  0  0  0
 15 16  1  0  0  0  0
 15 39  1  0  0  0  0
 16 17  2  0  0  0  0
 16 40  1  0  0  0  0
 17 18  1  0  0  0  0
 17 41  1  0  0  0  0
 18 19  2  0  0  0  0
 18 42  1  0  0  0  0
 19 20  1  0  0  0  0
 19 14  1  0  0  0  0
 21 22  2  0  0  0  0
 22 23  1  0  0  0  0
 22 24  1  0  0  0  0
 23 43  1  0  0  0  0
 24 25  2  0  0  0  0
 25 26  1  0  0  0  0
 25 44  1  0  0  0  0
 26 27  2  0  0  0  0
 26 45  1  0  0  0  0
 27 28  1  0  0  0  0
 27 46  1  0  0  0  0
 28 29  2  0  0  0  0
 28 47  1  0  0  0  0
 29 30  1  0  0  0  0
 29 24  1  0  0  0  0
 30 31  1  0  0  0  0
 31 32  2  0  0  0  0
 31 21  1  0  0  0  0
M  END
>  <IDENTIFIER>
CNP0548354.0

>  <Energy>
407.04

$$$$
