
 OpenBabel09082504073D

 54 55  0  0  0  0  0  0  0  0999 V2000
    5.5882   -1.7165    1.4872 C   0  0  0  0  0  0  0  0  0  0  0  0
    5.4717   -1.3538    0.0338 C   0  0  0  0  0  0  0  0  0  0  0  0
    4.4331   -0.6786   -0.5223 C   0  0  0  0  0  0  0  0  0  0  0  0
    4.4503   -0.4067   -2.0061 C   0  0  0  0  0  0  0  0  0  0  0  0
    3.2511   -0.1870    0.2468 C   0  0  0  0  0  0  0  0  0  0  0  0
    3.1921   -0.3284    1.4612 O   0  0  0  0  0  0  0  0  0  0  0  0
    2.2135    0.3916   -0.4244 O   0  0  0  0  0  0  0  0  0  0  0  0
    1.0320    0.8412    0.1538 C   0  0  1  0  0  0  0  0  0  0  0  0
    0.8851    2.3172   -0.1589 C   0  0  0  0  0  0  0  0  0  0  0  0
   -0.1682    3.1083    0.1594 C   0  0  0  0  0  0  0  0  0  0  0  0
   -0.1560    4.5476   -0.3026 C   0  0  0  0  0  0  0  0  0  0  0  0
   -1.3829    2.6603    0.9562 C   0  0  0  0  0  0  0  0  0  0  0  0
   -2.1890    1.4676    0.3847 C   0  0  0  0  0  0  0  0  0  0  0  0
   -1.4393    0.1127    0.5319 C   0  0  1  0  0  0  0  0  0  0  0  0
   -0.9957    0.0363    1.8766 O   0  0  0  0  0  0  0  0  0  0  0  0
   -2.2236   -1.2631    0.2920 C   0  0  1  0  0  0  0  0  0  0  0  0
   -3.7594   -1.3018    0.0373 C   0  0  0  0  0  0  0  0  0  0  0  0
   -4.1901   -0.7576   -1.3320 C   0  0  0  0  0  0  0  0  0  0  0  0
   -4.2883   -2.7411    0.1906 C   0  0  0  0  0  0  0  0  0  0  0  0
   -1.3300   -2.1414   -0.5977 C   0  0  0  0  0  0  0  0  0  0  0  0
   -0.0131   -1.4844   -0.3771 C   0  0  0  0  0  0  0  0  0  0  0  0
    0.9798   -2.0795    0.0113 O   0  0  0  0  0  0  0  0  0  0  0  0
   -0.1801    0.0118   -0.4027 C   0  0  2  0  0  0  0  0  0  0  0  0
   -0.4462    0.4178   -1.8948 C   0  0  0  0  0  0  0  0  0  0  0  0
    6.5309   -2.2766    1.6585 H   0  0  0  0  0  0  0  0  0  0  0  0
    4.7393   -2.3665    1.7881 H   0  0  0  0  0  0  0  0  0  0  0  0
    5.6082   -0.8007    2.1140 H   0  0  0  0  0  0  0  0  0  0  0  0
    6.2905   -1.6786   -0.6034 H   0  0  0  0  0  0  0  0  0  0  0  0
    5.3618   -0.8084   -2.5007 H   0  0  0  0  0  0  0  0  0  0  0  0
    4.4181    0.6888   -2.1821 H   0  0  0  0  0  0  0  0  0  0  0  0
    3.5648   -0.8773   -2.4813 H   0  0  0  0  0  0  0  0  0  0  0  0
    1.1007    0.7302    1.2551 H   0  0  0  0  0  0  0  0  0  0  0  0
    1.6944    2.7557   -0.7401 H   0  0  0  0  0  0  0  0  0  0  0  0
    0.7607    4.8083   -0.8739 H   0  0  0  0  0  0  0  0  0  0  0  0
   -0.2125    5.2187    0.5802 H   0  0  0  0  0  0  0  0  0  0  0  0
   -1.0330    4.7350   -0.9571 H   0  0  0  0  0  0  0  0  0  0  0  0
   -2.0865    3.5195    1.0188 H   0  0  0  0  0  0  0  0  0  0  0  0
   -1.0687    2.4468    1.9983 H   0  0  0  0  0  0  0  0  0  0  0  0
   -2.4949    1.6900   -0.6536 H   0  0  0  0  0  0  0  0  0  0  0  0
   -3.1125    1.3977    0.9978 H   0  0  0  0  0  0  0  0  0  0  0  0
   -1.7893    0.0856    2.4742 H   0  0  0  0  0  0  0  0  0  0  0  0
   -2.1326   -1.7887    1.2734 H   0  0  0  0  0  0  0  0  0  0  0  0
   -4.2470   -0.6916    0.8287 H   0  0  0  0  0  0  0  0  0  0  0  0
   -3.7601   -1.3594   -2.1574 H   0  0  0  0  0  0  0  0  0  0  0  0
   -3.9009    0.2950   -1.4690 H   0  0  0  0  0  0  0  0  0  0  0  0
   -5.2981   -0.8004   -1.4128 H   0  0  0  0  0  0  0  0  0  0  0  0
   -3.8564   -3.4087   -0.5855 H   0  0  0  0  0  0  0  0  0  0  0  0
   -5.3953   -2.7592    0.0949 H   0  0  0  0  0  0  0  0  0  0  0  0
   -4.0305   -3.1476    1.1920 H   0  0  0  0  0  0  0  0  0  0  0  0
   -1.6021   -2.0390   -1.6635 H   0  0  0  0  0  0  0  0  0  0  0  0
   -1.3606   -3.2249   -0.3535 H   0  0  0  0  0  0  0  0  0  0  0  0
    0.4412    0.1749   -2.5187 H   0  0  0  0  0  0  0  0  0  0  0  0
   -0.6406    1.5015   -2.0145 H   0  0  0  0  0  0  0  0  0  0  0  0
   -1.3306   -0.0674   -2.3452 H   0  0  0  0  0  0  0  0  0  0  0  0
  1  2  1  0  0  0  0
  1 25  1  0  0  0  0
  1 26  1  0  0  0  0
  1 27  1  0  0  0  0
  2  3  2  0  0  0  0
  2 28  1  0  0  0  0
  3  4  1  0  0  0  0
  3  5  1  0  0  0  0
  4 29  1  0  0  0  0
  4 30  1  0  0  0  0
  4 31  1  0  0  0  0
  5  6  2  0  0  0  0
  5  7  1  0  0  0  0
  8  7  1  0  0  0  0
  8  9  1  0  0  0  0
  8 32  1  1  0  0  0
  9 10  2  0  0  0  0
  9 33  1  0  0  0  0
 10 11  1  0  0  0  0
 10 12  1  0  0  0  0
 11 34  1  0  0  0  0
 11 35  1  0  0  0  0
 11 36  1  0  0  0  0
 12 13  1  0  0  0  0
 12 37  1  0  0  0  0
 12 38  1  0  0  0  0
 13 14  1  0  0  0  0
 13 39  1  0  0  0  0
 13 40  1  0  0  0  0
 14 15  1  1  0  0  0
 14 16  1  0  0  0  0
 15 41  1  0  0  0  0
 16 17  1  0  0  0  0
 16 20  1  0  0  0  0
 16 42  1  1  0  0  0
 17 18  1  0  0  0  0
 17 19  1  0  0  0  0
 17 43  1  0  0  0  0
 18 44  1  0  0  0  0
 18 45  1  0  0  0  0
 18 46  1  0  0  0  0
 19 47  1  0  0  0  0
 19 48  1  0  0  0  0
 19 49  1  0  0  0  0
 20 21  1  0  0  0  0
 20 50  1  0  0  0  0
 20 51  1  0  0  0  0
 21 22  2  0  0  0  0
 21 23  1  0  0  0  0
 23 24  1  6  0  0  0
 23  8  1  0  0  0  0
 23 14  1  0  0  0  0
 24 52  1  0  0  0  0
 24 53  1  0  0  0  0
 24 54  1  0  0  0  0
M  END
>  <IDENTIFIER>
CNP0258169.1

>  <Energy>
548.061

$$$$
