
 OpenBabel09062502193D

 55 58  0  0  0  0  0  0  0  0999 V2000
   -7.4471    1.5391   -1.5310 C   0  0  0  0  0  0  0  0  0  0  0  0
   -7.1027    1.4403   -0.1655 O   0  0  0  0  0  0  0  0  0  0  0  0
   -7.6427    0.2611    0.4050 C   0  0  0  0  0  0  0  0  0  0  0  0
   -6.7336   -0.9481    0.1554 C   0  0  0  0  0  0  0  0  0  0  0  0
   -5.3802   -0.6967    0.6625 N   0  0  0  0  0  0  0  0  0  0  0  0
   -5.0504   -0.5182    1.9625 C   0  0  0  0  0  0  0  0  0  0  0  0
   -3.6849   -0.3106    2.0891 C   0  0  0  0  0  0  0  0  0  0  0  0
   -3.1687   -0.3623    0.8051 C   0  0  0  0  0  0  0  0  0  0  0  0
   -1.8472   -0.2114    0.3368 C   0  0  0  0  0  0  0  0  0  0  0  0
   -0.7802    0.0228    1.2768 N   0  0  0  0  0  0  0  0  0  0  0  0
    0.5302    0.2868    0.9904 C   0  0  0  0  0  0  0  0  0  0  0  0
    0.9204    0.3756   -0.1601 O   0  0  0  0  0  0  0  0  0  0  0  0
    1.5102    0.4847    2.1349 C   0  0  0  0  0  0  0  0  0  0  0  0
    2.9643    0.8217    1.7305 C   0  0  2  0  0  0  0  0  0  0  0  0
    3.0219    2.0112    0.9099 N   0  0  0  0  0  0  0  0  0  0  0  0
    3.5685    1.6927   -0.2791 C   0  0  0  0  0  0  0  0  0  0  0  0
    3.7317    2.5071   -1.1754 O   0  0  0  0  0  0  0  0  0  0  0  0
    3.9202    0.3920   -0.3713 N   0  0  0  0  0  0  0  0  0  0  0  0
    4.5181   -0.2397   -1.5412 C   0  0  0  0  0  0  0  0  0  0  0  0
    5.9924   -0.5173   -1.3411 C   0  0  0  0  0  0  0  0  0  0  0  0
    6.9393    0.2437   -2.0532 C   0  0  0  0  0  0  0  0  0  0  0  0
    8.3071    0.0168   -1.8830 C   0  0  0  0  0  0  0  0  0  0  0  0
    8.7474   -0.9774   -1.0081 C   0  0  0  0  0  0  0  0  0  0  0  0
    7.8193   -1.7476   -0.3043 C   0  0  0  0  0  0  0  0  0  0  0  0
    6.4485   -1.5209   -0.4675 C   0  0  0  0  0  0  0  0  0  0  0  0
    3.5853   -0.1879    0.8045 C   0  0  0  0  0  0  0  0  0  0  0  0
    3.7345   -1.3723    1.0594 O   0  0  0  0  0  0  0  0  0  0  0  0
   -1.6689   -0.3148   -1.0734 C   0  0  0  0  0  0  0  0  0  0  0  0
   -2.7602   -0.5538   -1.9300 C   0  0  0  0  0  0  0  0  0  0  0  0
   -4.0540   -0.7000   -1.4205 C   0  0  0  0  0  0  0  0  0  0  0  0
   -4.2305   -0.5994   -0.0401 C   0  0  0  0  0  0  0  0  0  0  0  0
   -7.0952    2.5215   -1.9069 H   0  0  0  0  0  0  0  0  0  0  0  0
   -8.5485    1.5161   -1.6848 H   0  0  0  0  0  0  0  0  0  0  0  0
   -6.9333    0.7628   -2.1362 H   0  0  0  0  0  0  0  0  0  0  0  0
   -8.6790    0.0504    0.0524 H   0  0  0  0  0  0  0  0  0  0  0  0
   -7.7311    0.4267    1.4992 H   0  0  0  0  0  0  0  0  0  0  0  0
   -6.7181   -1.1615   -0.9293 H   0  0  0  0  0  0  0  0  0  0  0  0
   -7.1525   -1.8478    0.6551 H   0  0  0  0  0  0  0  0  0  0  0  0
   -5.7583   -0.5400    2.7813 H   0  0  0  0  0  0  0  0  0  0  0  0
   -3.1533   -0.1408    3.0150 H   0  0  0  0  0  0  0  0  0  0  0  0
   -1.0231   -0.0039    2.2773 H   0  0  0  0  0  0  0  0  0  0  0  0
    1.5214   -0.4425    2.7476 H   0  0  0  0  0  0  0  0  0  0  0  0
    1.1349    1.3141    2.7727 H   0  0  0  0  0  0  0  0  0  0  0  0
    3.5865    0.9499    2.6419 H   0  0  0  0  0  0  0  0  0  0  0  0
    2.6971    2.9498    1.1847 H   0  0  0  0  0  0  0  0  0  0  0  0
    4.4182    0.4585   -2.4011 H   0  0  0  0  0  0  0  0  0  0  0  0
    3.9577   -1.1545   -1.8308 H   0  0  0  0  0  0  0  0  0  0  0  0
    6.6213    1.0227   -2.7353 H   0  0  0  0  0  0  0  0  0  0  0  0
    9.0253    0.6137   -2.4301 H   0  0  0  0  0  0  0  0  0  0  0  0
    9.8073   -1.1526   -0.8784 H   0  0  0  0  0  0  0  0  0  0  0  0
    8.1622   -2.5234    0.3679 H   0  0  0  0  0  0  0  0  0  0  0  0
    5.7590   -2.1416    0.0797 H   0  0  0  0  0  0  0  0  0  0  0  0
   -0.7153   -0.2265   -1.5584 H   0  0  0  0  0  0  0  0  0  0  0  0
   -2.5967   -0.6278   -2.9976 H   0  0  0  0  0  0  0  0  0  0  0  0
   -4.8757   -0.8812   -2.0974 H   0  0  0  0  0  0  0  0  0  0  0  0
  1  2  1  0  0  0  0
  1 32  1  0  0  0  0
  1 33  1  0  0  0  0
  1 34  1  0  0  0  0
  2  3  1  0  0  0  0
  3  4  1  0  0  0  0
  3 35  1  0  0  0  0
  3 36  1  0  0  0  0
  4  5  1  0  0  0  0
  4 37  1  0  0  0  0
  4 38  1  0  0  0  0
  5  6  1  0  0  0  0
  6  7  2  0  0  0  0
  6 39  1  0  0  0  0
  7  8  1  0  0  0  0
  7 40  1  0  0  0  0
  8  9  2  0  0  0  0
  9 10  1  0  0  0  0
  9 28  1  0  0  0  0
 10 11  1  0  0  0  0
 10 41  1  0  0  0  0
 11 12  2  0  0  0  0
 11 13  1  0  0  0  0
 13 42  1  0  0  0  0
 13 43  1  0  0  0  0
 14 13  1  0  0  0  0
 14 15  1  0  0  0  0
 14 44  1  1  0  0  0
 15 16  1  0  0  0  0
 15 45  1  0  0  0  0
 16 17  2  0  0  0  0
 16 18  1  0  0  0  0
 18 19  1  0  0  0  0
 18 26  1  0  0  0  0
 19 20  1  0  0  0  0
 19 46  1  0  0  0  0
 19 47  1  0  0  0  0
 20 21  2  0  0  0  0
 21 22  1  0  0  0  0
 21 48  1  0  0  0  0
 22 23  2  0  0  0  0
 22 49  1  0  0  0  0
 23 24  1  0  0  0  0
 23 50  1  0  0  0  0
 24 25  2  0  0  0  0
 24 51  1  0  0  0  0
 25 20  1  0  0  0  0
 25 52  1  0  0  0  0
 26 27  2  0  0  0  0
 26 14  1  0  0  0  0
 28 29  2  0  0  0  0
 28 53  1  0  0  0  0
 29 30  1  0  0  0  0
 29 54  1  0  0  0  0
 30 31  2  0  0  0  0
 30 55  1  0  0  0  0
 31  5  1  0  0  0  0
 31  8  1  0  0  0  0
M  END
>  <IDENTIFIER>
CNP0286706.1

>  <Energy>
568.301

$$$$
