
 OpenBabel09052521313D

 65 69  0  0  0  0  0  0  0  0999 V2000
   -2.6633   -2.3149   -3.6252 C   0  0  0  0  0  0  0  0  0  0  0  0
   -2.8560   -1.1481   -2.9910 C   0  0  0  0  0  0  0  0  0  0  0  0
   -3.3889    0.0494   -3.7352 C   0  0  0  0  0  0  0  0  0  0  0  0
   -2.5312   -1.0064   -1.5269 C   0  0  0  0  0  0  0  0  0  0  0  0
   -3.6665   -0.6280   -0.8353 O   0  0  0  0  0  0  0  0  0  0  0  0
   -3.7187   -0.2858    0.4803 C   0  0  0  0  0  0  0  0  0  0  0  0
   -2.6049   -0.4189    1.3337 C   0  0  0  0  0  0  0  0  0  0  0  0
   -2.6566   -0.0012    2.6821 C   0  0  0  0  0  0  0  0  0  0  0  0
   -1.4397   -0.1207    3.6163 C   0  0  1  0  0  0  0  0  0  0  0  0
   -1.8094   -0.6426    5.0247 C   0  0  0  0  0  0  0  0  0  0  0  0
   -2.2396   -2.0754    4.9059 C   0  0  0  0  0  0  0  0  0  0  0  0
   -3.2805   -2.4666    5.4086 O   0  0  0  0  0  0  0  0  0  0  0  0
   -1.4534   -2.9266    4.2048 O   0  0  0  0  0  0  0  0  0  0  0  0
   -0.4650   -2.4680    3.3930 C   0  0  0  0  0  0  0  0  0  0  0  0
    0.4663   -3.3842    2.8661 C   0  0  0  0  0  0  0  0  0  0  0  0
    1.4916   -2.9461    2.0202 C   0  0  0  0  0  0  0  0  0  0  0  0
    1.5568   -1.5896    1.7215 C   0  0  0  0  0  0  0  0  0  0  0  0
    2.4568   -0.8644    0.8707 C   0  0  0  0  0  0  0  0  0  0  0  0
    3.3011   -1.3650    0.1472 O   0  0  0  0  0  0  0  0  0  0  0  0
    1.9863    0.5358    0.9281 C   0  0  0  0  0  0  0  0  0  0  0  0
    2.4337    1.6312    0.2737 C   0  0  0  0  0  0  0  0  0  0  0  0
    3.6165    1.7260   -0.6294 C   0  0  0  0  0  0  0  0  0  0  0  0
    3.5828    2.6534   -1.6839 C   0  0  0  0  0  0  0  0  0  0  0  0
    4.6580    2.7649   -2.5741 C   0  0  0  0  0  0  0  0  0  0  0  0
    5.8024    1.9657   -2.4136 C   0  0  0  0  0  0  0  0  0  0  0  0
    6.9376    2.0657   -3.3656 C   0  0  0  0  0  0  0  0  0  0  0  0
    7.9331    1.3717   -3.2024 O   0  0  0  0  0  0  0  0  0  0  0  0
    6.8566    2.9042   -4.4301 O   0  0  0  0  0  0  0  0  0  0  0  0
    7.8394    3.0165   -5.3909 C   0  0  0  0  0  0  0  0  0  0  0  0
    5.8554    1.0699   -1.3343 C   0  0  0  0  0  0  0  0  0  0  0  0
    4.7791    0.9543   -0.4534 C   0  0  0  0  0  0  0  0  0  0  0  0
    0.9015    0.5806    1.7537 O   0  0  0  0  0  0  0  0  0  0  0  0
    0.6598   -0.6704    2.2161 C   0  0  0  0  0  0  0  0  0  0  0  0
   -0.3774   -1.0766    3.0696 C   0  0  0  0  0  0  0  0  0  0  0  0
   -3.8577    0.5664    3.1488 C   0  0  0  0  0  0  0  0  0  0  0  0
   -4.9775    0.6635    2.3210 C   0  0  0  0  0  0  0  0  0  0  0  0
   -4.9189    0.2351    0.9825 C   0  0  0  0  0  0  0  0  0  0  0  0
   -5.9881    0.3166    0.1465 O   0  0  0  0  0  0  0  0  0  0  0  0
   -7.2592    0.7225    0.4970 C   0  0  0  0  0  0  0  0  0  0  0  0
   -2.8890   -2.4212   -4.6818 H   0  0  0  0  0  0  0  0  0  0  0  0
   -2.2735   -3.1802   -3.0986 H   0  0  0  0  0  0  0  0  0  0  0  0
   -3.5799   -0.1759   -4.8062 H   0  0  0  0  0  0  0  0  0  0  0  0
   -2.6523    0.8787   -3.6792 H   0  0  0  0  0  0  0  0  0  0  0  0
   -4.3419    0.3834   -3.2741 H   0  0  0  0  0  0  0  0  0  0  0  0
   -1.7546   -0.2162   -1.4281 H   0  0  0  0  0  0  0  0  0  0  0  0
   -2.1328   -1.9545   -1.1026 H   0  0  0  0  0  0  0  0  0  0  0  0
   -1.6938   -0.8288    0.9310 H   0  0  0  0  0  0  0  0  0  0  0  0
   -1.0205    0.8991    3.7592 H   0  0  0  0  0  0  0  0  0  0  0  0
   -2.5613   -0.0242    5.5547 H   0  0  0  0  0  0  0  0  0  0  0  0
   -0.8860   -0.6212    5.6454 H   0  0  0  0  0  0  0  0  0  0  0  0
    0.3898   -4.4356    3.1126 H   0  0  0  0  0  0  0  0  0  0  0  0
    2.2067   -3.6445    1.6051 H   0  0  0  0  0  0  0  0  0  0  0  0
    1.8400    2.5343    0.3886 H   0  0  0  0  0  0  0  0  0  0  0  0
    2.7096    3.2762   -1.8359 H   0  0  0  0  0  0  0  0  0  0  0  0
    4.5890    3.4731   -3.3899 H   0  0  0  0  0  0  0  0  0  0  0  0
    7.5249    3.7622   -6.1496 H   0  0  0  0  0  0  0  0  0  0  0  0
    7.9931    2.0380   -5.8954 H   0  0  0  0  0  0  0  0  0  0  0  0
    8.7919    3.3525   -4.9286 H   0  0  0  0  0  0  0  0  0  0  0  0
    6.7312    0.4543   -1.1687 H   0  0  0  0  0  0  0  0  0  0  0  0
    4.8853    0.2776    0.3777 H   0  0  0  0  0  0  0  0  0  0  0  0
   -3.9515    0.9235    4.1633 H   0  0  0  0  0  0  0  0  0  0  0  0
   -5.8851    1.0839    2.7328 H   0  0  0  0  0  0  0  0  0  0  0  0
   -7.9151    0.6701   -0.3960 H   0  0  0  0  0  0  0  0  0  0  0  0
   -7.2439    1.7695    0.8657 H   0  0  0  0  0  0  0  0  0  0  0  0
   -7.6726    0.0477    1.2776 H   0  0  0  0  0  0  0  0  0  0  0  0
  1  2  2  0  0  0  0
  1 40  1  0  0  0  0
  1 41  1  0  0  0  0
  2  3  1  0  0  0  0
  2  4  1  0  0  0  0
  3 42  1  0  0  0  0
  3 43  1  0  0  0  0
  3 44  1  0  0  0  0
  4  5  1  0  0  0  0
  4 45  1  0  0  0  0
  4 46  1  0  0  0  0
  5  6  1  0  0  0  0
  6  7  2  0  0  0  0
  7  8  1  0  0  0  0
  7 47  1  0  0  0  0
  8 35  2  0  0  0  0
  9  8  1  0  0  0  0
  9 10  1  0  0  0  0
  9 48  1  1  0  0  0
 10 11  1  0  0  0  0
 10 49  1  0  0  0  0
 10 50  1  0  0  0  0
 11 12  2  0  0  0  0
 11 13  1  0  0  0  0
 13 14  1  0  0  0  0
 14 15  2  0  0  0  0
 15 16  1  0  0  0  0
 15 51  1  0  0  0  0
 16 17  2  0  0  0  0
 16 52  1  0  0  0  0
 17 18  1  0  0  0  0
 18 19  2  0  0  0  0
 18 20  1  0  0  0  0
 20 21  2  3  0  0  0
 20 32  1  0  0  0  0
 21 22  1  0  0  0  0
 21 53  1  0  0  0  0
 22 23  2  0  0  0  0
 23 24  1  0  0  0  0
 23 54  1  0  0  0  0
 24 25  2  0  0  0  0
 24 55  1  0  0  0  0
 25 26  1  0  0  0  0
 25 30  1  0  0  0  0
 26 27  2  0  0  0  0
 26 28  1  0  0  0  0
 28 29  1  0  0  0  0
 29 56  1  0  0  0  0
 29 57  1  0  0  0  0
 29 58  1  0  0  0  0
 30 31  2  0  0  0  0
 30 59  1  0  0  0  0
 31 22  1  0  0  0  0
 31 60  1  0  0  0  0
 32 33  1  0  0  0  0
 33 34  2  0  0  0  0
 33 17  1  0  0  0  0
 34  9  1  0  0  0  0
 34 14  1  0  0  0  0
 35 36  1  0  0  0  0
 35 61  1  0  0  0  0
 36 37  2  0  0  0  0
 36 62  1  0  0  0  0
 37 38  1  0  0  0  0
 37  6  1  0  0  0  0
 38 39  1  0  0  0  0
 39 63  1  0  0  0  0
 39 64  1  0  0  0  0
 39 65  1  0  0  0  0
M  END
>  <IDENTIFIER>
CNP0286690.0

>  <Energy>
578.374

$$$$
