
 OpenBabel09072513153D

120123  0  0  0  0  0  0  0  0999 V2000
    0.2520   -5.5442   -3.7498 C   0  0  0  0  0  0  0  0  0  0  0  0
   -0.9486   -4.8293   -3.1968 C   0  0  0  0  0  0  0  0  0  0  0  0
   -1.8921   -4.5642   -3.9281 O   0  0  0  0  0  0  0  0  0  0  0  0
   -0.9822   -4.5293   -1.8730 N   0  0  0  0  0  0  0  0  0  0  0  0
   -2.1259   -3.9378   -1.1752 C   0  0  2  0  0  0  0  0  0  0  0  0
   -1.6717   -2.7445   -0.3073 C   0  0  2  0  0  0  0  0  0  0  0  0
   -1.2507   -1.6288   -1.1010 O   0  0  0  0  0  0  0  0  0  0  0  0
   -1.9929   -0.4327   -0.8098 C   0  0  2  0  0  0  0  0  0  0  0  0
   -2.8180   -0.1300   -1.9417 O   0  0  0  0  0  0  0  0  0  0  0  0
   -3.4159    1.1514   -1.8182 C   0  0  2  0  0  0  0  0  0  0  0  0
   -4.5844    1.2438   -2.8279 C   0  0  0  0  0  0  0  0  0  0  0  0
   -5.6633    2.3573   -2.6897 C   0  0  2  0  0  0  0  0  0  0  0  0
   -5.1479    3.6618   -2.7225 O   0  0  0  0  0  0  0  0  0  0  0  0
   -6.7209    2.1224   -1.5716 C   0  0  2  0  0  0  0  0  0  0  0  0
   -7.9021    2.8589   -1.8148 O   0  0  0  0  0  0  0  0  0  0  0  0
   -8.7345    2.5431   -0.7030 C   0  0  2  0  0  0  0  0  0  0  0  0
   -9.7464    3.5748   -0.4063 N   0  0  0  0  0  0  0  0  0  0  0  0
   -9.7295    4.7993   -1.0256 C   0  0  0  0  0  0  0  0  0  0  0  0
  -10.7210    5.7417   -0.7611 C   0  0  0  0  0  0  0  0  0  0  0  0
  -11.7393    5.4184    0.1380 C   0  0  0  0  0  0  0  0  0  0  0  0
  -12.7309    6.2894    0.4129 O   0  0  0  0  0  0  0  0  0  0  0  0
  -11.7363    4.2061    0.7404 N   0  0  0  0  0  0  0  0  0  0  0  0
  -10.7687    3.2874    0.4851 C   0  0  0  0  0  0  0  0  0  0  0  0
  -10.8244    2.2042    1.0386 O   0  0  0  0  0  0  0  0  0  0  0  0
   -7.7816    2.2096    0.4857 C   0  0  2  0  0  0  0  0  0  0  0  0
   -8.0109    2.9170    1.6835 O   0  0  0  0  0  0  0  0  0  0  0  0
   -6.3971    2.4344   -0.1087 C   0  0  2  0  0  0  0  0  0  0  0  0
   -5.9747    3.7711    0.0562 O   0  0  0  0  0  0  0  0  0  0  0  0
   -2.3151    2.2619   -1.9728 C   0  0  2  0  0  0  0  0  0  0  0  0
   -2.2907    2.8921   -3.2309 O   0  0  0  0  0  0  0  0  0  0  0  0
   -0.8994    1.7293   -1.5940 C   0  0  2  0  0  0  0  0  0  0  0  0
   -0.2286    1.1097   -2.6707 O   0  0  0  0  0  0  0  0  0  0  0  0
   -1.0512    0.7566   -0.4177 C   0  0  2  0  0  0  0  0  0  0  0  0
    0.2520    0.3111    0.0555 N   0  0  0  0  0  0  0  0  0  0  0  0
    0.7254    0.5905    1.3010 C   0  0  0  0  0  0  0  0  0  0  0  0
    0.0281    1.1874    2.1113 O   0  0  0  0  0  0  0  0  0  0  0  0
    2.1149    0.2221    1.6571 C   0  0  0  0  0  0  0  0  0  0  0  0
    2.6474    0.5431    2.8461 C   0  0  0  0  0  0  0  0  0  0  0  0
    4.0854    0.2577    3.1794 C   0  0  0  0  0  0  0  0  0  0  0  0
    4.8307    1.5687    3.4854 C   0  0  0  0  0  0  0  0  0  0  0  0
    4.8361    2.5790    2.3175 C   0  0  0  0  0  0  0  0  0  0  0  0
    5.3714    2.1153    0.9413 C   0  0  0  0  0  0  0  0  0  0  0  0
    6.8827    1.8357    0.8157 C   0  0  0  0  0  0  0  0  0  0  0  0
    7.3438    0.4956    1.4136 C   0  0  0  0  0  0  0  0  0  0  0  0
    8.8486    0.2328    1.2433 C   0  0  0  0  0  0  0  0  0  0  0  0
    9.2800    0.0531   -0.2222 C   0  0  0  0  0  0  0  0  0  0  0  0
   10.7840   -0.2511   -0.3721 C   0  0  0  0  0  0  0  0  0  0  0  0
   11.2817   -1.5361    0.3388 C   0  0  0  0  0  0  0  0  0  0  0  0
   10.5444   -2.7933   -0.1468 C   0  0  0  0  0  0  0  0  0  0  0  0
   12.7889   -1.7006    0.1069 C   0  0  0  0  0  0  0  0  0  0  0  0
   -0.6027   -3.1735    0.5291 O   0  0  0  0  0  0  0  0  0  0  0  0
   -1.0793   -4.0703    1.5334 C   0  0  2  0  0  0  0  0  0  0  0  0
    0.0998   -4.4494    2.4475 C   0  0  0  0  0  0  0  0  0  0  0  0
    0.7058   -3.2996    2.9752 O   0  0  0  0  0  0  0  0  0  0  0  0
   -1.7219   -5.3613    0.9205 C   0  0  2  0  0  0  0  0  0  0  0  0
   -0.7069   -6.1904    0.4025 O   0  0  0  0  0  0  0  0  0  0  0  0
   -2.7515   -4.9535   -0.1712 C   0  0  2  0  0  0  0  0  0  0  0  0
   -3.3380   -6.0730   -0.7948 O   0  0  0  0  0  0  0  0  0  0  0  0
    0.1361   -5.7524   -4.8345 H   0  0  0  0  0  0  0  0  0  0  0  0
    0.3751   -6.5155   -3.2186 H   0  0  0  0  0  0  0  0  0  0  0  0
    1.1665   -4.9371   -3.5882 H   0  0  0  0  0  0  0  0  0  0  0  0
   -0.1489   -4.7848   -1.3272 H   0  0  0  0  0  0  0  0  0  0  0  0
   -2.9233   -3.6219   -1.8833 H   0  0  0  0  0  0  0  0  0  0  0  0
   -2.5545   -2.4899    0.3217 H   0  0  0  0  0  0  0  0  0  0  0  0
   -2.6496   -0.5346    0.0831 H   0  0  0  0  0  0  0  0  0  0  0  0
   -3.8573    1.2031   -0.8006 H   0  0  0  0  0  0  0  0  0  0  0  0
   -5.1372    0.2791   -2.7885 H   0  0  0  0  0  0  0  0  0  0  0  0
   -4.1528    1.2887   -3.8489 H   0  0  0  0  0  0  0  0  0  0  0  0
   -6.2570    2.2352   -3.6229 H   0  0  0  0  0  0  0  0  0  0  0  0
   -4.5891    3.7817   -1.9177 H   0  0  0  0  0  0  0  0  0  0  0  0
   -6.9873    1.0384   -1.6638 H   0  0  0  0  0  0  0  0  0  0  0  0
   -9.2862    1.6181   -0.9981 H   0  0  0  0  0  0  0  0  0  0  0  0
   -8.9482    5.0577   -1.7300 H   0  0  0  0  0  0  0  0  0  0  0  0
  -10.7040    6.7071   -1.2512 H   0  0  0  0  0  0  0  0  0  0  0  0
  -12.7801    7.1616   -0.0038 H   0  0  0  0  0  0  0  0  0  0  0  0
   -7.9061    1.1226    0.6856 H   0  0  0  0  0  0  0  0  0  0  0  0
   -8.0371    3.8855    1.4719 H   0  0  0  0  0  0  0  0  0  0  0  0
   -5.6422    1.7771    0.3639 H   0  0  0  0  0  0  0  0  0  0  0  0
   -6.6346    4.3835   -0.3629 H   0  0  0  0  0  0  0  0  0  0  0  0
   -2.5935    3.0424   -1.2321 H   0  0  0  0  0  0  0  0  0  0  0  0
   -2.0927    2.2048   -3.9168 H   0  0  0  0  0  0  0  0  0  0  0  0
   -0.2773    2.6037   -1.3018 H   0  0  0  0  0  0  0  0  0  0  0  0
   -0.8323    0.4607   -3.1110 H   0  0  0  0  0  0  0  0  0  0  0  0
   -1.5749    1.3524    0.3668 H   0  0  0  0  0  0  0  0  0  0  0  0
    0.8611   -0.1956   -0.6056 H   0  0  0  0  0  0  0  0  0  0  0  0
    2.7268   -0.2811    0.9127 H   0  0  0  0  0  0  0  0  0  0  0  0
    2.0494    1.0583    3.5929 H   0  0  0  0  0  0  0  0  0  0  0  0
    4.5962   -0.2806    2.3527 H   0  0  0  0  0  0  0  0  0  0  0  0
    4.1172   -0.3962    4.0764 H   0  0  0  0  0  0  0  0  0  0  0  0
    5.8572    1.3531    3.8214 H   0  0  0  0  0  0  0  0  0  0  0  0
    4.3410    2.0604    4.3547 H   0  0  0  0  0  0  0  0  0  0  0  0
    5.3939    3.4862    2.6352 H   0  0  0  0  0  0  0  0  0  0  0  0
    3.7817    2.8919    2.1525 H   0  0  0  0  0  0  0  0  0  0  0  0
    5.1704    2.9718    0.2595 H   0  0  0  0  0  0  0  0  0  0  0  0
    4.7877    1.2566    0.5478 H   0  0  0  0  0  0  0  0  0  0  0  0
    7.4581    2.6847    1.2445 H   0  0  0  0  0  0  0  0  0  0  0  0
    7.0892    1.7952   -0.2736 H   0  0  0  0  0  0  0  0  0  0  0  0
    6.7697   -0.3393    0.9557 H   0  0  0  0  0  0  0  0  0  0  0  0
    7.1649    0.4800    2.4949 H   0  0  0  0  0  0  0  0  0  0  0  0
    9.0626   -0.7050    1.7956 H   0  0  0  0  0  0  0  0  0  0  0  0
    9.4284    1.0570    1.7137 H   0  0  0  0  0  0  0  0  0  0  0  0
    9.0826    0.9869   -0.7872 H   0  0  0  0  0  0  0  0  0  0  0  0
    8.6813   -0.7553   -0.6915 H   0  0  0  0  0  0  0  0  0  0  0  0
   11.3538    0.6182    0.0247 H   0  0  0  0  0  0  0  0  0  0  0  0
   11.0044   -0.3321   -1.4596 H   0  0  0  0  0  0  0  0  0  0  0  0
   11.1293   -1.4387    1.4343 H   0  0  0  0  0  0  0  0  0  0  0  0
   10.6755   -2.9272   -1.2418 H   0  0  0  0  0  0  0  0  0  0  0  0
    9.4615   -2.7330    0.0847 H   0  0  0  0  0  0  0  0  0  0  0  0
   10.9395   -3.6912    0.3746 H   0  0  0  0  0  0  0  0  0  0  0  0
   13.0101   -1.8145   -0.9762 H   0  0  0  0  0  0  0  0  0  0  0  0
   13.1645   -2.5977    0.6445 H   0  0  0  0  0  0  0  0  0  0  0  0
   13.3361   -0.8142    0.4932 H   0  0  0  0  0  0  0  0  0  0  0  0
   -1.8273   -3.5358    2.1633 H   0  0  0  0  0  0  0  0  0  0  0  0
    0.8578   -5.0490    1.8890 H   0  0  0  0  0  0  0  0  0  0  0  0
   -0.2540   -5.0870    3.2843 H   0  0  0  0  0  0  0  0  0  0  0  0
    1.4346   -3.0472    2.3468 H   0  0  0  0  0  0  0  0  0  0  0  0
   -2.2380   -5.9267    1.7287 H   0  0  0  0  0  0  0  0  0  0  0  0
   -1.1161   -6.8795   -0.1783 H   0  0  0  0  0  0  0  0  0  0  0  0
   -3.5899   -4.4266    0.3381 H   0  0  0  0  0  0  0  0  0  0  0  0
   -2.8009   -6.3205   -1.5891 H   0  0  0  0  0  0  0  0  0  0  0  0
  1  2  1  0  0  0  0
  1 59  1  0  0  0  0
  1 60  1  0  0  0  0
  1 61  1  0  0  0  0
  2  3  2  0  0  0  0
  2  4  1  0  0  0  0
  4 62  1  0  0  0  0
  5  4  1  0  0  0  0
  5  6  1  0  0  0  0
  5 63  1  6  0  0  0
  6  7  1  0  0  0  0
  6 51  1  0  0  0  0
  6 64  1  1  0  0  0
  8  7  1  0  0  0  0
  8  9  1  0  0  0  0
  8 65  1  1  0  0  0
  9 10  1  0  0  0  0
 10 11  1  0  0  0  0
 10 29  1  0  0  0  0
 10 66  1  1  0  0  0
 11 12  1  0  0  0  0
 11 67  1  0  0  0  0
 11 68  1  0  0  0  0
 12 13  1  0  0  0  0
 12 14  1  0  0  0  0
 12 69  1  6  0  0  0
 13 70  1  0  0  0  0
 14 15  1  0  0  0  0
 14 71  1  6  0  0  0
 15 16  1  0  0  0  0
 16 17  1  0  0  0  0
 16 25  1  0  0  0  0
 16 72  1  6  0  0  0
 17 18  1  0  0  0  0
 18 19  2  0  0  0  0
 18 73  1  0  0  0  0
 19 20  1  0  0  0  0
 19 74  1  0  0  0  0
 20 21  1  0  0  0  0
 20 22  2  0  0  0  0
 21 75  1  0  0  0  0
 22 23  1  0  0  0  0
 23 24  2  0  0  0  0
 23 17  1  0  0  0  0
 25 26  1  0  0  0  0
 25 27  1  0  0  0  0
 25 76  1  1  0  0  0
 26 77  1  0  0  0  0
 27 28  1  0  0  0  0
 27 14  1  0  0  0  0
 27 78  1  1  0  0  0
 28 79  1  0  0  0  0
 29 30  1  0  0  0  0
 29 31  1  0  0  0  0
 29 80  1  1  0  0  0
 30 81  1  0  0  0  0
 31 32  1  0  0  0  0
 31 33  1  0  0  0  0
 31 82  1  1  0  0  0
 32 83  1  0  0  0  0
 33 34  1  0  0  0  0
 33  8  1  0  0  0  0
 33 84  1  1  0  0  0
 34 35  1  0  0  0  0
 34 85  1  0  0  0  0
 35 36  2  0  0  0  0
 35 37  1  0  0  0  0
 37 38  2  0  0  0  0
 37 86  1  0  0  0  0
 38 39  1  0  0  0  0
 38 87  1  0  0  0  0
 39 40  1  0  0  0  0
 39 88  1  0  0  0  0
 39 89  1  0  0  0  0
 40 41  1  0  0  0  0
 40 90  1  0  0  0  0
 40 91  1  0  0  0  0
 41 42  1  0  0  0  0
 41 92  1  0  0  0  0
 41 93  1  0  0  0  0
 42 43  1  0  0  0  0
 42 94  1  0  0  0  0
 42 95  1  0  0  0  0
 43 44  1  0  0  0  0
 43 96  1  0  0  0  0
 43 97  1  0  0  0  0
 44 45  1  0  0  0  0
 44 98  1  0  0  0  0
 44 99  1  0  0  0  0
 45 46  1  0  0  0  0
 45100  1  0  0  0  0
 45101  1  0  0  0  0
 46 47  1  0  0  0  0
 46102  1  0  0  0  0
 46103  1  0  0  0  0
 47 48  1  0  0  0  0
 47104  1  0  0  0  0
 47105  1  0  0  0  0
 48 49  1  0  0  0  0
 48 50  1  0  0  0  0
 48106  1  0  0  0  0
 49107  1  0  0  0  0
 49108  1  0  0  0  0
 49109  1  0  0  0  0
 50110  1  0  0  0  0
 50111  1  0  0  0  0
 50112  1  0  0  0  0
 51 52  1  0  0  0  0
 52 53  1  0  0  0  0
 52 55  1  0  0  0  0
 52113  1  1  0  0  0
 53 54  1  0  0  0  0
 53114  1  0  0  0  0
 53115  1  0  0  0  0
 54116  1  0  0  0  0
 55 56  1  0  0  0  0
 55 57  1  0  0  0  0
 55117  1  1  0  0  0
 56118  1  0  0  0  0
 57 58  1  0  0  0  0
 57  5  1  0  0  0  0
 57119  1  1  0  0  0
 58120  1  0  0  0  0
M  END
>  <IDENTIFIER>
CNP0185517.3

>  <Energy>
1208.1

$$$$
