
 OpenBabel09112505422D

123122  0  0  0  0  0  0  0  0999 V2000
   13.1913    4.1519    0.0000 C   0  0  0  0  0  0  0  0  0  0  0  0
   12.4413    5.4510    0.0000 C   0  0  0  0  0  0  0  0  0  0  0  0
   11.6913    6.7500    0.0000 C   0  0  3  0  0  0  0  0  0  0  0  0
   10.9413    8.0490    0.0000 C   0  0  0  0  0  0  0  0  0  0  0  0
   10.3923    6.0000    0.0000 C   0  0  0  0  0  0  0  0  0  0  0  0
    9.0933    5.2500    0.0000 C   0  0  0  0  0  0  0  0  0  0  0  0
    7.7942    4.5000    0.0000 C   0  0  0  0  0  0  0  0  0  0  0  0
    6.4952    3.7500    0.0000 C   0  0  0  0  0  0  0  0  0  0  0  0
    5.1962    3.0000    0.0000 C   0  0  0  0  0  0  0  0  0  0  0  0
    3.5473    3.0630   -0.2123 C   0  0  0  0  0  0  0  0  0  0  0  0
    2.6857    1.6200   -0.1655 C   0  0  0  0  0  0  0  0  0  0  0  0
    1.0180    1.4811   -0.1455 C   0  0  0  0  0  0  0  0  0  0  0  0
    0.2586    0.0329   -0.2854 C   0  0  0  0  0  0  0  0  0  0  0  0
    0.9793   -0.9200   -0.5401 O   0  0  0  0  0  0  0  0  0  0  0  0
   -1.1566   -0.2259   -0.1398 O   0  0  0  0  0  0  0  0  0  0  0  0
   -1.9250   -1.3828   -0.6271 C   0  0  0  0  0  0  0  0  0  0  0  0
   -3.4369   -1.7912   -0.0313 C   0  0  2  0  0  0  0  0  0  0  0  0
   -4.2384   -3.0194   -0.8260 C   0  0  0  0  0  0  0  0  0  0  0  0
   -5.3564   -3.7853   -0.2580 O   0  0  0  0  0  0  0  0  0  0  0  0
   -6.6700   -4.0046   -0.7816 C   0  0  0  0  0  0  0  0  0  0  0  0
   -7.1338   -3.1294   -1.4946 O   0  0  0  0  0  0  0  0  0  0  0  0
   -7.5967   -5.3520   -0.6549 C   0  0  0  0  0  0  0  0  0  0  0  0
   -9.0933   -5.2500    0.0000 C   0  0  0  0  0  0  0  0  0  0  0  0
  -10.3923   -6.0000    0.0000 C   0  0  0  0  0  0  0  0  0  0  0  0
  -11.6913   -6.7500    0.0000 C   0  0  0  0  0  0  0  0  0  0  0  0
  -13.3309   -7.0837   -0.1496 C   0  0  0  0  0  0  0  0  0  0  0  0
  -13.9551   -8.6362    0.1571 C   0  0  0  0  0  0  0  0  0  0  0  0
  -15.5885   -9.0000    0.0000 C   0  0  0  0  0  0  0  0  0  0  0  0
  -16.8875   -9.7500    0.0000 C   0  0  0  0  0  2  0  0  0  0  0  0
  -18.1865  -10.5000    0.0000 C   0  0  0  0  0  0  0  0  0  0  0  0
  -19.4856  -11.2500    0.0000 C   0  0  0  0  0  0  0  0  0  0  0  0
  -20.7846  -12.0000    0.0000 C   0  0  0  0  0  0  0  0  0  0  0  0
  -18.7356  -12.5490    0.0000 C   0  0  0  0  0  0  0  0  0  0  0  0
   -4.1980   -0.6293    0.0207 O   0  0  0  0  0  0  0  0  0  0  0  0
   -5.4743   -0.4618    0.4774 C   0  0  0  0  0  0  0  0  0  0  0  0
   -6.2610   -1.3890    0.5423 O   0  0  0  0  0  0  0  0  0  0  0  0
   -5.8743    0.8777    1.0178 C   0  0  0  0  0  0  0  0  0  0  0  0
   -6.9728    1.6479    0.2344 C   0  0  0  0  0  0  0  0  0  0  0  0
   -7.1336    3.0130    0.9301 C   0  0  0  0  0  0  0  0  0  0  0  0
   -7.7580    4.2005    0.1743 C   0  0  0  0  0  0  0  0  0  0  0  0
   -9.3047    4.5431    0.1759 C   0  0  0  0  0  0  0  0  0  0  0  0
   -9.3481    6.0933    0.0000 C   0  0  0  0  0  0  0  0  0  0  0  0
  -10.0981    7.3923    0.0000 C   0  0  0  0  0  0  0  0  0  0  0  0
  -10.8481    8.6913    0.0000 C   0  0  0  0  0  0  0  0  0  0  0  0
  -11.5981    9.9904    0.0000 C   0  0  0  0  0  0  0  0  0  0  0  0
  -11.4192   10.8717   -1.2622 C   0  0  0  0  0  0  0  0  0  0  0  0
  -12.8971    9.2404    0.0000 C   0  0  0  0  0  0  0  0  0  0  0  0
   12.3140    3.4974    0.2266 H   0  0  0  0  0  0  0  0  0  0  0  0
   13.3313    4.1089   -1.1056 H   0  0  0  0  0  0  0  0  0  0  0  0
   13.7263    3.2252    0.0000 H   0  0  0  0  0  0  0  0  0  0  0  0
   12.3388    5.3618    1.1219 H   0  0  0  0  0  0  0  0  0  0  0  0
   13.4312    5.9806   -0.0840 H   0  0  0  0  0  0  0  0  0  0  0  0
   11.9507    6.8827   -1.0938 H   0  0  0  0  0  0  0  0  0  0  0  0
   11.8185    8.7125   -0.2029 H   0  0  0  0  0  0  0  0  0  0  0  0
   10.8218    8.1654    1.1064 H   0  0  0  0  0  0  0  0  0  0  0  0
   10.4063    8.9756    0.0000 H   0  0  0  0  0  0  0  0  0  0  0  0
   10.1171    6.2498    1.0820 H   0  0  0  0  0  0  0  0  0  0  0  0
    9.9063    6.4543   -0.9536 H   0  0  0  0  0  0  0  0  0  0  0  0
    9.5823    4.4263    0.6183 H   0  0  0  0  0  0  0  0  0  0  0  0
    9.2850    4.6784   -0.9754 H   0  0  0  0  0  0  0  0  0  0  0  0
    7.3962    5.4275   -0.5256 H   0  0  0  0  0  0  0  0  0  0  0  0
    7.6956    4.6663    1.1154 H   0  0  0  0  0  0  0  0  0  0  0  0
    5.8482    4.5853    0.4124 H   0  0  0  0  0  0  0  0  0  0  0  0
    6.4810    3.7550   -1.1243 H   0  0  0  0  0  0  0  0  0  0  0  0
    5.2236    2.5723    1.0292 H   0  0  0  0  0  0  0  0  0  0  0  0
    5.4244    2.0999   -0.6261 H   0  0  0  0  0  0  0  0  0  0  0  0
    3.3358    3.5331   -1.1953 H   0  0  0  0  0  0  0  0  0  0  0  0
    3.1469    3.7350    0.5758 H   0  0  0  0  0  0  0  0  0  0  0  0
    3.0416    1.0406   -1.0431 H   0  0  0  0  0  0  0  0  0  0  0  0
    3.0295    1.0774    0.7400 H   0  0  0  0  0  0  0  0  0  0  0  0
    0.6878    1.9364    0.8116 H   0  0  0  0  0  0  0  0  0  0  0  0
    0.6219    2.1127   -0.9672 H   0  0  0  0  0  0  0  0  0  0  0  0
   -2.0458   -1.2315   -1.7204 H   0  0  0  0  0  0  0  0  0  0  0  0
   -1.2968   -2.2918   -0.5128 H   0  0  0  0  0  0  0  0  0  0  0  0
   -3.2609   -2.1353    1.0105 H   0  0  0  0  0  0  0  0  0  0  0  0
   -4.5176   -2.6446   -1.8332 H   0  0  0  0  0  0  0  0  0  0  0  0
   -3.4483   -3.7801   -0.9962 H   0  0  0  0  0  0  0  0  0  0  0  0
   -7.0374   -6.1581   -0.1344 H   0  0  0  0  0  0  0  0  0  0  0  0
   -7.7452   -5.6854   -1.7038 H   0  0  0  0  0  0  0  0  0  0  0  0
   -9.3629   -4.2075   -0.3221 H   0  0  0  0  0  0  0  0  0  0  0  0
   -8.8295   -5.1438    1.0791 H   0  0  0  0  0  0  0  0  0  0  0  0
  -10.5256   -5.7659   -1.0873 H   0  0  0  0  0  0  0  0  0  0  0  0
  -10.8971   -5.2232    0.6350 H   0  0  0  0  0  0  0  0  0  0  0  0
  -11.3695   -7.6008   -0.6503 H   0  0  0  0  0  0  0  0  0  0  0  0
  -11.6028   -7.1664    1.0328 H   0  0  0  0  0  0  0  0  0  0  0  0
  -13.8668   -6.3822    0.5236 H   0  0  0  0  0  0  0  0  0  0  0  0
  -13.6163   -6.8235   -1.1906 H   0  0  0  0  0  0  0  0  0  0  0  0
  -13.6719   -8.8899    1.2003 H   0  0  0  0  0  0  0  0  0  0  0  0
  -13.4092   -9.3363   -0.5096 H   0  0  0  0  0  0  0  0  0  0  0  0
  -15.6893   -8.6274   -1.0407 H   0  0  0  0  0  0  0  0  0  0  0  0
  -15.9510   -8.1776    0.6514 H   0  0  0  0  0  0  0  0  0  0  0  0
  -17.8895  -10.7290   -1.0637 H   0  0  0  0  0  0  0  0  0  0  0  0
  -17.6897  -10.8408    0.9726 H   0  0  0  0  0  0  0  0  0  0  0  0
  -19.6913  -10.7312    0.9795 H   0  0  0  0  0  0  0  0  0  0  0  0
  -21.4287  -11.1120   -0.1976 H   0  0  0  0  0  0  0  0  0  0  0  0
  -20.9120  -12.3126    1.0769 H   0  0  0  0  0  0  0  0  0  0  0  0
  -21.7112  -12.5350    0.0000 H   0  0  0  0  0  0  0  0  0  0  0  0
  -18.9374  -12.9489   -1.0340 H   0  0  0  0  0  0  0  0  0  0  0  0
  -18.9410  -13.0086    1.0065 H   0  0  0  0  0  0  0  0  0  0  0  0
  -18.2006  -13.4756    0.0000 H   0  0  0  0  0  0  0  0  0  0  0  0
   -4.9480    1.4952    1.0100 H   0  0  0  0  0  0  0  0  0  0  0  0
   -6.1839    0.7482    2.0776 H   0  0  0  0  0  0  0  0  0  0  0  0
   -6.6007    1.8022   -0.8023 H   0  0  0  0  0  0  0  0  0  0  0  0
   -7.9400    1.1036    0.1990 H   0  0  0  0  0  0  0  0  0  0  0  0
   -7.5655    2.9137    1.9490 H   0  0  0  0  0  0  0  0  0  0  0  0
   -6.0801    3.3575    1.0712 H   0  0  0  0  0  0  0  0  0  0  0  0
   -7.3336    4.2844   -0.8511 H   0  0  0  0  0  0  0  0  0  0  0  0
   -7.2721    5.0236    0.7459 H   0  0  0  0  0  0  0  0  0  0  0  0
   -9.7474    4.3064    1.1674 H   0  0  0  0  0  0  0  0  0  0  0  0
   -9.8426    3.9828   -0.6170 H   0  0  0  0  0  0  0  0  0  0  0  0
   -8.6411    6.2582   -0.8545 H   0  0  0  0  0  0  0  0  0  0  0  0
   -8.7888    6.3877    0.9190 H   0  0  0  0  0  0  0  0  0  0  0  0
  -10.4238    7.2417   -1.0630 H   0  0  0  0  0  0  0  0  0  0  0  0
  -10.9106    6.8552    0.5653 H   0  0  0  0  0  0  0  0  0  0  0  0
  -10.7235    8.7479    1.1215 H   0  0  0  0  0  0  0  0  0  0  0  0
   -9.9134    9.1869   -0.3597 H   0  0  0  0  0  0  0  0  0  0  0  0
  -11.4461   10.6350    0.9061 H   0  0  0  0  0  0  0  0  0  0  0  0
  -10.4003   11.3133   -1.2713 H   0  0  0  0  0  0  0  0  0  0  0  0
  -11.5523   10.2861   -2.1974 H   0  0  0  0  0  0  0  0  0  0  0  0
  -12.1557   11.7028   -1.2495 H   0  0  0  0  0  0  0  0  0  0  0  0
  -13.5463   10.1373    0.1084 H   0  0  0  0  0  0  0  0  0  0  0  0
  -12.9435    8.8931   -1.0671 H   0  0  0  0  0  0  0  0  0  0  0  0
  -13.8237    8.7054    0.0000 H   0  0  0  0  0  0  0  0  0  0  0  0
  1  2  1  0  0  0  0
  1 48  1  0  0  0  0
  1 49  1  0  0  0  0
  1 50  1  0  0  0  0
  2  3  1  0  0  0  0
  2 51  1  0  0  0  0
  2 52  1  0  0  0  0
  3  4  1  0  0  0  0
  3  5  1  0  0  0  0
  3 53  1  0  0  0  0
  4 54  1  0  0  0  0
  4 55  1  0  0  0  0
  4 56  1  0  0  0  0
  5  6  1  0  0  0  0
  5 57  1  0  0  0  0
  5 58  1  0  0  0  0
  6  7  1  0  0  0  0
  6 59  1  0  0  0  0
  6 60  1  0  0  0  0
  7  8  1  0  0  0  0
  7 61  1  0  0  0  0
  7 62  1  0  0  0  0
  8  9  1  0  0  0  0
  8 63  1  0  0  0  0
  8 64  1  0  0  0  0
  9 10  1  0  0  0  0
  9 65  1  0  0  0  0
  9 66  1  0  0  0  0
 10 11  1  0  0  0  0
 10 67  1  0  0  0  0
 10 68  1  0  0  0  0
 11 12  1  0  0  0  0
 11 69  1  0  0  0  0
 11 70  1  0  0  0  0
 12 13  1  0  0  0  0
 12 71  1  0  0  0  0
 12 72  1  0  0  0  0
 13 14  2  0  0  0  0
 13 15  1  0  0  0  0
 15 16  1  0  0  0  0
 16 73  1  0  0  0  0
 16 74  1  0  0  0  0
 17 16  1  0  0  0  0
 17 18  1  0  0  0  0
 17 34  1  0  0  0  0
 17 75  1  1  0  0  0
 18 19  1  0  0  0  0
 18 76  1  0  0  0  0
 18 77  1  0  0  0  0
 19 20  1  0  0  0  0
 20 21  2  0  0  0  0
 20 22  1  0  0  0  0
 22 23  1  0  0  0  0
 22 78  1  0  0  0  0
 22 79  1  0  0  0  0
 23 24  1  0  0  0  0
 23 80  1  0  0  0  0
 23 81  1  0  0  0  0
 24 25  1  0  0  0  0
 24 82  1  0  0  0  0
 24 83  1  0  0  0  0
 25 26  1  0  0  0  0
 25 84  1  0  0  0  0
 25 85  1  0  0  0  0
 26 27  1  0  0  0  0
 26 86  1  0  0  0  0
 26 87  1  0  0  0  0
 27 28  1  0  0  0  0
 27 88  1  0  0  0  0
 27 89  1  0  0  0  0
 28 29  1  0  0  0  0
 28 90  1  0  0  0  0
 28 91  1  0  0  0  0
 29 30  1  0  0  0  0
 30 31  1  0  0  0  0
 30 92  1  0  0  0  0
 30 93  1  0  0  0  0
 31 32  1  0  0  0  0
 31 33  1  0  0  0  0
 31 94  1  0  0  0  0
 32 95  1  0  0  0  0
 32 96  1  0  0  0  0
 32 97  1  0  0  0  0
 33 98  1  0  0  0  0
 33 99  1  0  0  0  0
 33100  1  0  0  0  0
 34 35  1  0  0  0  0
 35 36  2  0  0  0  0
 35 37  1  0  0  0  0
 37 38  1  0  0  0  0
 37101  1  0  0  0  0
 37102  1  0  0  0  0
 38 39  1  0  0  0  0
 38103  1  0  0  0  0
 38104  1  0  0  0  0
 39 40  1  0  0  0  0
 39105  1  0  0  0  0
 39106  1  0  0  0  0
 40 41  1  0  0  0  0
 40107  1  0  0  0  0
 40108  1  0  0  0  0
 41 42  1  0  0  0  0
 41109  1  0  0  0  0
 41110  1  0  0  0  0
 42 43  1  0  0  0  0
 42111  1  0  0  0  0
 42112  1  0  0  0  0
 43 44  1  0  0  0  0
 43113  1  0  0  0  0
 43114  1  0  0  0  0
 44 45  1  0  0  0  0
 44115  1  0  0  0  0
 44116  1  0  0  0  0
 45 46  1  0  0  0  0
 45 47  1  0  0  0  0
 45117  1  0  0  0  0
 46118  1  0  0  0  0
 46119  1  0  0  0  0
 46120  1  0  0  0  0
 47121  1  0  0  0  0
 47122  1  0  0  0  0
 47123  1  0  0  0  0
M  END
>  <IDENTIFIER>
CNP0505932.1

>  <Energy>
8772.66

$$$$
