
 OpenBabel09062520493D

 36 38  0  0  0  0  0  0  0  0999 V2000
    6.4341   -0.3312   -0.8182 C   0  0  0  0  0  0  0  0  0  0  0  0
    6.1257    0.9573   -1.2541 C   0  0  0  0  0  0  0  0  0  0  0  0
    4.8307    1.4580   -1.0981 C   0  0  0  0  0  0  0  0  0  0  0  0
    3.8178    0.6722   -0.5176 C   0  0  0  0  0  0  0  0  0  0  0  0
    2.5146    1.2464   -0.3686 N   0  0  0  0  0  0  0  0  0  0  0  0
    1.2687    0.5624   -0.1876 C   0  0  0  0  0  0  0  0  0  0  0  0
    0.1803    1.2894    0.3177 C   0  0  0  0  0  0  0  0  0  0  0  0
   -1.0683    0.6914    0.4918 C   0  0  0  0  0  0  0  0  0  0  0  0
   -1.2735   -0.6568    0.1420 C   0  0  0  0  0  0  0  0  0  0  0  0
   -2.5319   -1.3187    0.3118 N   0  0  0  0  0  0  0  0  0  0  0  0
   -3.8216   -0.7002    0.3899 C   0  0  0  0  0  0  0  0  0  0  0  0
   -4.8810   -1.4169    0.9754 C   0  0  0  0  0  0  0  0  0  0  0  0
   -6.1605   -0.8591    1.0610 C   0  0  0  0  0  0  0  0  0  0  0  0
   -6.4049    0.4154    0.5476 C   0  0  0  0  0  0  0  0  0  0  0  0
   -5.3722    1.1303   -0.0600 C   0  0  0  0  0  0  0  0  0  0  0  0
   -4.0905    0.5794   -0.1443 C   0  0  0  0  0  0  0  0  0  0  0  0
   -0.1851   -1.3886   -0.3576 C   0  0  0  0  0  0  0  0  0  0  0  0
    1.0659   -0.7887   -0.5346 C   0  0  0  0  0  0  0  0  0  0  0  0
    4.1504   -0.6219   -0.0613 C   0  0  0  0  0  0  0  0  0  0  0  0
    5.4493   -1.1171   -0.2173 C   0  0  0  0  0  0  0  0  0  0  0  0
    7.4384   -0.7169   -0.9359 H   0  0  0  0  0  0  0  0  0  0  0  0
    6.8909    1.5714   -1.7117 H   0  0  0  0  0  0  0  0  0  0  0  0
    4.6117    2.4617   -1.4413 H   0  0  0  0  0  0  0  0  0  0  0  0
    2.4651    2.2767   -0.4069 H   0  0  0  0  0  0  0  0  0  0  0  0
    0.3033    2.3295    0.5937 H   0  0  0  0  0  0  0  0  0  0  0  0
   -1.8528    1.2924    0.9243 H   0  0  0  0  0  0  0  0  0  0  0  0
   -2.5075   -2.3483    0.3814 H   0  0  0  0  0  0  0  0  0  0  0  0
   -4.7116   -2.4077    1.3780 H   0  0  0  0  0  0  0  0  0  0  0  0
   -6.9641   -1.4168    1.5242 H   0  0  0  0  0  0  0  0  0  0  0  0
   -7.3959    0.8456    0.6109 H   0  0  0  0  0  0  0  0  0  0  0  0
   -5.5659    2.1114   -0.4745 H   0  0  0  0  0  0  0  0  0  0  0  0
   -3.3334    1.1546   -0.6544 H   0  0  0  0  0  0  0  0  0  0  0  0
   -0.3130   -2.4281   -0.6348 H   0  0  0  0  0  0  0  0  0  0  0  0
    1.8456   -1.3908   -0.9715 H   0  0  0  0  0  0  0  0  0  0  0  0
    3.4357   -1.2518    0.4432 H   0  0  0  0  0  0  0  0  0  0  0  0
    5.6951   -2.1097    0.1373 H   0  0  0  0  0  0  0  0  0  0  0  0
  1  2  2  0  0  0  0
  1 21  1  0  0  0  0
  2  3  1  0  0  0  0
  2 22  1  0  0  0  0
  3  4  2  0  0  0  0
  3 23  1  0  0  0  0
  4  5  1  0  0  0  0
  4 19  1  0  0  0  0
  5  6  1  0  0  0  0
  5 24  1  0  0  0  0
  6  7  2  0  0  0  0
  7  8  1  0  0  0  0
  7 25  1  0  0  0  0
  8  9  2  0  0  0  0
  8 26  1  0  0  0  0
  9 10  1  0  0  0  0
  9 17  1  0  0  0  0
 10 11  1  0  0  0  0
 10 27  1  0  0  0  0
 11 12  2  0  0  0  0
 12 13  1  0  0  0  0
 12 28  1  0  0  0  0
 13 14  2  0  0  0  0
 13 29  1  0  0  0  0
 14 15  1  0  0  0  0
 14 30  1  0  0  0  0
 15 16  2  0  0  0  0
 15 31  1  0  0  0  0
 16 11  1  0  0  0  0
 16 32  1  0  0  0  0
 17 18  2  0  0  0  0
 17 33  1  0  0  0  0
 18  6  1  0  0  0  0
 18 34  1  0  0  0  0
 19 20  2  0  0  0  0
 19 35  1  0  0  0  0
 20  1  1  0  0  0  0
 20 36  1  0  0  0  0
M  END
>  <IDENTIFIER>
CNP0024347.0

>  <Energy>
309.088

$$$$
