
 OpenBabel09082511152D

145144  0  0  0  0  0  0  0  0999 V2000
   -1.5000   -2.5981    0.0000 C   0  0  0  0  0  0  0  0  0  0  0  0
   -0.7500   -1.2990   -0.0000 C   0  0  0  0  0  0  0  0  0  0  0  0
    0.7210   -0.8845   -0.0733 C   0  0  0  0  0  0  0  0  0  0  0  0
    1.9480   -1.4534   -0.1087 C   0  0  0  0  0  0  0  0  0  0  0  0
    2.3434   -2.8999   -0.0901 C   0  0  0  0  0  0  0  0  0  0  0  0
    3.8570   -3.2528   -0.0233 C   0  0  0  0  0  0  0  0  0  0  0  0
    5.0238   -2.5260    0.0698 C   0  0  0  0  0  0  0  0  0  0  0  0
    5.1781   -1.0195    0.1103 C   0  0  0  0  0  0  0  0  0  0  0  0
    6.5290   -0.3175    0.3310 C   0  0  0  0  0  0  0  0  0  0  0  0
    7.7800   -0.7261    0.6766 C   0  0  0  0  0  0  0  0  0  0  0  0
    8.2612   -2.1200    0.9725 C   0  0  0  0  0  0  0  0  0  0  0  0
    9.5759   -2.1301    1.7569 C   0  0  0  0  0  0  0  0  0  0  0  0
   10.8280   -1.7752    1.3642 C   0  0  0  0  0  0  0  0  0  0  0  0
   11.2500   -1.2990   -0.0000 C   0  0  0  0  0  0  0  0  0  0  0  0
   12.0000   -0.0000    0.0000 C   0  0  0  0  0  2  0  0  0  0  0  0
   12.7500    1.2990   -0.0000 C   0  0  0  0  0  0  0  0  0  0  0  0
   12.4114    2.8426   -0.1052 C   0  0  0  0  0  0  0  0  0  0  0  0
   13.6652    3.8203    0.0654 C   0  0  0  0  0  0  0  0  0  0  0  0
   14.7829    3.3599    0.2372 O   0  0  0  0  0  0  0  0  0  0  0  0
   13.5000    5.1962    0.0000 O   0  0  0  0  0  0  0  0  0  0  0  0
   14.2500    6.4952    0.0000 C   0  0  0  0  0  0  0  0  0  0  0  0
   15.0000    7.7942    0.0000 C   0  0  2  0  0  0  0  0  0  0  0  0
   16.4976    7.4085    0.6651 C   0  0  0  0  0  0  0  0  0  0  0  0
   17.5314    6.6075    0.0377 O   0  0  0  0  0  0  0  0  0  0  0  0
   18.7493    6.2063    0.6799 C   0  0  0  0  0  0  0  0  0  0  0  0
   18.7347    6.0467    1.8908 O   0  0  0  0  0  0  0  0  0  0  0  0
   20.1962    6.2942    0.0000 C   0  0  0  0  0  0  0  0  0  0  0  0
   21.4952    5.5442    0.0000 C   0  0  0  0  0  2  0  0  0  0  0  0
   22.7942    4.7942    0.0000 C   0  0  0  0  0  0  0  0  0  0  0  0
   24.0933    4.0442    0.0000 C   0  0  0  0  0  0  0  0  0  0  0  0
   25.3923    3.2942    0.0000 C   0  0  0  0  0  2  0  0  0  0  0  0
   26.6913    2.5442    0.0000 C   0  0  0  0  0  0  0  0  0  0  0  0
   28.2037    2.4217    0.2066 C   0  0  0  0  0  0  0  0  0  0  0  0
   28.9623    1.0128    0.1016 C   0  0  0  0  0  0  0  0  0  0  0  0
   28.9649   -0.4140   -0.0277 C   0  0  0  0  0  0  0  0  0  0  0  0
   28.2102   -1.8264   -0.1463 C   0  0  0  0  0  0  0  0  0  0  0  0
   26.6913   -1.9558    0.0000 C   0  0  0  0  0  0  0  0  0  0  0  0
   25.3923   -2.7058    0.0000 C   0  0  0  0  0  2  0  0  0  0  0  0
   24.0933   -3.4558    0.0000 C   0  0  0  0  0  0  0  0  0  0  0  0
   22.7942   -4.2058    0.0000 C   0  0  0  0  0  0  0  0  0  0  0  0
   21.4952   -4.9558    0.0000 C   0  0  0  0  0  2  0  0  0  0  0  0
   20.1962   -5.7058    0.0000 C   0  0  0  0  0  0  0  0  0  0  0  0
   18.8971   -6.4558    0.0000 C   0  0  0  0  0  0  0  0  0  0  0  0
   14.7951    9.1365    0.5562 O   0  0  0  0  0  0  0  0  0  0  0  0
   15.3015   10.3581   -0.0629 C   0  0  0  0  0  0  0  0  0  0  0  0
   14.9148   10.5807   -1.1993 O   0  0  0  0  0  0  0  0  0  0  0  0
   16.5601   11.3265    0.4131 C   0  0  0  0  0  0  0  0  0  0  0  0
   16.6597   12.9867    0.1232 C   0  0  0  0  0  0  0  0  0  0  0  0
   18.0413   13.9451    0.3449 C   0  0  0  0  0  0  0  0  0  0  0  0
   18.0000   15.5885    0.0000 C   0  0  0  0  0  0  0  0  0  0  0  0
   18.7500   16.8875    0.0000 C   0  0  0  0  0  2  0  0  0  0  0  0
   19.5000   18.1865    0.0000 C   0  0  0  0  0  0  0  0  0  0  0  0
   19.1436   19.5674   -0.4747 C   0  0  0  0  0  0  0  0  0  0  0  0
   20.3433   20.5685   -0.4867 C   0  0  0  0  0  0  0  0  0  0  0  0
   21.7227   20.5229   -0.3010 C   0  0  0  0  0  0  0  0  0  0  0  0
   22.7660   19.4111   -0.0217 C   0  0  0  0  0  0  0  0  0  0  0  0
   23.8269   19.3777   -1.1421 C   0  0  0  0  0  0  0  0  0  0  0  0
   25.2101   19.4340   -1.1360 C   0  0  0  0  0  0  0  0  0  0  0  0
   26.2500   19.4856    0.0000 C   0  0  0  0  0  0  0  0  0  0  0  0
   27.0000   20.7846    0.0000 C   0  0  0  0  0  2  0  0  0  0  0  0
   27.7500   22.0836    0.0000 C   0  0  0  0  0  0  0  0  0  0  0  0
   28.5000   23.3827    0.0000 C   0  0  0  0  0  0  0  0  0  0  0  0
   29.2500   24.6817    0.0000 C   0  0  0  0  0  0  0  0  0  0  0  0
   -2.5210   -2.1736    0.1471 H   0  0  0  0  0  0  0  0  0  0  0  0
   -1.0663   -2.9714    0.9535 H   0  0  0  0  0  0  0  0  0  0  0  0
   -2.0350   -3.5248    0.0000 H   0  0  0  0  0  0  0  0  0  0  0  0
   -1.1038   -0.7491    0.9068 H   0  0  0  0  0  0  0  0  0  0  0  0
   -1.1823   -0.7682   -0.8789 H   0  0  0  0  0  0  0  0  0  0  0  0
    0.7769    0.2044   -0.0943 H   0  0  0  0  0  0  0  0  0  0  0  0
    2.7288   -0.7272   -0.1581 H   0  0  0  0  0  0  0  0  0  0  0  0
    1.9159   -3.3691   -1.0014 H   0  0  0  0  0  0  0  0  0  0  0  0
    1.8681   -3.3676    0.7971 H   0  0  0  0  0  0  0  0  0  0  0  0
    4.0128   -4.3278   -0.0377 H   0  0  0  0  0  0  0  0  0  0  0  0
    5.9329   -3.1083    0.1129 H   0  0  0  0  0  0  0  0  0  0  0  0
    4.5489   -0.6385    0.9409 H   0  0  0  0  0  0  0  0  0  0  0  0
    4.7994   -0.6447   -0.8642 H   0  0  0  0  0  0  0  0  0  0  0  0
    6.4372    0.7617    0.2315 H   0  0  0  0  0  0  0  0  0  0  0  0
    8.5114    0.0673    0.8157 H   0  0  0  0  0  0  0  0  0  0  0  0
    7.5143   -2.5726    1.6582 H   0  0  0  0  0  0  0  0  0  0  0  0
    8.3182   -2.7349    0.0495 H   0  0  0  0  0  0  0  0  0  0  0  0
    9.4932   -2.4963    2.7771 H   0  0  0  0  0  0  0  0  0  0  0  0
   11.6247   -1.8903    2.0941 H   0  0  0  0  0  0  0  0  0  0  0  0
   11.9225   -2.0629   -0.4421 H   0  0  0  0  0  0  0  0  0  0  0  0
   10.3664   -1.1996   -0.6637 H   0  0  0  0  0  0  0  0  0  0  0  0
   13.2600    1.2399    0.9849 H   0  0  0  0  0  0  0  0  0  0  0  0
   13.5466    1.1288   -0.7547 H   0  0  0  0  0  0  0  0  0  0  0  0
   11.6728    3.0892    0.6864 H   0  0  0  0  0  0  0  0  0  0  0  0
   11.9430    3.0349   -1.0930 H   0  0  0  0  0  0  0  0  0  0  0  0
   14.9407    6.0825   -0.7751 H   0  0  0  0  0  0  0  0  0  0  0  0
   13.3934    7.0436   -0.4503 H   0  0  0  0  0  0  0  0  0  0  0  0
   15.2109    8.0460   -1.0774 H   0  0  0  0  0  0  0  0  0  0  0  0
   17.0103    8.3755    0.8569 H   0  0  0  0  0  0  0  0  0  0  0  0
   16.2908    6.9967    1.6774 H   0  0  0  0  0  0  0  0  0  0  0  0
   19.9819    6.4572   -1.0765 H   0  0  0  0  0  0  0  0  0  0  0  0
   20.5419    7.2916    0.3437 H   0  0  0  0  0  0  0  0  0  0  0  0
   22.4251    4.2385   -0.8959 H   0  0  0  0  0  0  0  0  0  0  0  0
   22.4251    4.2386    0.8960 H   0  0  0  0  0  0  0  0  0  0  0  0
   24.4624    4.5998   -0.8960 H   0  0  0  0  0  0  0  0  0  0  0  0
   24.4624    4.5998    0.8960 H   0  0  0  0  0  0  0  0  0  0  0  0
   26.3764    1.7582    0.7194 H   0  0  0  0  0  0  0  0  0  0  0  0
   26.5981    2.0627   -0.9971 H   0  0  0  0  0  0  0  0  0  0  0  0
   28.4482    2.8502    1.2023 H   0  0  0  0  0  0  0  0  0  0  0  0
   28.6572    3.0919   -0.5570 H   0  0  0  0  0  0  0  0  0  0  0  0
   30.0104    1.3131    0.1576 H   0  0  0  0  0  0  0  0  0  0  0  0
   30.0134   -0.7128   -0.0587 H   0  0  0  0  0  0  0  0  0  0  0  0
   28.4974   -2.2680   -1.1243 H   0  0  0  0  0  0  0  0  0  0  0  0
   28.6384   -2.4822    0.6445 H   0  0  0  0  0  0  0  0  0  0  0  0
   26.5629   -1.4400    0.9758 H   0  0  0  0  0  0  0  0  0  0  0  0
   26.3987   -1.1978   -0.7578 H   0  0  0  0  0  0  0  0  0  0  0  0
   24.4624   -4.0114   -0.8960 H   0  0  0  0  0  0  0  0  0  0  0  0
   24.4624   -4.0114    0.8960 H   0  0  0  0  0  0  0  0  0  0  0  0
   22.4251   -3.6502   -0.8960 H   0  0  0  0  0  0  0  0  0  0  0  0
   22.4251   -3.6502    0.8960 H   0  0  0  0  0  0  0  0  0  0  0  0
   20.5206   -6.1867   -0.9514 H   0  0  0  0  0  0  0  0  0  0  0  0
   20.6018   -6.2098    0.9158 H   0  0  0  0  0  0  0  0  0  0  0  0
   18.5079   -6.0425    0.9599 H   0  0  0  0  0  0  0  0  0  0  0  0
   19.2707   -7.5117    0.0905 H   0  0  0  0  0  0  0  0  0  0  0  0
   17.9704   -6.9908    0.0000 H   0  0  0  0  0  0  0  0  0  0  0  0
   16.7925   11.1158    1.4766 H   0  0  0  0  0  0  0  0  0  0  0  0
   17.4184   10.9254   -0.1673 H   0  0  0  0  0  0  0  0  0  0  0  0
   16.3864   13.1202   -0.9445 H   0  0  0  0  0  0  0  0  0  0  0  0
   15.8508   13.4507    0.7247 H   0  0  0  0  0  0  0  0  0  0  0  0
   18.8450   13.5042   -0.2823 H   0  0  0  0  0  0  0  0  0  0  0  0
   18.3480   13.8374    1.4054 H   0  0  0  0  0  0  0  0  0  0  0  0
   17.1238   15.8900    0.6108 H   0  0  0  0  0  0  0  0  0  0  0  0
   17.6234   15.5778   -1.0439 H   0  0  0  0  0  0  0  0  0  0  0  0
   19.9200   18.2896    1.0236 H   0  0  0  0  0  0  0  0  0  0  0  0
   20.3346   17.9025   -0.6681 H   0  0  0  0  0  0  0  0  0  0  0  0
   18.3608   19.9564    0.2113 H   0  0  0  0  0  0  0  0  0  0  0  0
   18.7174   19.5209   -1.4992 H   0  0  0  0  0  0  0  0  0  0  0  0
   19.9826   21.5695   -0.7085 H   0  0  0  0  0  0  0  0  0  0  0  0
   22.2036   21.4945   -0.3858 H   0  0  0  0  0  0  0  0  0  0  0  0
   22.2808   18.4240    0.0342 H   0  0  0  0  0  0  0  0  0  0  0  0
   23.2626   19.5977    0.9535 H   0  0  0  0  0  0  0  0  0  0  0  0
   23.3842   19.2944   -2.1315 H   0  0  0  0  0  0  0  0  0  0  0  0
   25.6683   19.4158   -2.1212 H   0  0  0  0  0  0  0  0  0  0  0  0
   25.7281   19.4055    0.9755 H   0  0  0  0  0  0  0  0  0  0  0  0
   26.9552   18.6341   -0.0946 H   0  0  0  0  0  0  0  0  0  0  0  0
   28.3115   21.6957   -0.8886 H   0  0  0  0  0  0  0  0  0  0  0  0
   28.3096   21.6991    0.8895 H   0  0  0  0  0  0  0  0  0  0  0  0
   27.9625   23.7011    0.9340 H   0  0  0  0  0  0  0  0  0  0  0  0
   27.8888   23.6728   -0.9065 H   0  0  0  0  0  0  0  0  0  0  0  0
   29.8066   24.5129   -0.9522 H   0  0  0  0  0  0  0  0  0  0  0  0
   28.4153   25.4331   -0.0961 H   0  0  0  0  0  0  0  0  0  0  0  0
   29.7850   25.6083    0.0000 H   0  0  0  0  0  0  0  0  0  0  0  0
  1  2  1  0  0  0  0
  1 64  1  0  0  0  0
  1 65  1  0  0  0  0
  1 66  1  0  0  0  0
  2  3  1  0  0  0  0
  2 67  1  0  0  0  0
  2 68  1  0  0  0  0
  3  4  2  0  0  0  0
  3 69  1  0  0  0  0
  4  5  1  0  0  0  0
  4 70  1  0  0  0  0
  5  6  1  0  0  0  0
  5 71  1  0  0  0  0
  5 72  1  0  0  0  0
  6  7  2  0  0  0  0
  6 73  1  0  0  0  0
  7  8  1  0  0  0  0
  7 74  1  0  0  0  0
  8  9  1  0  0  0  0
  8 75  1  0  0  0  0
  8 76  1  0  0  0  0
  9 10  2  0  0  0  0
  9 77  1  0  0  0  0
 10 11  1  0  0  0  0
 10 78  1  0  0  0  0
 11 12  1  0  0  0  0
 11 79  1  0  0  0  0
 11 80  1  0  0  0  0
 12 13  2  0  0  0  0
 12 81  1  0  0  0  0
 13 14  1  0  0  0  0
 13 82  1  0  0  0  0
 14 15  1  0  0  0  0
 14 83  1  0  0  0  0
 14 84  1  0  0  0  0
 15 16  1  0  0  0  0
 16 17  1  0  0  0  0
 16 85  1  0  0  0  0
 16 86  1  0  0  0  0
 17 18  1  0  0  0  0
 17 87  1  0  0  0  0
 17 88  1  0  0  0  0
 18 19  2  0  0  0  0
 18 20  1  0  0  0  0
 20 21  1  0  0  0  0
 21 89  1  0  0  0  0
 21 90  1  0  0  0  0
 22 21  1  0  0  0  0
 22 23  1  0  0  0  0
 22 44  1  0  0  0  0
 22 91  1  6  0  0  0
 23 24  1  0  0  0  0
 23 92  1  0  0  0  0
 23 93  1  0  0  0  0
 24 25  1  0  0  0  0
 25 26  2  0  0  0  0
 25 27  1  0  0  0  0
 27 28  1  0  0  0  0
 27 94  1  0  0  0  0
 27 95  1  0  0  0  0
 28 29  1  0  0  0  0
 29 30  1  0  0  0  0
 29 96  1  0  0  0  0
 29 97  1  0  0  0  0
 30 31  1  0  0  0  0
 30 98  1  0  0  0  0
 30 99  1  0  0  0  0
 31 32  1  0  0  0  0
 32 33  1  0  0  0  0
 32100  1  0  0  0  0
 32101  1  0  0  0  0
 33 34  1  0  0  0  0
 33102  1  0  0  0  0
 33103  1  0  0  0  0
 34 35  2  0  0  0  0
 34104  1  0  0  0  0
 35 36  1  0  0  0  0
 35105  1  0  0  0  0
 36 37  1  0  0  0  0
 36106  1  0  0  0  0
 36107  1  0  0  0  0
 37 38  1  0  0  0  0
 37108  1  0  0  0  0
 37109  1  0  0  0  0
 38 39  1  0  0  0  0
 39 40  1  0  0  0  0
 39110  1  0  0  0  0
 39111  1  0  0  0  0
 40 41  1  0  0  0  0
 40112  1  0  0  0  0
 40113  1  0  0  0  0
 41 42  1  0  0  0  0
 42 43  1  0  0  0  0
 42114  1  0  0  0  0
 42115  1  0  0  0  0
 43116  1  0  0  0  0
 43117  1  0  0  0  0
 43118  1  0  0  0  0
 44 45  1  0  0  0  0
 45 46  2  0  0  0  0
 45 47  1  0  0  0  0
 47 48  1  0  0  0  0
 47119  1  0  0  0  0
 47120  1  0  0  0  0
 48 49  1  0  0  0  0
 48121  1  0  0  0  0
 48122  1  0  0  0  0
 49 50  1  0  0  0  0
 49123  1  0  0  0  0
 49124  1  0  0  0  0
 50 51  1  0  0  0  0
 50125  1  0  0  0  0
 50126  1  0  0  0  0
 51 52  1  0  0  0  0
 52 53  1  0  0  0  0
 52127  1  0  0  0  0
 52128  1  0  0  0  0
 53 54  1  0  0  0  0
 53129  1  0  0  0  0
 53130  1  0  0  0  0
 54 55  2  0  0  0  0
 54131  1  0  0  0  0
 55 56  1  0  0  0  0
 55132  1  0  0  0  0
 56 57  1  0  0  0  0
 56133  1  0  0  0  0
 56134  1  0  0  0  0
 57 58  2  0  0  0  0
 57135  1  0  0  0  0
 58 59  1  0  0  0  0
 58136  1  0  0  0  0
 59 60  1  0  0  0  0
 59137  1  0  0  0  0
 59138  1  0  0  0  0
 60 61  1  0  0  0  0
 61 62  1  0  0  0  0
 61139  1  0  0  0  0
 61140  1  0  0  0  0
 62 63  1  0  0  0  0
 62141  1  0  0  0  0
 62142  1  0  0  0  0
 63143  1  0  0  0  0
 63144  1  0  0  0  0
 63145  1  0  0  0  0
M  END
>  <IDENTIFIER>
CNP0569954.1

>  <Energy>
8627.86

$$$$
