
 OpenBabel09122502373D

 39 38  0  0  0  0  0  0  0  0999 V2000
    6.6649    1.9168   -0.4675 C   0  0  0  0  0  0  0  0  0  0  0  0
    5.3956    1.4332   -0.2373 O   0  0  0  0  0  0  0  0  0  0  0  0
    5.0410    0.7159    0.8613 C   0  0  0  0  0  0  0  0  0  0  0  0
    5.8611    0.4732    1.7365 O   0  0  0  0  0  0  0  0  0  0  0  0
    3.6344    0.2027    1.0171 C   0  0  0  0  0  0  0  0  0  0  0  0
    2.7420    0.6042   -0.1686 C   0  0  0  0  0  0  0  0  0  0  0  0
    1.2843    0.1414   -0.0332 C   0  0  0  0  0  0  0  0  0  0  0  0
    1.1257   -1.3925   -0.0371 C   0  0  0  0  0  0  0  0  0  0  0  0
   -0.3417   -1.8451    0.0667 C   0  0  0  0  0  0  0  0  0  0  0  0
   -1.1837   -1.4633   -1.1596 C   0  0  0  0  0  0  0  0  0  0  0  0
   -2.5982   -1.9655   -0.9916 C   0  0  0  0  0  0  0  0  0  0  0  0
   -3.7217   -1.2178   -0.9507 C   0  0  0  0  0  0  0  0  0  0  0  0
   -3.8189    0.2918   -1.0609 C   0  0  0  0  0  0  0  0  0  0  0  0
   -4.3762    0.8379    0.0811 O   0  0  0  0  0  0  0  0  0  0  0  0
   -5.6543    0.6475    0.5029 C   0  0  0  0  0  0  0  0  0  0  0  0
   -6.1112    1.2832    1.7758 C   0  0  0  0  0  0  0  0  0  0  0  0
   -6.4414   -0.0217   -0.1510 O   0  0  0  0  0  0  0  0  0  0  0  0
    6.6746    2.4648   -1.4318 H   0  0  0  0  0  0  0  0  0  0  0  0
    7.3880    1.0754   -0.5266 H   0  0  0  0  0  0  0  0  0  0  0  0
    6.9621    2.6139    0.3449 H   0  0  0  0  0  0  0  0  0  0  0  0
    3.2038    0.6179    1.9545 H   0  0  0  0  0  0  0  0  0  0  0  0
    3.6846   -0.9018    1.1008 H   0  0  0  0  0  0  0  0  0  0  0  0
    3.1650    0.1999   -1.1146 H   0  0  0  0  0  0  0  0  0  0  0  0
    2.7337    1.7148   -0.2365 H   0  0  0  0  0  0  0  0  0  0  0  0
    0.7464    0.5724   -0.9003 H   0  0  0  0  0  0  0  0  0  0  0  0
    0.8434    0.5642    0.8966 H   0  0  0  0  0  0  0  0  0  0  0  0
    1.6558   -1.8107    0.8432 H   0  0  0  0  0  0  0  0  0  0  0  0
    1.5801   -1.8217   -0.9567 H   0  0  0  0  0  0  0  0  0  0  0  0
   -0.7921   -1.4110    0.9864 H   0  0  0  0  0  0  0  0  0  0  0  0
   -0.3529   -2.9533    0.1654 H   0  0  0  0  0  0  0  0  0  0  0  0
   -0.7496   -1.9314   -2.0691 H   0  0  0  0  0  0  0  0  0  0  0  0
   -1.1490   -0.3775   -1.3037 H   0  0  0  0  0  0  0  0  0  0  0  0
   -2.7164   -3.0413   -0.8923 H   0  0  0  0  0  0  0  0  0  0  0  0
   -4.6562   -1.7556   -0.8254 H   0  0  0  0  0  0  0  0  0  0  0  0
   -4.4383    0.5581   -1.9436 H   0  0  0  0  0  0  0  0  0  0  0  0
   -2.8430    0.7797   -1.2076 H   0  0  0  0  0  0  0  0  0  0  0  0
   -5.2823    1.8594    2.2384 H   0  0  0  0  0  0  0  0  0  0  0  0
   -6.4466    0.4996    2.4870 H   0  0  0  0  0  0  0  0  0  0  0  0
   -6.9548    1.9733    1.5649 H   0  0  0  0  0  0  0  0  0  0  0  0
  1  2  1  0  0  0  0
  1 18  1  0  0  0  0
  1 19  1  0  0  0  0
  1 20  1  0  0  0  0
  2  3  1  0  0  0  0
  3  4  2  0  0  0  0
  3  5  1  0  0  0  0
  5  6  1  0  0  0  0
  5 21  1  0  0  0  0
  5 22  1  0  0  0  0
  6  7  1  0  0  0  0
  6 23  1  0  0  0  0
  6 24  1  0  0  0  0
  7  8  1  0  0  0  0
  7 25  1  0  0  0  0
  7 26  1  0  0  0  0
  8  9  1  0  0  0  0
  8 27  1  0  0  0  0
  8 28  1  0  0  0  0
  9 10  1  0  0  0  0
  9 29  1  0  0  0  0
  9 30  1  0  0  0  0
 10 11  1  0  0  0  0
 10 31  1  0  0  0  0
 10 32  1  0  0  0  0
 11 12  2  3  0  0  0
 11 33  1  0  0  0  0
 12 13  1  0  0  0  0
 12 34  1  0  0  0  0
 13 14  1  0  0  0  0
 13 35  1  0  0  0  0
 13 36  1  0  0  0  0
 14 15  1  0  0  0  0
 15 16  1  0  0  0  0
 15 17  2  0  0  0  0
 16 37  1  0  0  0  0
 16 38  1  0  0  0  0
 16 39  1  0  0  0  0
M  END
>  <IDENTIFIER>
CNP0252709.0

>  <Energy>
101.19

$$$$
