
 OpenBabel09132508552D

149148  0  0  0  0  0  0  0  0999 V2000
   23.3827   13.5000    0.0000 C   0  0  0  0  0  0  0  0  0  0  0  0
   22.0836   12.7500    0.0000 C   0  0  0  0  0  0  0  0  0  0  0  0
   20.7846   12.0000    0.0000 C   0  0  0  0  0  2  0  0  0  0  0  0
   19.4856   11.2500    0.0000 C   0  0  0  0  0  0  0  0  0  0  0  0
   18.1865   10.5000    0.0000 C   0  0  0  0  0  0  0  0  0  0  0  0
   16.8875    9.7500    0.0000 C   0  0  0  0  0  2  0  0  0  0  0  0
   15.5885    9.0000    0.0000 C   0  0  0  0  0  0  0  0  0  0  0  0
   13.9440    8.6535    0.0352 C   0  0  0  0  0  0  0  0  0  0  0  0
   13.3415    7.0633   -0.0255 C   0  0  0  0  0  0  0  0  0  0  0  0
   11.6913    6.7500    0.0000 C   0  0  0  0  0  0  0  0  0  0  0  0
   10.3923    6.0000    0.0000 C   0  0  0  0  0  0  0  0  0  0  0  0
    9.0933    5.2500    0.0000 C   0  0  0  0  0  0  0  0  0  0  0  0
    7.7942    4.5000    0.0000 C   0  0  0  0  0  0  0  0  0  0  0  0
    6.4952    3.7500    0.0000 C   0  0  0  0  0  0  0  0  0  0  0  0
    5.1962    3.0000    0.0000 C   0  0  0  0  0  0  0  0  0  0  0  0
    3.5749    2.7418   -0.0878 C   0  0  0  0  0  0  0  0  0  0  0  0
    3.0460    1.1736    0.1215 C   0  0  0  0  0  0  0  0  0  0  0  0
    1.4624    0.7526   -0.0433 C   0  0  0  0  0  0  0  0  0  0  0  0
    0.8303   -0.6681    0.4456 C   0  0  0  0  0  0  0  0  0  0  0  0
    0.9877   -0.9495    1.6230 O   0  0  0  0  0  0  0  0  0  0  0  0
   -0.0477   -1.5017   -0.3247 O   0  0  0  0  0  0  0  0  0  0  0  0
   -1.2990   -2.2500    0.0000 C   0  0  1  0  0  0  0  0  0  0  0  0
   -2.0490   -0.9510   -0.0000 C   0  0  0  0  0  0  0  0  0  0  0  0
   -3.4839   -0.6356    0.1136 O   0  0  0  0  0  0  0  0  0  0  0  0
   -3.9989    0.7241    0.0041 C   0  0  0  0  0  0  0  0  0  0  0  0
   -3.1808    1.5940   -0.2569 O   0  0  0  0  0  0  0  0  0  0  0  0
   -5.5408    1.2966    0.1834 C   0  0  0  0  0  0  0  0  0  0  0  0
   -5.7990    2.9462    0.0000 C   0  0  0  0  0  0  0  0  0  0  0  0
   -6.5490    4.2452    0.0000 C   0  0  0  0  0  0  0  0  0  0  0  0
   -7.2990    5.5442    0.0000 C   0  0  0  0  0  0  0  0  0  0  0  0
   -8.0490    6.8433    0.0000 C   0  0  0  0  0  0  0  0  0  0  0  0
   -8.7990    8.1423    0.0000 C   0  0  0  0  0  0  0  0  0  0  0  0
   -9.5490    9.4413    0.0000 C   0  0  0  0  0  0  0  0  0  0  0  0
   -9.8813   11.0872   -0.0710 C   0  0  0  0  0  0  0  0  0  0  0  0
  -11.4705   11.6906    0.0467 C   0  0  0  0  0  0  0  0  0  0  0  0
  -11.7990   13.3385    0.0000 C   0  0  0  0  0  0  0  0  0  0  0  0
  -12.5490   14.6375    0.0000 C   0  0  0  0  0  0  0  0  0  0  0  0
   -0.5490   -3.5490    0.0000 C   0  0  0  0  0  0  0  0  0  0  0  0
    0.5199   -4.2261   -0.7615 O   0  0  0  0  0  0  0  0  0  0  0  0
    1.3988   -5.2438   -0.1987 C   0  0  0  0  0  0  0  0  0  0  0  0
    1.4871   -5.2711    1.0186 O   0  0  0  0  0  0  0  0  0  0  0  0
    2.2851   -6.4188   -0.9589 C   0  0  0  0  0  0  0  0  0  0  0  0
    3.2010   -7.4462    0.0000 C   0  0  0  0  0  0  0  0  0  0  0  0
    3.9510   -8.7452    0.0000 C   0  0  0  0  0  0  0  0  0  0  0  0
    4.7010  -10.0442    0.0000 C   0  0  0  0  0  0  0  0  0  0  0  0
    5.4510  -11.3433    0.0000 C   0  0  0  0  0  0  0  0  0  0  0  0
    6.2010  -12.6423    0.0000 C   0  0  0  0  0  0  0  0  0  0  0  0
    6.9510  -13.9413    0.0000 C   0  0  0  0  0  0  0  0  0  0  0  0
    7.2915  -15.5760   -0.1837 C   0  0  0  0  0  0  0  0  0  0  0  0
    8.8306  -16.2080    0.1724 C   0  0  0  0  0  0  0  0  0  0  0  0
    9.2010  -17.8385    0.0000 C   0  0  0  0  0  0  0  0  0  0  0  0
    9.9510  -19.1375    0.0000 C   0  0  0  0  0  2  0  0  0  0  0  0
   10.7010  -20.4365    0.0000 C   0  0  0  0  0  0  0  0  0  0  0  0
   11.4510  -21.7356    0.0000 C   0  0  0  0  0  0  0  0  0  0  0  0
   12.2010  -23.0346    0.0000 C   0  0  0  0  0  0  0  0  0  0  0  0
   12.9510  -24.3336    0.0000 C   0  0  0  0  0  0  0  0  0  0  0  0
   10.9019  -23.7846    0.0000 C   0  0  0  0  0  0  0  0  0  0  0  0
   23.8355   12.9829    0.8787 H   0  0  0  0  0  0  0  0  0  0  0  0
   23.0205   14.5370    0.2376 H   0  0  0  0  0  0  0  0  0  0  0  0
   24.3094   14.0350    0.0000 H   0  0  0  0  0  0  0  0  0  0  0  0
   21.6804   13.3602   -0.8411 H   0  0  0  0  0  0  0  0  0  0  0  0
   21.7531   13.1263    1.0032 H   0  0  0  0  0  0  0  0  0  0  0  0
   19.8547   10.6944    0.8960 H   0  0  0  0  0  0  0  0  0  0  0  0
   19.8547   10.6943   -0.8959 H   0  0  0  0  0  0  0  0  0  0  0  0
   17.8174   11.0557    0.8959 H   0  0  0  0  0  0  0  0  0  0  0  0
   17.8174   11.0556   -0.8960 H   0  0  0  0  0  0  0  0  0  0  0  0
   15.8045    8.4301   -0.9277 H   0  0  0  0  0  0  0  0  0  0  0  0
   15.8643    8.3273    0.8387 H   0  0  0  0  0  0  0  0  0  0  0  0
   13.5449    9.1061    0.9673 H   0  0  0  0  0  0  0  0  0  0  0  0
   13.4866    9.2002   -0.8159 H   0  0  0  0  0  0  0  0  0  0  0  0
   13.7868    6.5192    0.8335 H   0  0  0  0  0  0  0  0  0  0  0  0
   13.7424    6.6005   -0.9519 H   0  0  0  0  0  0  0  0  0  0  0  0
   11.4587    7.4318   -0.8548 H   0  0  0  0  0  0  0  0  0  0  0  0
   11.4946    7.4000    0.8927 H   0  0  0  0  0  0  0  0  0  0  0  0
   10.6865    5.5053   -0.9639 H   0  0  0  0  0  0  0  0  0  0  0  0
   10.8653    5.4687    0.8908 H   0  0  0  0  0  0  0  0  0  0  0  0
    9.5716    4.2311    0.2027 H   0  0  0  0  0  0  0  0  0  0  0  0
    8.8505    5.7066    1.0064 H   0  0  0  0  0  0  0  0  0  0  0  0
    8.0477    4.0219   -0.9974 H   0  0  0  0  0  0  0  0  0  0  0  0
    7.3228    5.5136   -0.2345 H   0  0  0  0  0  0  0  0  0  0  0  0
    6.0586    4.2188   -0.9425 H   0  0  0  0  0  0  0  0  0  0  0  0
    6.1553    4.3147    0.9105 H   0  0  0  0  0  0  0  0  0  0  0  0
    5.4584    2.2555   -0.7952 H   0  0  0  0  0  0  0  0  0  0  0  0
    5.3523    2.4175    0.9421 H   0  0  0  0  0  0  0  0  0  0  0  0
    3.0766    3.3698    0.6804 H   0  0  0  0  0  0  0  0  0  0  0  0
    3.2349    3.0921   -1.0851 H   0  0  0  0  0  0  0  0  0  0  0  0
    3.3439    0.8935    1.1537 H   0  0  0  0  0  0  0  0  0  0  0  0
    3.6160    0.5225   -0.5739 H   0  0  0  0  0  0  0  0  0  0  0  0
    1.1651    0.9265   -1.0984 H   0  0  0  0  0  0  0  0  0  0  0  0
    0.9217    1.5052    0.5688 H   0  0  0  0  0  0  0  0  0  0  0  0
   -1.8003   -2.5564   -0.9487 H   0  0  0  0  0  0  0  0  0  0  0  0
   -1.7993   -0.4057   -0.9559 H   0  0  0  0  0  0  0  0  0  0  0  0
   -1.6255   -0.3528    0.8414 H   0  0  0  0  0  0  0  0  0  0  0  0
   -5.8659    1.0257    1.2100 H   0  0  0  0  0  0  0  0  0  0  0  0
   -6.1982    0.7639   -0.5343 H   0  0  0  0  0  0  0  0  0  0  0  0
   -5.3445    3.0291   -1.0172 H   0  0  0  0  0  0  0  0  0  0  0  0
   -4.9551    3.2537    0.6724 H   0  0  0  0  0  0  0  0  0  0  0  0
   -6.8197    3.9308    1.0628 H   0  0  0  0  0  0  0  0  0  0  0  0
   -7.2739    3.8055   -0.7357 H   0  0  0  0  0  0  0  0  0  0  0  0
   -6.6220    5.9114    0.8332 H   0  0  0  0  0  0  0  0  0  0  0  0
   -8.2356    5.1180    0.4963 H   0  0  0  0  0  0  0  0  0  0  0  0
   -8.7128    6.4829   -0.8435 H   0  0  0  0  0  0  0  0  0  0  0  0
   -7.1042    7.2759   -0.4776 H   0  0  0  0  0  0  0  0  0  0  0  0
   -8.4783    8.4870   -1.0391 H   0  0  0  0  0  0  0  0  0  0  0  0
   -8.1109    8.5543    0.7848 H   0  0  0  0  0  0  0  0  0  0  0  0
  -10.3454    9.1697   -0.7436 H   0  0  0  0  0  0  0  0  0  0  0  0
  -10.0695    9.2886    0.9766 H   0  0  0  0  0  0  0  0  0  0  0  0
   -9.2899   11.5683    0.7363 H   0  0  0  0  0  0  0  0  0  0  0  0
   -9.4760   11.4538   -1.0374 H   0  0  0  0  0  0  0  0  0  0  0  0
  -11.8954   11.3045    0.9972 H   0  0  0  0  0  0  0  0  0  0  0  0
  -12.0457   11.2248   -0.7813 H   0  0  0  0  0  0  0  0  0  0  0  0
  -11.2040   13.4804   -0.9385 H   0  0  0  0  0  0  0  0  0  0  0  0
  -11.1363   13.5737    0.8649 H   0  0  0  0  0  0  0  0  0  0  0  0
  -11.6948   15.3409   -0.1741 H   0  0  0  0  0  0  0  0  0  0  0  0
  -13.1312   14.4356   -0.9273 H   0  0  0  0  0  0  0  0  0  0  0  0
  -13.0840   15.5641    0.0000 H   0  0  0  0  0  0  0  0  0  0  0  0
   -0.1367   -3.4897    1.0321 H   0  0  0  0  0  0  0  0  0  0  0  0
   -1.3265   -4.3325    0.1594 H   0  0  0  0  0  0  0  0  0  0  0  0
    2.9589   -5.9487   -1.7045 H   0  0  0  0  0  0  0  0  0  0  0  0
    1.5519   -7.0467   -1.5084 H   0  0  0  0  0  0  0  0  0  0  0  0
    3.9138   -6.7350    0.4771 H   0  0  0  0  0  0  0  0  0  0  0  0
    2.3868   -7.6115    0.7602 H   0  0  0  0  0  0  0  0  0  0  0  0
    3.9344   -8.8092    1.1278 H   0  0  0  0  0  0  0  0  0  0  0  0
    3.0380   -9.2574   -0.4050 H   0  0  0  0  0  0  0  0  0  0  0  0
    4.8196   -9.9676   -1.1217 H   0  0  0  0  0  0  0  0  0  0  0  0
    5.6402   -9.4986    0.3191 H   0  0  0  0  0  0  0  0  0  0  0  0
    4.4564  -11.7887   -0.3347 H   0  0  0  0  0  0  0  0  0  0  0  0
    5.4796  -11.3292    1.1277 H   0  0  0  0  0  0  0  0  0  0  0  0
    5.4039  -13.2587    0.5264 H   0  0  0  0  0  0  0  0  0  0  0  0
    6.0905  -12.7103   -1.1167 H   0  0  0  0  0  0  0  0  0  0  0  0
    7.3151  -13.8874    1.0566 H   0  0  0  0  0  0  0  0  0  0  0  0
    7.8459  -13.6047   -0.5819 H   0  0  0  0  0  0  0  0  0  0  0  0
    7.0770  -15.8324   -1.2424 H   0  0  0  0  0  0  0  0  0  0  0  0
    6.5618  -16.1299    0.4436 H   0  0  0  0  0  0  0  0  0  0  0  0
    9.5550  -15.6505   -0.4579 H   0  0  0  0  0  0  0  0  0  0  0  0
    9.0455  -15.9439    1.2291 H   0  0  0  0  0  0  0  0  0  0  0  0
    8.3591  -18.2119    0.6195 H   0  0  0  0  0  0  0  0  0  0  0  0
    8.8609  -17.9218   -1.0533 H   0  0  0  0  0  0  0  0  0  0  0  0
   11.2691  -19.9927    0.8730 H   0  0  0  0  0  0  0  0  0  0  0  0
   11.2885  -19.9740   -0.8444 H   0  0  0  0  0  0  0  0  0  0  0  0
   10.8124  -21.8595    0.9666 H   0  0  0  0  0  0  0  0  0  0  0  0
   11.0388  -21.8751   -1.0623 H   0  0  0  0  0  0  0  0  0  0  0  0
   12.6472  -22.6739    0.9707 H   0  0  0  0  0  0  0  0  0  0  0  0
   12.9480  -24.6365    1.0868 H   0  0  0  0  0  0  0  0  0  0  0  0
   13.9403  -23.8886   -0.2537 H   0  0  0  0  0  0  0  0  0  0  0  0
   13.4860  -25.2602    0.0000 H   0  0  0  0  0  0  0  0  0  0  0  0
   10.8608  -24.3004    1.0005 H   0  0  0  0  0  0  0  0  0  0  0  0
   10.8790  -24.2372   -1.0323 H   0  0  0  0  0  0  0  0  0  0  0  0
    9.9752  -24.3196    0.0000 H   0  0  0  0  0  0  0  0  0  0  0  0
  1  2  1  0  0  0  0
  1 58  1  0  0  0  0
  1 59  1  0  0  0  0
  1 60  1  0  0  0  0
  2  3  1  0  0  0  0
  2 61  1  0  0  0  0
  2 62  1  0  0  0  0
  3  4  1  0  0  0  0
  4  5  1  0  0  0  0
  4 63  1  0  0  0  0
  4 64  1  0  0  0  0
  5  6  1  0  0  0  0
  5 65  1  0  0  0  0
  5 66  1  0  0  0  0
  6  7  1  0  0  0  0
  7  8  1  0  0  0  0
  7 67  1  0  0  0  0
  7 68  1  0  0  0  0
  8  9  1  0  0  0  0
  8 69  1  0  0  0  0
  8 70  1  0  0  0  0
  9 10  1  0  0  0  0
  9 71  1  0  0  0  0
  9 72  1  0  0  0  0
 10 11  1  0  0  0  0
 10 73  1  0  0  0  0
 10 74  1  0  0  0  0
 11 12  1  0  0  0  0
 11 75  1  0  0  0  0
 11 76  1  0  0  0  0
 12 13  1  0  0  0  0
 12 77  1  0  0  0  0
 12 78  1  0  0  0  0
 13 14  1  0  0  0  0
 13 79  1  0  0  0  0
 13 80  1  0  0  0  0
 14 15  1  0  0  0  0
 14 81  1  0  0  0  0
 14 82  1  0  0  0  0
 15 16  1  0  0  0  0
 15 83  1  0  0  0  0
 15 84  1  0  0  0  0
 16 17  1  0  0  0  0
 16 85  1  0  0  0  0
 16 86  1  0  0  0  0
 17 18  1  0  0  0  0
 17 87  1  0  0  0  0
 17 88  1  0  0  0  0
 18 19  1  0  0  0  0
 18 89  1  0  0  0  0
 18 90  1  0  0  0  0
 19 20  2  0  0  0  0
 19 21  1  0  0  0  0
 21 22  1  0  0  0  0
 22 23  1  0  0  0  0
 22 38  1  0  0  0  0
 22 91  1  1  0  0  0
 23 24  1  0  0  0  0
 23 92  1  0  0  0  0
 23 93  1  0  0  0  0
 24 25  1  0  0  0  0
 25 26  2  0  0  0  0
 25 27  1  0  0  0  0
 27 28  1  0  0  0  0
 27 94  1  0  0  0  0
 27 95  1  0  0  0  0
 28 29  1  0  0  0  0
 28 96  1  0  0  0  0
 28 97  1  0  0  0  0
 29 30  1  0  0  0  0
 29 98  1  0  0  0  0
 29 99  1  0  0  0  0
 30 31  1  0  0  0  0
 30100  1  0  0  0  0
 30101  1  0  0  0  0
 31 32  1  0  0  0  0
 31102  1  0  0  0  0
 31103  1  0  0  0  0
 32 33  1  0  0  0  0
 32104  1  0  0  0  0
 32105  1  0  0  0  0
 33 34  1  0  0  0  0
 33106  1  0  0  0  0
 33107  1  0  0  0  0
 34 35  1  0  0  0  0
 34108  1  0  0  0  0
 34109  1  0  0  0  0
 35 36  1  0  0  0  0
 35110  1  0  0  0  0
 35111  1  0  0  0  0
 36 37  1  0  0  0  0
 36112  1  0  0  0  0
 36113  1  0  0  0  0
 37114  1  0  0  0  0
 37115  1  0  0  0  0
 37116  1  0  0  0  0
 38 39  1  0  0  0  0
 38117  1  0  0  0  0
 38118  1  0  0  0  0
 39 40  1  0  0  0  0
 40 41  2  0  0  0  0
 40 42  1  0  0  0  0
 42 43  1  0  0  0  0
 42119  1  0  0  0  0
 42120  1  0  0  0  0
 43 44  1  0  0  0  0
 43121  1  0  0  0  0
 43122  1  0  0  0  0
 44 45  1  0  0  0  0
 44123  1  0  0  0  0
 44124  1  0  0  0  0
 45 46  1  0  0  0  0
 45125  1  0  0  0  0
 45126  1  0  0  0  0
 46 47  1  0  0  0  0
 46127  1  0  0  0  0
 46128  1  0  0  0  0
 47 48  1  0  0  0  0
 47129  1  0  0  0  0
 47130  1  0  0  0  0
 48 49  1  0  0  0  0
 48131  1  0  0  0  0
 48132  1  0  0  0  0
 49 50  1  0  0  0  0
 49133  1  0  0  0  0
 49134  1  0  0  0  0
 50 51  1  0  0  0  0
 50135  1  0  0  0  0
 50136  1  0  0  0  0
 51 52  1  0  0  0  0
 51137  1  0  0  0  0
 51138  1  0  0  0  0
 52 53  1  0  0  0  0
 53 54  1  0  0  0  0
 53139  1  0  0  0  0
 53140  1  0  0  0  0
 54 55  1  0  0  0  0
 54141  1  0  0  0  0
 54142  1  0  0  0  0
 55 56  1  0  0  0  0
 55 57  1  0  0  0  0
 55143  1  0  0  0  0
 56144  1  0  0  0  0
 56145  1  0  0  0  0
 56146  1  0  0  0  0
 57147  1  0  0  0  0
 57148  1  0  0  0  0
 57149  1  0  0  0  0
M  END
>  <IDENTIFIER>
CNP0500306.2

>  <Energy>
13794.3

$$$$
