
 OpenBabel09122516403D

 90 91  0  0  0  0  0  0  0  0999 V2000
   -5.6649    0.5503   -1.4129 C   0  0  0  0  0  0  0  0  0  0  0  0
   -4.6876    1.2112   -0.7422 C   0  0  0  0  0  0  0  0  0  0  0  0
   -4.5797    2.6873   -1.1070 C   0  0  0  0  0  0  0  0  0  0  0  0
   -3.9232    3.8027   -0.6311 C   0  0  0  0  0  0  0  0  0  0  0  0
   -4.3102    5.1206   -1.3182 C   0  0  0  0  0  0  0  0  0  0  0  0
   -2.9216    3.9268    0.5505 C   0  0  1  0  0  0  0  0  0  0  0  0
   -3.6888    4.5389    1.7468 C   0  0  0  0  0  0  0  0  0  0  0  0
   -2.4216    2.6839    0.9388 O   0  0  0  0  0  0  0  0  0  0  0  0
   -1.7154    4.8644    0.2020 C   0  0  0  0  0  0  0  0  0  0  0  0
   -0.7295    4.4070   -0.9068 C   0  0  2  0  0  0  0  0  0  0  0  0
   -1.3823    4.1462   -2.1241 O   0  0  0  0  0  0  0  0  0  0  0  0
    0.1843    3.2383   -0.4694 C   0  0  0  0  0  0  0  0  0  0  0  0
    1.2911    2.9276   -1.4563 C   0  0  0  0  0  0  0  0  0  0  0  0
    1.3468    3.5164   -2.5274 O   0  0  0  0  0  0  0  0  0  0  0  0
    2.3406    1.8817   -1.1124 C   0  0  1  0  0  0  0  0  0  0  0  0
    3.2187    1.6591   -2.1912 O   0  0  0  0  0  0  0  0  0  0  0  0
    3.1245    2.2663    0.1784 C   0  0  2  0  0  0  0  0  0  0  0  0
    3.6606    3.5628    0.0410 O   0  0  0  0  0  0  0  0  0  0  0  0
    4.2268    1.2523    0.6245 C   0  0  1  0  0  0  0  0  0  0  0  0
    4.8970    1.7766    1.9041 C   0  0  0  0  0  0  0  0  0  0  0  0
    3.6322   -0.1798    0.7782 C   0  0  0  0  0  0  0  0  0  0  0  0
    4.5720   -1.2832    1.3186 C   0  0  1  0  0  0  0  0  0  0  0  0
    4.6215   -1.3366    2.8544 C   0  0  0  0  0  0  0  0  0  0  0  0
    4.0771   -2.5057    0.8961 O   0  0  0  0  0  0  0  0  0  0  0  0
    4.7690   -3.4425    0.1935 C   0  0  0  0  0  0  0  0  0  0  0  0
    5.9641   -3.2952   -0.0231 O   0  0  0  0  0  0  0  0  0  0  0  0
    4.0727   -4.6675   -0.2879 C   0  0  0  0  0  0  0  0  0  0  0  0
    4.8747   -5.7517   -0.9779 C   0  0  0  0  0  0  0  0  0  0  0  0
    2.7326   -4.7818   -0.1108 C   0  0  0  0  0  0  0  0  0  0  0  0
    1.9053   -5.9668   -0.5516 C   0  0  0  0  0  0  0  0  0  0  0  0
    0.8965   -5.5896   -1.6414 C   0  0  0  0  0  0  0  0  0  0  0  0
   -0.1638   -4.6115   -1.1778 C   0  0  0  0  0  0  0  0  0  0  0  0
   -1.4529   -4.9861   -1.1648 C   0  0  0  0  0  0  0  0  0  0  0  0
   -2.6335   -4.1431   -0.7608 C   0  0  1  0  0  0  0  0  0  0  0  0
   -2.4286   -3.7124    0.5765 O   0  0  0  0  0  0  0  0  0  0  0  0
   -2.5946   -2.6967   -0.3740 C   0  0  2  0  0  0  0  0  0  0  0  0
   -4.0074   -2.0679   -0.3314 C   0  0  0  0  0  0  0  0  0  0  0  0
   -4.2847   -0.9598    0.7319 C   0  0  1  0  0  0  0  0  0  0  0  0
   -3.6773   -1.3549    2.0884 C   0  0  0  0  0  0  0  0  0  0  0  0
   -3.8709    0.4934    0.3455 C   0  0  0  0  0  0  0  0  0  0  0  0
   -6.2779    1.0381   -2.1653 H   0  0  0  0  0  0  0  0  0  0  0  0
   -5.9336   -0.4787   -1.2489 H   0  0  0  0  0  0  0  0  0  0  0  0
   -5.2454    2.9180   -1.9341 H   0  0  0  0  0  0  0  0  0  0  0  0
   -5.0678    5.0120   -2.1225 H   0  0  0  0  0  0  0  0  0  0  0  0
   -3.4376    5.5980   -1.8020 H   0  0  0  0  0  0  0  0  0  0  0  0
   -4.7453    5.8286   -0.5862 H   0  0  0  0  0  0  0  0  0  0  0  0
   -4.5464    3.8890    2.0245 H   0  0  0  0  0  0  0  0  0  0  0  0
   -4.0716    5.5550    1.5216 H   0  0  0  0  0  0  0  0  0  0  0  0
   -3.0261    4.6297    2.6344 H   0  0  0  0  0  0  0  0  0  0  0  0
   -1.8450    2.8073    1.7391 H   0  0  0  0  0  0  0  0  0  0  0  0
   -1.1126    5.0358    1.1219 H   0  0  0  0  0  0  0  0  0  0  0  0
   -2.1043    5.8676   -0.0696 H   0  0  0  0  0  0  0  0  0  0  0  0
   -0.0460    5.2700   -1.0706 H   0  0  0  0  0  0  0  0  0  0  0  0
   -1.7441    3.2233   -2.0827 H   0  0  0  0  0  0  0  0  0  0  0  0
   -0.3974    2.3099   -0.3055 H   0  0  0  0  0  0  0  0  0  0  0  0
    0.6482    3.5425    0.4903 H   0  0  0  0  0  0  0  0  0  0  0  0
    1.7872    0.9356   -0.9390 H   0  0  0  0  0  0  0  0  0  0  0  0
    3.6524    2.5200   -2.4249 H   0  0  0  0  0  0  0  0  0  0  0  0
    2.3933    2.3033    1.0135 H   0  0  0  0  0  0  0  0  0  0  0  0
    4.4495    3.5070   -0.5575 H   0  0  0  0  0  0  0  0  0  0  0  0
    5.0176    1.2112   -0.1573 H   0  0  0  0  0  0  0  0  0  0  0  0
    4.1773    1.7922    2.7504 H   0  0  0  0  0  0  0  0  0  0  0  0
    5.2879    2.8043    1.7532 H   0  0  0  0  0  0  0  0  0  0  0  0
    5.7862    1.1650    2.1499 H   0  0  0  0  0  0  0  0  0  0  0  0
    3.3588   -0.4868   -0.2542 H   0  0  0  0  0  0  0  0  0  0  0  0
    2.6973   -0.1756    1.3815 H   0  0  0  0  0  0  0  0  0  0  0  0
    5.5930   -1.1164    0.9096 H   0  0  0  0  0  0  0  0  0  0  0  0
    3.6048   -1.5283    3.2602 H   0  0  0  0  0  0  0  0  0  0  0  0
    5.0087   -0.4241    3.3322 H   0  0  0  0  0  0  0  0  0  0  0  0
    5.2817   -2.1728    3.1683 H   0  0  0  0  0  0  0  0  0  0  0  0
    5.9520   -5.4981   -1.0504 H   0  0  0  0  0  0  0  0  0  0  0  0
    4.4959   -5.9024   -2.0110 H   0  0  0  0  0  0  0  0  0  0  0  0
    4.7963   -6.7018   -0.4083 H   0  0  0  0  0  0  0  0  0  0  0  0
    2.1884   -3.9766    0.3734 H   0  0  0  0  0  0  0  0  0  0  0  0
    1.3784   -6.3951    0.3283 H   0  0  0  0  0  0  0  0  0  0  0  0
    2.5409   -6.7720   -0.9699 H   0  0  0  0  0  0  0  0  0  0  0  0
    0.4205   -6.5381   -1.9767 H   0  0  0  0  0  0  0  0  0  0  0  0
    1.4314   -5.1634   -2.5169 H   0  0  0  0  0  0  0  0  0  0  0  0
    0.1265   -3.6138   -0.8683 H   0  0  0  0  0  0  0  0  0  0  0  0
   -1.7042   -5.9980   -1.4707 H   0  0  0  0  0  0  0  0  0  0  0  0
   -3.6091   -4.6742   -0.7895 H   0  0  0  0  0  0  0  0  0  0  0  0
   -1.6707   -2.1170   -0.5762 H   0  0  0  0  0  0  0  0  0  0  0  0
   -4.7312   -2.8775   -0.0864 H   0  0  0  0  0  0  0  0  0  0  0  0
   -4.2483   -1.7385   -1.3581 H   0  0  0  0  0  0  0  0  0  0  0  0
   -5.3849   -0.9168    0.8945 H   0  0  0  0  0  0  0  0  0  0  0  0
   -2.5680   -1.3739    2.0331 H   0  0  0  0  0  0  0  0  0  0  0  0
   -4.0457   -2.3563    2.3978 H   0  0  0  0  0  0  0  0  0  0  0  0
   -3.9728   -0.6265    2.8731 H   0  0  0  0  0  0  0  0  0  0  0  0
   -2.7909    0.4994    0.0871 H   0  0  0  0  0  0  0  0  0  0  0  0
   -4.0653    1.0891    1.2614 H   0  0  0  0  0  0  0  0  0  0  0  0
  1  2  2  0  0  0  0
  1 41  1  0  0  0  0
  1 42  1  0  0  0  0
  2  3  1  0  0  0  0
  3  4  2  0  0  0  0
  3 43  1  0  0  0  0
  4  5  1  0  0  0  0
  4  6  1  0  0  0  0
  5 44  1  0  0  0  0
  5 45  1  0  0  0  0
  5 46  1  0  0  0  0
  6  7  1  0  0  0  0
  6  8  1  1  0  0  0
  6  9  1  0  0  0  0
  7 47  1  0  0  0  0
  7 48  1  0  0  0  0
  7 49  1  0  0  0  0
  8 50  1  0  0  0  0
  9 10  1  0  0  0  0
  9 51  1  0  0  0  0
  9 52  1  0  0  0  0
 10 11  1  0  0  0  0
 10 12  1  0  0  0  0
 10 53  1  6  0  0  0
 11 54  1  0  0  0  0
 12 13  1  0  0  0  0
 12 55  1  0  0  0  0
 12 56  1  0  0  0  0
 13 14  2  0  0  0  0
 13 15  1  0  0  0  0
 15 16  1  0  0  0  0
 15 17  1  0  0  0  0
 15 57  1  1  0  0  0
 16 58  1  0  0  0  0
 17 18  1  0  0  0  0
 17 19  1  0  0  0  0
 17 59  1  1  0  0  0
 18 60  1  0  0  0  0
 19 20  1  0  0  0  0
 19 21  1  0  0  0  0
 19 61  1  6  0  0  0
 20 62  1  0  0  0  0
 20 63  1  0  0  0  0
 20 64  1  0  0  0  0
 21 22  1  0  0  0  0
 21 65  1  0  0  0  0
 21 66  1  0  0  0  0
 22 23  1  0  0  0  0
 22 24  1  0  0  0  0
 22 67  1  6  0  0  0
 23 68  1  0  0  0  0
 23 69  1  0  0  0  0
 23 70  1  0  0  0  0
 24 25  1  0  0  0  0
 25 26  2  0  0  0  0
 25 27  1  0  0  0  0
 27 28  1  0  0  0  0
 27 29  2  0  0  0  0
 28 71  1  0  0  0  0
 28 72  1  0  0  0  0
 28 73  1  0  0  0  0
 29 30  1  0  0  0  0
 29 74  1  0  0  0  0
 30 31  1  0  0  0  0
 30 75  1  0  0  0  0
 30 76  1  0  0  0  0
 31 32  1  0  0  0  0
 31 77  1  0  0  0  0
 31 78  1  0  0  0  0
 32 33  2  0  0  0  0
 32 79  1  0  0  0  0
 33 34  1  0  0  0  0
 33 80  1  0  0  0  0
 34 35  1  0  0  0  0
 34 81  1  6  0  0  0
 35 36  1  0  0  0  0
 36 37  1  0  0  0  0
 36 34  1  0  0  0  0
 36 82  1  6  0  0  0
 37 38  1  0  0  0  0
 37 83  1  0  0  0  0
 37 84  1  0  0  0  0
 38 39  1  0  0  0  0
 38 40  1  0  0  0  0
 38 85  1  1  0  0  0
 39 86  1  0  0  0  0
 39 87  1  0  0  0  0
 39 88  1  0  0  0  0
 40  2  1  0  0  0  0
 40 89  1  0  0  0  0
 40 90  1  0  0  0  0
M  END
>  <IDENTIFIER>
CNP0185922.7

>  <Energy>
2117.84

$$$$
