
 OpenBabel09082520492D

129128  0  0  0  0  0  0  0  0999 V2000
   -1.5000   -2.5981    0.0000 C   0  0  0  0  0  0  0  0  0  0  0  0
   -0.7500   -1.2990   -0.0000 C   0  0  0  0  0  0  0  0  0  0  0  0
    0.4488   -1.2246    0.9462 C   0  0  0  0  0  0  0  0  0  0  0  0
    1.6532   -1.8418    0.8504 C   0  0  0  0  0  0  0  0  0  0  0  0
    2.0897   -2.7612   -0.2614 C   0  0  0  0  0  0  0  0  0  0  0  0
    3.4540   -3.4038   -0.0032 C   0  0  0  0  0  0  0  0  0  0  0  0
    4.6876   -2.8269    0.0099 C   0  0  0  0  0  0  0  0  0  0  0  0
    5.0137   -1.3740   -0.2572 C   0  0  0  0  0  0  0  0  0  0  0  0
    5.7496   -0.6949    0.8860 C   0  0  0  0  0  0  0  0  0  0  0  0
    7.0276   -0.8847    1.3132 C   0  0  0  0  0  0  0  0  0  0  0  0
    8.0829   -1.8242    0.7428 C   0  0  0  0  0  0  0  0  0  0  0  0
    9.3210   -1.8265    1.6456 C   0  0  0  0  0  0  0  0  0  0  0  0
   10.6322   -1.6017    1.3471 C   0  0  0  0  0  0  0  0  0  0  0  0
   11.2500   -1.2990   -0.0000 C   0  0  0  0  0  0  0  0  0  0  0  0
   12.0000   -0.0000    0.0000 C   0  0  0  0  0  2  0  0  0  0  0  0
   12.7500    1.2990   -0.0000 C   0  0  0  0  0  0  0  0  0  0  0  0
   12.4122    2.8426   -0.1173 C   0  0  0  0  0  0  0  0  0  0  0  0
   13.6737    3.8202   -0.0153 C   0  0  0  0  0  0  0  0  0  0  0  0
   14.8011    3.3595    0.0709 O   0  0  0  0  0  0  0  0  0  0  0  0
   13.5000    5.1962    0.0000 O   0  0  0  0  0  0  0  0  0  0  0  0
   14.2500    6.4952    0.0000 C   0  0  0  0  0  0  0  0  0  0  0  0
   15.0000    7.7942    0.0000 C   0  0  2  0  0  0  0  0  0  0  0  0
   16.3927    6.8633    0.3061 C   0  0  0  0  0  0  0  0  0  0  0  0
   17.7695    7.1645    0.2052 O   0  0  0  0  0  0  0  0  0  0  0  0
   18.7377    6.1504    0.4663 C   0  0  0  0  0  0  0  0  0  0  0  0
   18.4116    5.1099    1.0195 O   0  0  0  0  0  0  0  0  0  0  0  0
   20.1962    6.2942    0.0000 C   0  0  0  0  0  0  0  0  0  0  0  0
   21.4952    5.5442    0.0000 C   0  0  0  0  0  2  0  0  0  0  0  0
   22.7942    4.7942    0.0000 C   0  0  0  0  0  0  0  0  0  0  0  0
   24.0933    4.0442    0.0000 C   0  0  0  0  0  0  0  0  0  0  0  0
   25.3923    3.2942    0.0000 C   0  0  0  0  0  2  0  0  0  0  0  0
   26.6913    2.5442    0.0000 C   0  0  0  0  0  0  0  0  0  0  0  0
   28.2979    2.1324   -0.2731 C   0  0  0  0  0  0  0  0  0  0  0  0
   28.9775    0.6757    0.2848 C   0  0  0  0  0  0  0  0  0  0  0  0
   30.5885    0.2942    0.0000 C   0  0  0  0  0  0  0  0  0  0  0  0
   31.8875   -0.4558    0.0000 C   0  0  0  0  0  0  0  0  0  0  0  0
   33.1865   -1.2058    0.0000 C   0  0  0  0  0  0  0  0  0  0  0  0
   34.4856   -1.9558    0.0000 C   0  0  0  0  0  0  0  0  0  0  0  0
   35.7846   -2.7058    0.0000 C   0  0  0  0  0  0  0  0  0  0  0  0
   15.1120    8.9434    0.8673 O   0  0  0  0  0  0  0  0  0  0  0  0
   15.2128   10.2991    0.4208 C   0  0  0  0  0  0  0  0  0  0  0  0
   14.3710   10.6995   -0.3676 O   0  0  0  0  0  0  0  0  0  0  0  0
   16.3811   11.3429    0.8207 C   0  0  0  0  0  0  0  0  0  0  0  0
   16.3073   12.9099    0.3156 C   0  0  0  0  0  0  0  0  0  0  0  0
   17.5594   13.9679    0.5137 C   0  0  0  0  0  0  0  0  0  0  0  0
   17.2764   15.5480    0.1819 C   0  0  0  0  0  0  0  0  0  0  0  0
   18.3508   16.8014    0.1563 C   0  0  0  0  0  0  0  0  0  0  0  0
   18.0000   18.1865    0.0000 C   0  0  0  0  0  0  0  0  0  0  0  0
   16.5000   18.1865    0.0000 C   0  0  0  0  0  2  0  0  0  0  0  0
   15.0000   18.1865    0.0000 C   0  0  0  0  0  0  0  0  0  0  0  0
   14.2500   19.4856    0.0000 C   0  0  0  0  0  0  0  0  0  0  0  0
   15.0000   20.7846    0.0000 C   0  0  0  0  0  2  0  0  0  0  0  0
   15.7500   22.0836    0.0000 C   0  0  0  0  0  0  0  0  0  0  0  0
   15.0000   23.3827    0.0000 C   0  0  0  0  0  0  0  0  0  0  0  0
   13.5000   23.3827    0.0000 C   0  0  0  0  0  2  0  0  0  0  0  0
   12.0000   23.3827    0.0000 C   0  0  0  0  0  2  0  0  0  0  0  0
   10.5000   23.3827    0.0000 C   0  0  0  0  0  2  0  0  0  0  0  0
    9.0000   23.3827    0.0000 C   0  0  0  0  0  2  0  0  0  0  0  0
    7.5000   23.3827    0.0000 C   0  0  0  0  0  0  0  0  0  0  0  0
   -2.3158   -2.2648   -0.6800 H   0  0  0  0  0  0  0  0  0  0  0  0
   -1.8189   -2.5571    1.0658 H   0  0  0  0  0  0  0  0  0  0  0  0
   -2.0350   -3.5248    0.0000 H   0  0  0  0  0  0  0  0  0  0  0  0
   -0.4263   -1.0296   -1.0292 H   0  0  0  0  0  0  0  0  0  0  0  0
   -1.4548   -0.5007    0.3368 H   0  0  0  0  0  0  0  0  0  0  0  0
    0.3215   -0.5659    1.8015 H   0  0  0  0  0  0  0  0  0  0  0  0
    2.3675   -1.6512    1.6478 H   0  0  0  0  0  0  0  0  0  0  0  0
    1.3433   -3.5830   -0.3080 H   0  0  0  0  0  0  0  0  0  0  0  0
    2.0883   -2.2334   -1.2383 H   0  0  0  0  0  0  0  0  0  0  0  0
    3.4308   -4.4766    0.1700 H   0  0  0  0  0  0  0  0  0  0  0  0
    5.5290   -3.4850    0.1968 H   0  0  0  0  0  0  0  0  0  0  0  0
    5.6245   -1.2834   -1.1797 H   0  0  0  0  0  0  0  0  0  0  0  0
    4.0629   -0.8270   -0.4287 H   0  0  0  0  0  0  0  0  0  0  0  0
    5.1759    0.0609    1.4163 H   0  0  0  0  0  0  0  0  0  0  0  0
    7.3288   -0.2802    2.1662 H   0  0  0  0  0  0  0  0  0  0  0  0
    7.6761   -2.8546    0.7579 H   0  0  0  0  0  0  0  0  0  0  0  0
    8.3145   -1.5497   -0.3049 H   0  0  0  0  0  0  0  0  0  0  0  0
    9.1147   -2.0626    2.6867 H   0  0  0  0  0  0  0  0  0  0  0  0
   11.3359   -1.6734    2.1723 H   0  0  0  0  0  0  0  0  0  0  0  0
   10.4675   -1.2412   -0.7805 H   0  0  0  0  0  0  0  0  0  0  0  0
   11.9528   -2.1112   -0.2783 H   0  0  0  0  0  0  0  0  0  0  0  0
   13.5324    1.1244   -0.7683 H   0  0  0  0  0  0  0  0  0  0  0  0
   13.2779    1.2437    0.9757 H   0  0  0  0  0  0  0  0  0  0  0  0
   11.8976    3.0308   -1.0827 H   0  0  0  0  0  0  0  0  0  0  0  0
   11.7120    3.0948    0.7067 H   0  0  0  0  0  0  0  0  0  0  0  0
   14.4722    6.3144   -1.0866 H   0  0  0  0  0  0  0  0  0  0  0  0
   13.3186    7.1002    0.0336 H   0  0  0  0  0  0  0  0  0  0  0  0
   15.0255    8.2201   -1.0407 H   0  0  0  0  0  0  0  0  0  0  0  0
   16.2656    6.4966    1.3568 H   0  0  0  0  0  0  0  0  0  0  0  0
   16.4022    5.9541   -0.3627 H   0  0  0  0  0  0  0  0  0  0  0  0
   20.4995    7.2546    0.4661 H   0  0  0  0  0  0  0  0  0  0  0  0
   20.0778    6.5207   -1.0800 H   0  0  0  0  0  0  0  0  0  0  0  0
   22.4251    4.2387   -0.8961 H   0  0  0  0  0  0  0  0  0  0  0  0
   22.4249    4.2384    0.8958 H   0  0  0  0  0  0  0  0  0  0  0  0
   24.4625    4.6000   -0.8958 H   0  0  0  0  0  0  0  0  0  0  0  0
   24.4623    4.5996    0.8962 H   0  0  0  0  0  0  0  0  0  0  0  0
   26.7227    2.4021    1.1004 H   0  0  0  0  0  0  0  0  0  0  0  0
   26.2628    1.6074   -0.4133 H   0  0  0  0  0  0  0  0  0  0  0  0
   28.4478    2.1511   -1.3730 H   0  0  0  0  0  0  0  0  0  0  0  0
   28.9119    2.9527    0.1547 H   0  0  0  0  0  0  0  0  0  0  0  0
   28.3697   -0.1492   -0.1429 H   0  0  0  0  0  0  0  0  0  0  0  0
   28.8324    0.6553    1.3853 H   0  0  0  0  0  0  0  0  0  0  0  0
   30.9735    1.2766    0.3740 H   0  0  0  0  0  0  0  0  0  0  0  0
   30.5346    0.4694   -1.1037 H   0  0  0  0  0  0  0  0  0  0  0  0
   31.2186   -1.3262   -0.3006 H   0  0  0  0  0  0  0  0  0  0  0  0
   31.9409   -0.3555    1.1189 H   0  0  0  0  0  0  0  0  0  0  0  0
   33.0550   -1.4019   -1.1070 H   0  0  0  0  0  0  0  0  0  0  0  0
   32.7798   -2.1145    0.5575 H   0  0  0  0  0  0  0  0  0  0  0  0
   34.6576   -1.7062    1.0863 H   0  0  0  0  0  0  0  0  0  0  0  0
   34.9319   -1.1033   -0.6008 H   0  0  0  0  0  0  0  0  0  0  0  0
   35.7523   -3.0079   -1.0727 H   0  0  0  0  0  0  0  0  0  0  0  0
   36.5422   -1.8994    0.2222 H   0  0  0  0  0  0  0  0  0  0  0  0
   36.7112   -3.2408    0.0000 H   0  0  0  0  0  0  0  0  0  0  0  0
   17.3262   10.9085    0.4337 H   0  0  0  0  0  0  0  0  0  0  0  0
   16.4523   11.3703    1.9280 H   0  0  0  0  0  0  0  0  0  0  0  0
   15.4215   13.3469    0.8228 H   0  0  0  0  0  0  0  0  0  0  0  0
   16.0909   12.9001   -0.7733 H   0  0  0  0  0  0  0  0  0  0  0  0
   18.3954   13.6121   -0.1241 H   0  0  0  0  0  0  0  0  0  0  0  0
   17.8943   13.9178    1.5711 H   0  0  0  0  0  0  0  0  0  0  0  0
   16.5011   15.8113    0.9319 H   0  0  0  0  0  0  0  0  0  0  0  0
   16.7947   15.5608   -0.8189 H   0  0  0  0  0  0  0  0  0  0  0  0
   19.4015   16.5539    0.2609 H   0  0  0  0  0  0  0  0  0  0  0  0
   18.6764   19.0339   -0.0187 H   0  0  0  0  0  0  0  0  0  0  0  0
   14.4589   17.2466   -0.0005 H   0  0  0  0  0  0  0  0  0  0  0  0
   13.1655   19.4881   -0.0002 H   0  0  0  0  0  0  0  0  0  0  0  0
   16.8345   22.0810    0.0000 H   0  0  0  0  0  0  0  0  0  0  0  0
   15.5407   24.3228    0.0000 H   0  0  0  0  0  0  0  0  0  0  0  0
    7.4198   24.2874    0.6370 H   0  0  0  0  0  0  0  0  0  0  0  0
    7.4198   22.4758    0.6339 H   0  0  0  0  0  0  0  0  0  0  0  0
    6.4300   23.3827    0.0000 H   0  0  0  0  0  0  0  0  0  0  0  0
  1  2  1  0  0  0  0
  1 60  1  0  0  0  0
  1 61  1  0  0  0  0
  1 62  1  0  0  0  0
  2  3  1  0  0  0  0
  2 63  1  0  0  0  0
  2 64  1  0  0  0  0
  3  4  2  0  0  0  0
  3 65  1  0  0  0  0
  4  5  1  0  0  0  0
  4 66  1  0  0  0  0
  5  6  1  0  0  0  0
  5 67  1  0  0  0  0
  5 68  1  0  0  0  0
  6  7  2  0  0  0  0
  6 69  1  0  0  0  0
  7  8  1  0  0  0  0
  7 70  1  0  0  0  0
  8  9  1  0  0  0  0
  8 71  1  0  0  0  0
  8 72  1  0  0  0  0
  9 10  2  0  0  0  0
  9 73  1  0  0  0  0
 10 11  1  0  0  0  0
 10 74  1  0  0  0  0
 11 12  1  0  0  0  0
 11 75  1  0  0  0  0
 11 76  1  0  0  0  0
 12 13  2  0  0  0  0
 12 77  1  0  0  0  0
 13 14  1  0  0  0  0
 13 78  1  0  0  0  0
 14 15  1  0  0  0  0
 14 79  1  0  0  0  0
 14 80  1  0  0  0  0
 15 16  1  0  0  0  0
 16 17  1  0  0  0  0
 16 81  1  0  0  0  0
 16 82  1  0  0  0  0
 17 18  1  0  0  0  0
 17 83  1  0  0  0  0
 17 84  1  0  0  0  0
 18 19  2  0  0  0  0
 18 20  1  0  0  0  0
 20 21  1  0  0  0  0
 21 85  1  0  0  0  0
 21 86  1  0  0  0  0
 22 21  1  0  0  0  0
 22 23  1  0  0  0  0
 22 40  1  0  0  0  0
 22 87  1  6  0  0  0
 23 24  1  0  0  0  0
 23 88  1  0  0  0  0
 23 89  1  0  0  0  0
 24 25  1  0  0  0  0
 25 26  2  0  0  0  0
 25 27  1  0  0  0  0
 27 28  1  0  0  0  0
 27 90  1  0  0  0  0
 27 91  1  0  0  0  0
 28 29  1  0  0  0  0
 29 30  1  0  0  0  0
 29 92  1  0  0  0  0
 29 93  1  0  0  0  0
 30 31  1  0  0  0  0
 30 94  1  0  0  0  0
 30 95  1  0  0  0  0
 31 32  1  0  0  0  0
 32 33  1  0  0  0  0
 32 96  1  0  0  0  0
 32 97  1  0  0  0  0
 33 34  1  0  0  0  0
 33 98  1  0  0  0  0
 33 99  1  0  0  0  0
 34 35  1  0  0  0  0
 34100  1  0  0  0  0
 34101  1  0  0  0  0
 35 36  1  0  0  0  0
 35102  1  0  0  0  0
 35103  1  0  0  0  0
 36 37  1  0  0  0  0
 36104  1  0  0  0  0
 36105  1  0  0  0  0
 37 38  1  0  0  0  0
 37106  1  0  0  0  0
 37107  1  0  0  0  0
 38 39  1  0  0  0  0
 38108  1  0  0  0  0
 38109  1  0  0  0  0
 39110  1  0  0  0  0
 39111  1  0  0  0  0
 39112  1  0  0  0  0
 40 41  1  0  0  0  0
 41 42  2  0  0  0  0
 41 43  1  0  0  0  0
 43 44  1  0  0  0  0
 43113  1  0  0  0  0
 43114  1  0  0  0  0
 44 45  1  0  0  0  0
 44115  1  0  0  0  0
 44116  1  0  0  0  0
 45 46  1  0  0  0  0
 45117  1  0  0  0  0
 45118  1  0  0  0  0
 46 47  1  0  0  0  0
 46119  1  0  0  0  0
 46120  1  0  0  0  0
 47 48  2  0  0  0  0
 47121  1  0  0  0  0
 48 49  1  0  0  0  0
 48122  1  0  0  0  0
 49 50  1  0  0  0  0
 50 51  2  0  0  0  0
 50123  1  0  0  0  0
 51 52  1  0  0  0  0
 51124  1  0  0  0  0
 52 53  1  0  0  0  0
 53 54  2  0  0  0  0
 53125  1  0  0  0  0
 54 55  1  0  0  0  0
 54126  1  0  0  0  0
 55 56  1  0  0  0  0
 56 57  1  0  0  0  0
 57 58  1  0  0  0  0
 58 59  1  0  0  0  0
 59127  1  0  0  0  0
 59128  1  0  0  0  0
 59129  1  0  0  0  0
M  END
>  <IDENTIFIER>
CNP0598471.1

>  <Energy>
7710.25

$$$$
