
 OpenBabel09062522392D

144143  0  0  0  0  0  0  0  0999 V2000
   19.4856   11.2500    0.0000 C   0  0  0  0  0  0  0  0  0  0  0  0
   18.1865   10.5000    0.0000 C   0  0  0  0  0  0  0  0  0  0  0  0
   16.8875    9.7500    0.0000 C   0  0  0  0  0  2  0  0  0  0  0  0
   15.5885    9.0000    0.0000 C   0  0  0  0  0  0  0  0  0  0  0  0
   13.9457    8.6511   -0.0688 C   0  0  0  0  0  0  0  0  0  0  0  0
   13.3374    7.0707    0.0974 C   0  0  0  0  0  0  0  0  0  0  0  0
   11.6913    6.7500    0.0000 C   0  0  0  0  0  0  0  0  0  0  0  0
   10.3923    6.0000    0.0000 C   0  0  0  0  0  0  0  0  0  0  0  0
    9.0933    5.2500    0.0000 C   0  0  0  0  0  0  0  0  0  0  0  0
    7.7942    4.5000    0.0000 C   0  0  0  0  0  0  0  0  0  0  0  0
    6.4952    3.7500    0.0000 C   0  0  0  0  0  0  0  0  0  0  0  0
    5.1962    3.0000    0.0000 C   0  0  0  0  0  0  0  0  0  0  0  0
    3.5442    2.9464   -0.2737 C   0  0  0  0  0  0  0  0  0  0  0  0
    2.7136    1.4910   -0.0359 C   0  0  0  0  0  0  0  0  0  0  0  0
    1.0716    1.2234   -0.3139 C   0  0  0  0  0  0  0  0  0  0  0  0
    0.3439   -0.2334   -0.0348 C   0  0  0  0  0  0  0  0  0  0  0  0
    1.0780   -1.1000    0.4108 O   0  0  0  0  0  0  0  0  0  0  0  0
   -1.0486   -0.5937   -0.2647 O   0  0  0  0  0  0  0  0  0  0  0  0
   -1.6893   -1.8889    0.0314 C   0  0  0  0  0  0  0  0  0  0  0  0
   -3.2988   -2.3039   -0.3108 C   0  0  1  0  0  0  0  0  0  0  0  0
   -3.6869   -3.8956    0.0820 C   0  0  0  0  0  0  0  0  0  0  0  0
   -4.9822   -4.5727   -0.1512 O   0  0  0  0  0  0  0  0  0  0  0  0
   -5.1962   -6.0000    0.0000 C   0  0  0  0  0  0  0  0  0  0  0  0
   -4.1456   -6.6354    0.1369 O   0  0  0  0  0  0  0  0  0  0  0  0
   -6.4952   -6.7500    0.0000 C   0  0  0  0  0  0  0  0  0  0  0  0
   -7.7942   -7.5000    0.0000 C   0  0  0  0  0  0  0  0  0  0  0  0
   -9.0933   -8.2500    0.0000 C   0  0  0  0  0  0  0  0  0  0  0  0
  -10.3923   -9.0000    0.0000 C   0  0  0  0  0  0  0  0  0  0  0  0
  -11.6913   -9.7500    0.0000 C   0  0  0  0  0  0  0  0  0  0  0  0
  -13.2919  -10.1568    0.3084 C   0  0  0  0  0  0  0  0  0  0  0  0
  -14.0069  -11.5521   -0.3568 C   0  0  0  0  0  0  0  0  0  0  0  0
  -15.5885  -12.0000    0.0000 C   0  0  0  0  0  0  0  0  0  0  0  0
  -16.8875  -12.7500    0.0000 C   0  0  0  0  0  0  0  0  0  0  0  0
  -18.1865  -13.5000    0.0000 C   0  0  0  0  0  0  0  0  0  0  0  0
  -16.1375  -14.0490    0.0000 C   0  0  0  0  0  0  0  0  0  0  0  0
   -4.1678   -1.3915    0.3145 O   0  0  0  0  0  0  0  0  0  0  0  0
   -5.1945   -0.6733   -0.2645 C   0  0  0  0  0  0  0  0  0  0  0  0
   -5.6803   -1.0362   -1.3251 O   0  0  0  0  0  0  0  0  0  0  0  0
   -5.7033    0.6071    0.4152 C   0  0  0  0  0  0  0  0  0  0  0  0
   -6.8586    1.4576   -0.2649 C   0  0  0  0  0  0  0  0  0  0  0  0
   -7.0254    2.8116    0.5097 C   0  0  0  0  0  0  0  0  0  0  0  0
   -7.7470    4.0943   -0.0618 C   0  0  0  0  0  0  0  0  0  0  0  0
   -9.2912    4.5053    0.0656 C   0  0  0  0  0  0  0  0  0  0  0  0
   -9.3481    6.0933    0.0000 C   0  0  0  0  0  0  0  0  0  0  0  0
  -10.0981    7.3923    0.0000 C   0  0  0  0  0  0  0  0  0  0  0  0
  -10.8481    8.6913    0.0000 C   0  0  0  0  0  0  0  0  0  0  0  0
  -11.2591   10.2799   -0.3749 C   0  0  0  0  0  0  0  0  0  0  0  0
  -12.7841   10.9353    0.0246 C   0  0  0  0  0  0  0  0  0  0  0  0
  -13.0981   12.5885    0.0000 C   0  0  0  0  0  0  0  0  0  0  0  0
  -13.8481   13.8875    0.0000 C   0  0  0  0  0  0  0  0  0  0  0  0
  -14.5981   15.1865    0.0000 C   0  0  0  0  0  0  0  0  0  0  0  0
  -15.3481   16.4856    0.0000 C   0  0  0  0  0  0  0  0  0  0  0  0
  -16.0981   17.7846    0.0000 C   0  0  0  0  0  0  0  0  0  0  0  0
  -14.0490   17.2356    0.0000 C   0  0  0  0  0  0  0  0  0  0  0  0
   19.8859   10.8175   -0.9468 H   0  0  0  0  0  0  0  0  0  0  0  0
   19.1132   12.3039   -0.1160 H   0  0  0  0  0  0  0  0  0  0  0  0
   20.4123   11.7850    0.0000 H   0  0  0  0  0  0  0  0  0  0  0  0
   17.7916   10.9855   -0.9304 H   0  0  0  0  0  0  0  0  0  0  0  0
   17.8512   11.0000    0.9377 H   0  0  0  0  0  0  0  0  0  0  0  0
   15.7730    8.4864    0.9666 H   0  0  0  0  0  0  0  0  0  0  0  0
   15.8910    8.2787   -0.7877 H   0  0  0  0  0  0  0  0  0  0  0  0
   13.5815    9.0326   -1.0456 H   0  0  0  0  0  0  0  0  0  0  0  0
   13.4588    9.2596    0.7222 H   0  0  0  0  0  0  0  0  0  0  0  0
   13.8309    6.4510   -0.6806 H   0  0  0  0  0  0  0  0  0  0  0  0
   13.6828    6.6967    1.0840 H   0  0  0  0  0  0  0  0  0  0  0  0
   11.4072    7.5486    0.7307 H   0  0  0  0  0  0  0  0  0  0  0  0
   11.5565    7.2617   -0.9867 H   0  0  0  0  0  0  0  0  0  0  0  0
   10.9661    5.3005   -0.6918 H   0  0  0  0  0  0  0  0  0  0  0  0
   10.5593    5.7189    1.0757 H   0  0  0  0  0  0  0  0  0  0  0  0
    9.0053    5.4449   -1.1134 H   0  0  0  0  0  0  0  0  0  0  0  0
    9.5739    4.2202    0.1154 H   0  0  0  0  0  0  0  0  0  0  0  0
    7.3086    5.5246   -0.1412 H   0  0  0  0  0  0  0  0  0  0  0  0
    7.8740    4.3234    1.1150 H   0  0  0  0  0  0  0  0  0  0  0  0
    5.9026    4.4741    0.6473 H   0  0  0  0  0  0  0  0  0  0  0  0
    6.3640    3.9622   -1.0939 H   0  0  0  0  0  0  0  0  0  0  0  0
    5.2121    2.5525    1.0256 H   0  0  0  0  0  0  0  0  0  0  0  0
    5.4773    2.1294   -0.6416 H   0  0  0  0  0  0  0  0  0  0  0  0
    3.3796    3.2490   -1.3291 H   0  0  0  0  0  0  0  0  0  0  0  0
    3.0690    3.7128    0.3735 H   0  0  0  0  0  0  0  0  0  0  0  0
    3.2424    0.7393   -0.6580 H   0  0  0  0  0  0  0  0  0  0  0  0
    2.8907    1.2153    1.0251 H   0  0  0  0  0  0  0  0  0  0  0  0
    0.5212    1.9691    0.2949 H   0  0  0  0  0  0  0  0  0  0  0  0
    0.8954    1.4646   -1.3813 H   0  0  0  0  0  0  0  0  0  0  0  0
   -1.5641   -2.0659    1.1208 H   0  0  0  0  0  0  0  0  0  0  0  0
   -1.0795   -2.6663   -0.4804 H   0  0  0  0  0  0  0  0  0  0  0  0
   -3.4207   -2.2246   -1.4127 H   0  0  0  0  0  0  0  0  0  0  0  0
   -2.9208   -4.4878   -0.4631 H   0  0  0  0  0  0  0  0  0  0  0  0
   -3.4569   -4.0111    1.1619 H   0  0  0  0  0  0  0  0  0  0  0  0
   -6.8169   -6.1169    0.8627 H   0  0  0  0  0  0  0  0  0  0  0  0
   -5.9191   -7.6793    0.3148 H   0  0  0  0  0  0  0  0  0  0  0  0
   -7.3989   -8.2046   -0.8030 H   0  0  0  0  0  0  0  0  0  0  0  0
   -7.6584   -7.9732    1.0399 H   0  0  0  0  0  0  0  0  0  0  0  0
   -9.4849   -7.3838    0.6402 H   0  0  0  0  0  0  0  0  0  0  0  0
   -9.3006   -7.9526   -1.0743 H   0  0  0  0  0  0  0  0  0  0  0  0
  -11.0812   -8.1146   -0.2017 H   0  0  0  0  0  0  0  0  0  0  0  0
  -10.2921   -9.1825    1.1054 H   0  0  0  0  0  0  0  0  0  0  0  0
  -11.7845   -9.8474   -1.1109 H   0  0  0  0  0  0  0  0  0  0  0  0
  -11.2941  -10.7566    0.2868 H   0  0  0  0  0  0  0  0  0  0  0  0
  -13.3951  -10.2319    1.4109 H   0  0  0  0  0  0  0  0  0  0  0  0
  -13.9121   -9.2967   -0.0219 H   0  0  0  0  0  0  0  0  0  0  0  0
  -13.3667  -12.4099   -0.0600 H   0  0  0  0  0  0  0  0  0  0  0  0
  -13.9347  -11.4558   -1.4600 H   0  0  0  0  0  0  0  0  0  0  0  0
  -16.0069  -10.9818   -0.1993 H   0  0  0  0  0  0  0  0  0  0  0  0
  -15.4462  -11.9531    1.1086 H   0  0  0  0  0  0  0  0  0  0  0  0
  -17.0485  -12.5039   -1.0872 H   0  0  0  0  0  0  0  0  0  0  0  0
  -18.8546  -12.6123   -0.1309 H   0  0  0  0  0  0  0  0  0  0  0  0
  -18.2272  -13.7047    1.1011 H   0  0  0  0  0  0  0  0  0  0  0  0
  -19.1131  -14.0350    0.0000 H   0  0  0  0  0  0  0  0  0  0  0  0
  -15.7659  -14.1127    1.0591 H   0  0  0  0  0  0  0  0  0  0  0  0
  -15.5286  -14.0597   -0.9539 H   0  0  0  0  0  0  0  0  0  0  0  0
  -15.6025  -14.9756    0.0000 H   0  0  0  0  0  0  0  0  0  0  0  0
   -4.8016    1.2545    0.4731 H   0  0  0  0  0  0  0  0  0  0  0  0
   -6.0135    0.3593    1.4515 H   0  0  0  0  0  0  0  0  0  0  0  0
   -6.5519    1.6827   -1.3087 H   0  0  0  0  0  0  0  0  0  0  0  0
   -7.8172    0.8961   -0.2856 H   0  0  0  0  0  0  0  0  0  0  0  0
   -7.3437    2.6330    1.5576 H   0  0  0  0  0  0  0  0  0  0  0  0
   -5.9679    3.1633    0.5618 H   0  0  0  0  0  0  0  0  0  0  0  0
   -7.4003    4.2779   -1.1029 H   0  0  0  0  0  0  0  0  0  0  0  0
   -7.2325    4.8630    0.5558 H   0  0  0  0  0  0  0  0  0  0  0  0
   -9.6882    4.1991    1.0570 H   0  0  0  0  0  0  0  0  0  0  0  0
   -9.8846    4.0155   -0.7345 H   0  0  0  0  0  0  0  0  0  0  0  0
   -8.6558    6.2785   -0.8622 H   0  0  0  0  0  0  0  0  0  0  0  0
   -8.7291    6.3250    0.9007 H   0  0  0  0  0  0  0  0  0  0  0  0
  -10.7699    6.9077    0.7648 H   0  0  0  0  0  0  0  0  0  0  0  0
  -10.4708    7.1739   -1.0363 H   0  0  0  0  0  0  0  0  0  0  0  0
  -11.9001    8.3351   -0.1893 H   0  0  0  0  0  0  0  0  0  0  0  0
  -10.7873    8.9110    1.0956 H   0  0  0  0  0  0  0  0  0  0  0  0
  -10.4781   10.9179    0.0932 H   0  0  0  0  0  0  0  0  0  0  0  0
  -11.1574   10.4114   -1.4723 H   0  0  0  0  0  0  0  0  0  0  0  0
  -13.0469   10.5935    1.0480 H   0  0  0  0  0  0  0  0  0  0  0  0
  -13.5016   10.4472   -0.6681 H   0  0  0  0  0  0  0  0  0  0  0  0
  -12.4376   12.7795   -0.8846 H   0  0  0  0  0  0  0  0  0  0  0  0
  -12.4151   12.8298    0.8518 H   0  0  0  0  0  0  0  0  0  0  0  0
  -14.2418   13.6594   -1.0306 H   0  0  0  0  0  0  0  0  0  0  0  0
  -14.4667   13.3276    0.7781 H   0  0  0  0  0  0  0  0  0  0  0  0
  -14.4016   15.2612    1.1138 H   0  0  0  0  0  0  0  0  0  0  0  0
  -15.6285   14.6845   -0.0085 H   0  0  0  0  0  0  0  0  0  0  0  0
  -15.6194   16.2957   -1.0902 H   0  0  0  0  0  0  0  0  0  0  0  0
  -15.9406   18.2215   -1.0352 H   0  0  0  0  0  0  0  0  0  0  0  0
  -17.1110   17.3269    0.0800 H   0  0  0  0  0  0  0  0  0  0  0  0
  -16.6331   18.7112    0.0000 H   0  0  0  0  0  0  0  0  0  0  0  0
  -13.4972   16.9288   -0.9391 H   0  0  0  0  0  0  0  0  0  0  0  0
  -13.7368   17.2087    1.0775 H   0  0  0  0  0  0  0  0  0  0  0  0
  -13.1223   17.7706    0.0000 H   0  0  0  0  0  0  0  0  0  0  0  0
  1  2  1  0  0  0  0
  1 55  1  0  0  0  0
  1 56  1  0  0  0  0
  1 57  1  0  0  0  0
  2  3  1  0  0  0  0
  2 58  1  0  0  0  0
  2 59  1  0  0  0  0
  3  4  1  0  0  0  0
  4  5  1  0  0  0  0
  4 60  1  0  0  0  0
  4 61  1  0  0  0  0
  5  6  1  0  0  0  0
  5 62  1  0  0  0  0
  5 63  1  0  0  0  0
  6  7  1  0  0  0  0
  6 64  1  0  0  0  0
  6 65  1  0  0  0  0
  7  8  1  0  0  0  0
  7 66  1  0  0  0  0
  7 67  1  0  0  0  0
  8  9  1  0  0  0  0
  8 68  1  0  0  0  0
  8 69  1  0  0  0  0
  9 10  1  0  0  0  0
  9 70  1  0  0  0  0
  9 71  1  0  0  0  0
 10 11  1  0  0  0  0
 10 72  1  0  0  0  0
 10 73  1  0  0  0  0
 11 12  1  0  0  0  0
 11 74  1  0  0  0  0
 11 75  1  0  0  0  0
 12 13  1  0  0  0  0
 12 76  1  0  0  0  0
 12 77  1  0  0  0  0
 13 14  1  0  0  0  0
 13 78  1  0  0  0  0
 13 79  1  0  0  0  0
 14 15  1  0  0  0  0
 14 80  1  0  0  0  0
 14 81  1  0  0  0  0
 15 16  1  0  0  0  0
 15 82  1  0  0  0  0
 15 83  1  0  0  0  0
 16 17  2  0  0  0  0
 16 18  1  0  0  0  0
 18 19  1  0  0  0  0
 19 84  1  0  0  0  0
 19 85  1  0  0  0  0
 20 19  1  0  0  0  0
 20 21  1  0  0  0  0
 20 36  1  0  0  0  0
 20 86  1  6  0  0  0
 21 22  1  0  0  0  0
 21 87  1  0  0  0  0
 21 88  1  0  0  0  0
 22 23  1  0  0  0  0
 23 24  2  0  0  0  0
 23 25  1  0  0  0  0
 25 26  1  0  0  0  0
 25 89  1  0  0  0  0
 25 90  1  0  0  0  0
 26 27  1  0  0  0  0
 26 91  1  0  0  0  0
 26 92  1  0  0  0  0
 27 28  1  0  0  0  0
 27 93  1  0  0  0  0
 27 94  1  0  0  0  0
 28 29  1  0  0  0  0
 28 95  1  0  0  0  0
 28 96  1  0  0  0  0
 29 30  1  0  0  0  0
 29 97  1  0  0  0  0
 29 98  1  0  0  0  0
 30 31  1  0  0  0  0
 30 99  1  0  0  0  0
 30100  1  0  0  0  0
 31 32  1  0  0  0  0
 31101  1  0  0  0  0
 31102  1  0  0  0  0
 32 33  1  0  0  0  0
 32103  1  0  0  0  0
 32104  1  0  0  0  0
 33 34  1  0  0  0  0
 33 35  1  0  0  0  0
 33105  1  0  0  0  0
 34106  1  0  0  0  0
 34107  1  0  0  0  0
 34108  1  0  0  0  0
 35109  1  0  0  0  0
 35110  1  0  0  0  0
 35111  1  0  0  0  0
 36 37  1  0  0  0  0
 37 38  2  0  0  0  0
 37 39  1  0  0  0  0
 39 40  1  0  0  0  0
 39112  1  0  0  0  0
 39113  1  0  0  0  0
 40 41  1  0  0  0  0
 40114  1  0  0  0  0
 40115  1  0  0  0  0
 41 42  1  0  0  0  0
 41116  1  0  0  0  0
 41117  1  0  0  0  0
 42 43  1  0  0  0  0
 42118  1  0  0  0  0
 42119  1  0  0  0  0
 43 44  1  0  0  0  0
 43120  1  0  0  0  0
 43121  1  0  0  0  0
 44 45  1  0  0  0  0
 44122  1  0  0  0  0
 44123  1  0  0  0  0
 45 46  1  0  0  0  0
 45124  1  0  0  0  0
 45125  1  0  0  0  0
 46 47  1  0  0  0  0
 46126  1  0  0  0  0
 46127  1  0  0  0  0
 47 48  1  0  0  0  0
 47128  1  0  0  0  0
 47129  1  0  0  0  0
 48 49  1  0  0  0  0
 48130  1  0  0  0  0
 48131  1  0  0  0  0
 49 50  1  0  0  0  0
 49132  1  0  0  0  0
 49133  1  0  0  0  0
 50 51  1  0  0  0  0
 50134  1  0  0  0  0
 50135  1  0  0  0  0
 51 52  1  0  0  0  0
 51136  1  0  0  0  0
 51137  1  0  0  0  0
 52 53  1  0  0  0  0
 52 54  1  0  0  0  0
 52138  1  0  0  0  0
 53139  1  0  0  0  0
 53140  1  0  0  0  0
 53141  1  0  0  0  0
 54142  1  0  0  0  0
 54143  1  0  0  0  0
 54144  1  0  0  0  0
M  END
>  <IDENTIFIER>
CNP0522021.2

>  <Energy>
11245.8

$$$$
