
 OpenBabel09122500093D

 38 40  0  0  0  0  0  0  0  0999 V2000
    5.4928   -0.9313   -0.8549 C   0  0  0  0  0  0  0  0  0  0  0  0
    4.6521   -0.7450    0.2279 O   0  0  0  0  0  0  0  0  0  0  0  0
    3.2959   -0.7785    0.1690 C   0  0  0  0  0  0  0  0  0  0  0  0
    2.5808   -1.9346   -0.2334 C   0  0  0  0  0  0  0  0  0  0  0  0
    3.1868   -3.1033   -0.5314 O   0  0  0  0  0  0  0  0  0  0  0  0
    1.1869   -1.8996   -0.2919 C   0  0  0  0  0  0  0  0  0  0  0  0
    0.4823   -0.7538    0.0715 C   0  0  0  0  0  0  0  0  0  0  0  0
   -0.8420   -0.7695    0.0093 O   0  0  0  0  0  0  0  0  0  0  0  0
   -1.6261    0.2558    0.3398 C   0  0  0  0  0  0  0  0  0  0  0  0
   -3.0967    0.0349    0.1324 C   0  0  0  0  0  0  0  0  0  0  0  0
   -4.0386    1.0729   -0.0501 C   0  0  0  0  0  0  0  0  0  0  0  0
   -5.3923    0.7851   -0.2557 C   0  0  0  0  0  0  0  0  0  0  0  0
   -5.8361   -0.5413   -0.2987 C   0  0  0  0  0  0  0  0  0  0  0  0
   -7.1380   -0.8302   -0.4971 O   0  0  0  0  0  0  0  0  0  0  0  0
   -4.9165   -1.5782   -0.1463 C   0  0  0  0  0  0  0  0  0  0  0  0
   -3.5645   -1.2959    0.0609 C   0  0  0  0  0  0  0  0  0  0  0  0
   -1.0120    1.4436    0.8343 C   0  0  0  0  0  0  0  0  0  0  0  0
   -1.6958    2.5109    1.3035 O   0  0  0  0  0  0  0  0  0  0  0  0
    0.3890    1.5031    0.8959 C   0  0  0  0  0  0  0  0  0  0  0  0
    0.9182    2.5212    1.3131 O   0  0  0  0  0  0  0  0  0  0  0  0
    1.1659    0.3934    0.5083 C   0  0  0  0  0  0  0  0  0  0  0  0
    2.5829    0.3805    0.5502 C   0  0  0  0  0  0  0  0  0  0  0  0
    3.2605    1.4787    0.9598 O   0  0  0  0  0  0  0  0  0  0  0  0
    3.8595    2.3523    0.0774 C   0  0  0  0  0  0  0  0  0  0  0  0
    6.5441   -0.8463   -0.5115 H   0  0  0  0  0  0  0  0  0  0  0  0
    5.3066   -0.1469   -1.6171 H   0  0  0  0  0  0  0  0  0  0  0  0
    5.3682   -1.9142   -1.3396 H   0  0  0  0  0  0  0  0  0  0  0  0
    4.1180   -3.2867   -0.3630 H   0  0  0  0  0  0  0  0  0  0  0  0
    0.6423   -2.7830   -0.6039 H   0  0  0  0  0  0  0  0  0  0  0  0
   -3.7597    2.1111   -0.0766 H   0  0  0  0  0  0  0  0  0  0  0  0
   -6.0953    1.5973   -0.3923 H   0  0  0  0  0  0  0  0  0  0  0  0
   -7.8069   -0.1396   -0.6085 H   0  0  0  0  0  0  0  0  0  0  0  0
   -5.2484   -2.6081   -0.1892 H   0  0  0  0  0  0  0  0  0  0  0  0
   -2.8839   -2.1306    0.1741 H   0  0  0  0  0  0  0  0  0  0  0  0
   -2.6173    2.4944    1.5787 H   0  0  0  0  0  0  0  0  0  0  0  0
    4.3478    3.1681    0.6482 H   0  0  0  0  0  0  0  0  0  0  0  0
    3.0927    2.7971   -0.5931 H   0  0  0  0  0  0  0  0  0  0  0  0
    4.6267    1.8372   -0.5327 H   0  0  0  0  0  0  0  0  0  0  0  0
  1  2  1  0  0  0  0
  1 25  1  0  0  0  0
  1 26  1  0  0  0  0
  1 27  1  0  0  0  0
  2  3  1  0  0  0  0
  3  4  2  0  0  0  0
  4  5  1  0  0  0  0
  4  6  1  0  0  0  0
  5 28  1  0  0  0  0
  6  7  2  0  0  0  0
  6 29  1  0  0  0  0
  7  8  1  0  0  0  0
  8  9  1  0  0  0  0
  9 10  1  0  0  0  0
  9 17  2  0  0  0  0
 10 11  2  0  0  0  0
 11 12  1  0  0  0  0
 11 30  1  0  0  0  0
 12 13  2  0  0  0  0
 12 31  1  0  0  0  0
 13 14  1  0  0  0  0
 13 15  1  0  0  0  0
 14 32  1  0  0  0  0
 15 16  2  0  0  0  0
 15 33  1  0  0  0  0
 16 10  1  0  0  0  0
 16 34  1  0  0  0  0
 17 18  1  0  0  0  0
 17 19  1  0  0  0  0
 18 35  1  0  0  0  0
 19 20  2  0  0  0  0
 19 21  1  0  0  0  0
 21 22  2  0  0  0  0
 21  7  1  0  0  0  0
 22 23  1  0  0  0  0
 22  3  1  0  0  0  0
 23 24  1  0  0  0  0
 24 36  1  0  0  0  0
 24 37  1  0  0  0  0
 24 38  1  0  0  0  0
M  END
>  <IDENTIFIER>
CNP0315657.0

>  <Energy>
426.27

$$$$
