
 OpenBabel09092508183D

 85 90  0  0  0  0  0  0  0  0999 V2000
   -5.9848   -0.2188   -4.3835 C   0  0  0  0  0  0  0  0  0  0  0  0
   -5.6274   -0.3018   -2.9839 N   0  0  0  0  0  0  0  0  0  0  0  0
   -4.7858    0.6521   -2.3287 C   0  0  0  0  0  0  0  0  0  0  0  0
   -4.2743    1.6454   -2.9738 N   0  0  0  0  0  0  0  0  0  0  0  0
   -4.5218    0.5011   -0.9316 N   0  0  0  0  0  0  0  0  0  0  0  0
   -3.6740    1.4295   -0.1932 C   0  0  2  0  0  0  0  0  0  0  0  0
   -2.3073    1.4250   -0.7092 C   0  0  0  0  0  0  0  0  0  0  0  0
   -1.1782    1.2559   -1.0755 C   0  0  0  0  0  0  0  0  0  0  0  0
    0.2596    0.9200   -1.1167 C   0  0  1  0  0  0  0  0  0  0  0  0
    0.9673    2.2862   -1.3362 C   0  0  0  0  0  0  0  0  0  0  0  0
    1.1014    3.0312    0.0089 C   0  0  2  0  0  0  0  0  0  0  0  0
    1.6253    4.4680   -0.2089 C   0  0  0  0  0  0  0  0  0  0  0  0
    1.7628    5.2597    1.1012 C   0  0  0  0  0  0  0  0  0  0  0  0
    2.1984    6.5645    0.8327 O   0  0  0  0  0  0  0  0  0  0  0  0
    2.0943    2.2033    0.7778 C   0  0  0  0  0  0  0  0  0  0  0  0
    1.9862    0.8552    0.8468 C   0  0  0  0  0  0  0  0  0  0  0  0
    3.2527    0.1472    1.3612 C   0  0  0  0  0  0  0  0  0  0  0  0
    3.9825   -0.5081    0.2239 C   0  0  0  0  0  0  0  0  0  0  0  0
    4.4061    0.1521   -0.9281 C   0  0  0  0  0  0  0  0  0  0  0  0
    4.9748   -0.8200   -1.7162 C   0  0  0  0  0  0  0  0  0  0  0  0
    5.5426   -0.7388   -2.9855 C   0  0  0  0  0  0  0  0  0  0  0  0
    6.0386   -1.9242   -3.5574 C   0  0  0  0  0  0  0  0  0  0  0  0
    5.9573   -3.1468   -2.8531 C   0  0  0  0  0  0  0  0  0  0  0  0
    5.3790   -3.1950   -1.5698 C   0  0  0  0  0  0  0  0  0  0  0  0
    4.8940   -2.0042   -1.0299 C   0  0  0  0  0  0  0  0  0  0  0  0
    4.2963   -1.8249    0.1621 N   0  0  0  0  0  0  0  0  0  0  0  0
    0.7044    0.1534    0.2501 C   0  0  2  0  0  0  0  0  0  0  0  0
    0.9545   -1.3536   -0.0658 C   0  0  0  0  0  0  0  0  0  0  0  0
    1.0261   -2.3229    1.1579 C   0  0  0  0  0  0  0  0  0  0  0  0
   -0.3038   -3.0439    1.5382 C   0  0  1  0  0  0  0  0  0  0  0  0
   -0.7527   -3.9589    0.3615 C   0  0  0  0  0  0  0  0  0  0  0  0
   -0.0715   -3.8802    2.6509 O   0  0  0  0  0  0  0  0  0  0  0  0
   -1.4850   -2.0915    1.9139 C   0  0  1  0  0  0  0  0  0  0  0  0
   -1.6814   -1.6475    3.3780 C   0  0  0  0  0  0  0  0  0  0  0  0
   -2.6869   -0.4489    3.3008 C   0  0  1  0  0  0  0  0  0  0  0  0
   -2.0576    0.7110    3.7852 O   0  0  0  0  0  0  0  0  0  0  0  0
   -3.0130   -0.2849    1.7802 C   0  0  1  0  0  0  0  0  0  0  0  0
   -4.0103   -1.2258    1.4326 O   0  0  0  0  0  0  0  0  0  0  0  0
   -3.5647    1.1308    1.3450 C   0  0  0  0  0  0  0  0  0  0  0  0
   -1.6720   -0.7654    1.1337 C   0  0  1  0  0  0  0  0  0  0  0  0
   -0.4314    0.2229    1.3507 C   0  0  0  0  0  0  0  0  0  0  0  0
   -6.6442   -1.0699   -4.6571 H   0  0  0  0  0  0  0  0  0  0  0  0
   -5.0722   -0.2632   -5.0145 H   0  0  0  0  0  0  0  0  0  0  0  0
   -6.5325    0.7275   -4.5788 H   0  0  0  0  0  0  0  0  0  0  0  0
   -6.0042   -1.0884   -2.4345 H   0  0  0  0  0  0  0  0  0  0  0  0
   -4.4321    1.8085   -3.9775 H   0  0  0  0  0  0  0  0  0  0  0  0
   -4.9970   -0.2662   -0.4429 H   0  0  0  0  0  0  0  0  0  0  0  0
   -4.0866    2.4540   -0.3154 H   0  0  0  0  0  0  0  0  0  0  0  0
    0.4406    0.2965   -2.0186 H   0  0  0  0  0  0  0  0  0  0  0  0
    0.4225    2.8873   -2.1003 H   0  0  0  0  0  0  0  0  0  0  0  0
    1.9884    2.1183   -1.7496 H   0  0  0  0  0  0  0  0  0  0  0  0
    0.1171    3.0949    0.5168 H   0  0  0  0  0  0  0  0  0  0  0  0
    0.9095    5.0127   -0.8626 H   0  0  0  0  0  0  0  0  0  0  0  0
    2.6110    4.4351   -0.7246 H   0  0  0  0  0  0  0  0  0  0  0  0
    2.4642    4.7723    1.8141 H   0  0  0  0  0  0  0  0  0  0  0  0
    0.7766    5.3171    1.6079 H   0  0  0  0  0  0  0  0  0  0  0  0
    3.1734    6.5062    0.6513 H   0  0  0  0  0  0  0  0  0  0  0  0
    3.0020    2.6898    1.1237 H   0  0  0  0  0  0  0  0  0  0  0  0
    3.0457   -0.5445    2.1921 H   0  0  0  0  0  0  0  0  0  0  0  0
    3.9779    0.8745    1.7871 H   0  0  0  0  0  0  0  0  0  0  0  0
    4.2919    1.2019   -1.1643 H   0  0  0  0  0  0  0  0  0  0  0  0
    5.5956    0.2027   -3.5174 H   0  0  0  0  0  0  0  0  0  0  0  0
    6.4825   -1.8991   -4.5443 H   0  0  0  0  0  0  0  0  0  0  0  0
    6.3402   -4.0525   -3.3050 H   0  0  0  0  0  0  0  0  0  0  0  0
    5.3088   -4.1272   -1.0251 H   0  0  0  0  0  0  0  0  0  0  0  0
    4.0987   -2.5550    0.8815 H   0  0  0  0  0  0  0  0  0  0  0  0
    1.8709   -1.4200   -0.6727 H   0  0  0  0  0  0  0  0  0  0  0  0
    0.1950   -1.7252   -0.7723 H   0  0  0  0  0  0  0  0  0  0  0  0
    1.4400   -1.8360    2.0518 H   0  0  0  0  0  0  0  0  0  0  0  0
    1.7348   -3.1329    0.8802 H   0  0  0  0  0  0  0  0  0  0  0  0
    0.0635   -4.6562    0.0742 H   0  0  0  0  0  0  0  0  0  0  0  0
   -1.0744   -3.3957   -0.5342 H   0  0  0  0  0  0  0  0  0  0  0  0
   -1.6181   -4.5833    0.6723 H   0  0  0  0  0  0  0  0  0  0  0  0
    0.6576   -4.5161    2.4252 H   0  0  0  0  0  0  0  0  0  0  0  0
   -2.3796   -2.7350    1.7603 H   0  0  0  0  0  0  0  0  0  0  0  0
   -0.7232   -1.3068    3.8231 H   0  0  0  0  0  0  0  0  0  0  0  0
   -2.0487   -2.4821    4.0139 H   0  0  0  0  0  0  0  0  0  0  0  0
   -3.6225   -0.6117    3.8844 H   0  0  0  0  0  0  0  0  0  0  0  0
   -2.0280    0.6269    4.7739 H   0  0  0  0  0  0  0  0  0  0  0  0
   -4.8119   -1.0578    1.9946 H   0  0  0  0  0  0  0  0  0  0  0  0
   -2.9162    1.9236    1.7755 H   0  0  0  0  0  0  0  0  0  0  0  0
   -4.5648    1.2742    1.8089 H   0  0  0  0  0  0  0  0  0  0  0  0
   -1.8499   -0.9582    0.0575 H   0  0  0  0  0  0  0  0  0  0  0  0
    0.0189    0.0461    2.3433 H   0  0  0  0  0  0  0  0  0  0  0  0
   -0.7630    1.2720    1.4324 H   0  0  0  0  0  0  0  0  0  0  0  0
  1  2  1  0  0  0  0
  1 42  1  0  0  0  0
  1 43  1  0  0  0  0
  1 44  1  0  0  0  0
  2  3  1  0  0  0  0
  2 45  1  0  0  0  0
  3  4  2  0  0  0  0
  3  5  1  0  0  0  0
  4 46  1  0  0  0  0
  5 47  1  0  0  0  0
  6  5  1  0  0  0  0
  6  7  1  0  0  0  0
  6 48  1  6  0  0  0
  7  8  3  0  0  0  0
  9  8  1  0  0  0  0
  9 10  1  0  0  0  0
  9 49  1  6  0  0  0
 10 11  1  0  0  0  0
 10 50  1  0  0  0  0
 10 51  1  0  0  0  0
 11 12  1  0  0  0  0
 11 15  1  0  0  0  0
 11 52  1  1  0  0  0
 12 13  1  0  0  0  0
 12 53  1  0  0  0  0
 12 54  1  0  0  0  0
 13 14  1  0  0  0  0
 13 55  1  0  0  0  0
 13 56  1  0  0  0  0
 14 57  1  0  0  0  0
 15 16  2  0  0  0  0
 15 58  1  0  0  0  0
 16 17  1  0  0  0  0
 17 18  1  0  0  0  0
 17 59  1  0  0  0  0
 17 60  1  0  0  0  0
 18 19  2  0  0  0  0
 19 20  1  0  0  0  0
 19 61  1  0  0  0  0
 20 21  2  0  0  0  0
 21 22  1  0  0  0  0
 21 62  1  0  0  0  0
 22 23  2  0  0  0  0
 22 63  1  0  0  0  0
 23 24  1  0  0  0  0
 23 64  1  0  0  0  0
 24 25  2  0  0  0  0
 24 65  1  0  0  0  0
 25 26  1  0  0  0  0
 25 20  1  0  0  0  0
 26 18  1  0  0  0  0
 26 66  1  0  0  0  0
 27 16  1  1  0  0  0
 27 28  1  0  0  0  0
 27  9  1  0  0  0  0
 28 29  1  0  0  0  0
 28 67  1  0  0  0  0
 28 68  1  0  0  0  0
 29 30  1  0  0  0  0
 29 69  1  0  0  0  0
 29 70  1  0  0  0  0
 30 31  1  0  0  0  0
 30 32  1  1  0  0  0
 30 33  1  0  0  0  0
 31 71  1  0  0  0  0
 31 72  1  0  0  0  0
 31 73  1  0  0  0  0
 32 74  1  0  0  0  0
 33 34  1  0  0  0  0
 33 75  1  6  0  0  0
 34 35  1  0  0  0  0
 34 76  1  0  0  0  0
 34 77  1  0  0  0  0
 35 36  1  0  0  0  0
 35 37  1  0  0  0  0
 35 78  1  1  0  0  0
 36 79  1  0  0  0  0
 37 38  1  6  0  0  0
 37 39  1  0  0  0  0
 37 40  1  0  0  0  0
 38 80  1  0  0  0  0
 39  6  1  0  0  0  0
 39 81  1  0  0  0  0
 39 82  1  0  0  0  0
 40 41  1  0  0  0  0
 40 33  1  0  0  0  0
 40 83  1  6  0  0  0
 41 27  1  0  0  0  0
 41 84  1  0  0  0  0
 41 85  1  0  0  0  0
M  END
>  <IDENTIFIER>
CNP0093209.1

>  <Energy>
1250.27

$$$$
