
 OpenBabel09072500013D

 40 42  0  0  0  0  0  0  0  0999 V2000
   -1.6936    2.4954   -1.9326 C   0  0  0  0  0  0  0  0  0  0  0  0
   -1.3571    1.7371   -0.8783 C   0  0  0  0  0  0  0  0  0  0  0  0
   -1.9909    1.9648    0.4759 C   0  0  0  0  0  0  0  0  0  0  0  0
   -2.7062    0.6747    0.9070 C   0  0  0  0  0  0  0  0  0  0  0  0
   -1.7277   -0.5326    0.9066 C   0  0  2  0  0  0  0  0  0  0  0  0
   -0.7714   -0.3252    1.9090 O   0  0  0  0  0  0  0  0  0  0  0  0
   -1.0623   -0.7384   -0.5178 C   0  0  2  0  0  0  0  0  0  0  0  0
   -2.1791   -1.1460   -1.5241 C   0  0  0  0  0  0  0  0  0  0  0  0
   -0.0131   -1.8964   -0.5603 C   0  0  0  0  0  0  0  0  0  0  0  0
    1.3015   -1.5741    0.1607 C   0  0  0  0  0  0  0  0  0  0  0  0
    1.9746   -0.3021   -0.4366 C   0  0  1  0  0  0  0  0  0  0  0  0
    0.9997    0.8917   -0.3830 C   0  0  2  0  0  0  0  0  0  0  0  0
    1.0186    1.2620    0.9474 O   0  0  0  0  0  0  0  0  0  0  0  0
    2.2235    0.9491    1.4775 C   0  0  0  0  0  0  0  0  0  0  0  0
    2.4297    0.9705    2.6817 O   0  0  0  0  0  0  0  0  0  0  0  0
    3.0848    0.2397    0.4775 C   0  0  1  0  0  0  0  0  0  0  0  0
    4.0889   -0.7768    1.0314 C   0  0  0  0  0  0  0  0  0  0  0  0
   -0.3829    0.5779   -1.0225 C   0  0  2  0  0  0  0  0  0  0  0  0
   -2.4080    3.3063   -1.8321 H   0  0  0  0  0  0  0  0  0  0  0  0
   -1.2572    2.3176   -2.9103 H   0  0  0  0  0  0  0  0  0  0  0  0
   -2.7222    2.8021    0.4556 H   0  0  0  0  0  0  0  0  0  0  0  0
   -1.2122    2.2262    1.2189 H   0  0  0  0  0  0  0  0  0  0  0  0
   -3.5596    0.4853    0.2262 H   0  0  0  0  0  0  0  0  0  0  0  0
   -3.1435    0.8108    1.9194 H   0  0  0  0  0  0  0  0  0  0  0  0
   -2.2894   -1.4615    1.1614 H   0  0  0  0  0  0  0  0  0  0  0  0
   -1.2414   -0.3795    2.7824 H   0  0  0  0  0  0  0  0  0  0  0  0
   -2.6807   -2.0811   -1.1938 H   0  0  0  0  0  0  0  0  0  0  0  0
   -1.7517   -1.3288   -2.5340 H   0  0  0  0  0  0  0  0  0  0  0  0
   -2.9511   -0.3651   -1.6599 H   0  0  0  0  0  0  0  0  0  0  0  0
    0.2639   -2.0989   -1.6196 H   0  0  0  0  0  0  0  0  0  0  0  0
   -0.4554   -2.8289   -0.1462 H   0  0  0  0  0  0  0  0  0  0  0  0
    1.9951   -2.4364    0.0548 H   0  0  0  0  0  0  0  0  0  0  0  0
    1.1115   -1.4665    1.2429 H   0  0  0  0  0  0  0  0  0  0  0  0
    2.3110   -0.5354   -1.4704 H   0  0  0  0  0  0  0  0  0  0  0  0
    1.4393    1.7448   -0.9535 H   0  0  0  0  0  0  0  0  0  0  0  0
    3.6399    1.0245   -0.0861 H   0  0  0  0  0  0  0  0  0  0  0  0
    3.5871   -1.5560    1.6408 H   0  0  0  0  0  0  0  0  0  0  0  0
    4.8293   -0.2564    1.6745 H   0  0  0  0  0  0  0  0  0  0  0  0
    4.6290   -1.2629    0.1914 H   0  0  0  0  0  0  0  0  0  0  0  0
   -0.1310    0.4269   -2.0984 H   0  0  0  0  0  0  0  0  0  0  0  0
  1  2  2  0  0  0  0
  1 19  1  0  0  0  0
  1 20  1  0  0  0  0
  2  3  1  0  0  0  0
  3  4  1  0  0  0  0
  3 21  1  0  0  0  0
  3 22  1  0  0  0  0
  4  5  1  0  0  0  0
  4 23  1  0  0  0  0
  4 24  1  0  0  0  0
  5  6  1  0  0  0  0
  5  7  1  0  0  0  0
  5 25  1  1  0  0  0
  6 26  1  0  0  0  0
  7  8  1  6  0  0  0
  7  9  1  0  0  0  0
  8 27  1  0  0  0  0
  8 28  1  0  0  0  0
  8 29  1  0  0  0  0
  9 10  1  0  0  0  0
  9 30  1  0  0  0  0
  9 31  1  0  0  0  0
 10 32  1  0  0  0  0
 10 33  1  0  0  0  0
 11 10  1  0  0  0  0
 11 12  1  0  0  0  0
 11 34  1  6  0  0  0
 12 13  1  0  0  0  0
 12 18  1  0  0  0  0
 12 35  1  6  0  0  0
 13 14  1  0  0  0  0
 14 15  2  0  0  0  0
 14 16  1  0  0  0  0
 16 17  1  0  0  0  0
 16 11  1  0  0  0  0
 16 36  1  6  0  0  0
 17 37  1  0  0  0  0
 17 38  1  0  0  0  0
 17 39  1  0  0  0  0
 18  2  1  0  0  0  0
 18  7  1  0  0  0  0
 18 40  1  6  0  0  0
M  END
>  <IDENTIFIER>
CNP0280636.8

>  <Energy>
366.052

$$$$
