
 OpenBabel09122515263D

 61 64  0  0  0  0  0  0  0  0999 V2000
   -1.2530    1.8911   -1.1223 C   0  0  0  0  0  0  0  0  0  0  0  0
   -1.4202    0.3996   -0.6906 C   0  0  2  0  0  0  0  0  0  0  0  0
   -2.0764   -0.3607   -1.9169 C   0  0  0  0  0  0  0  0  0  0  0  0
   -3.3507   -1.1377   -1.5582 C   0  0  0  0  0  0  0  0  0  0  0  0
   -4.3993   -0.1992   -0.9177 C   0  0  1  0  0  0  0  0  0  0  0  0
   -5.4570   -1.0053   -0.4375 O   0  0  0  0  0  0  0  0  0  0  0  0
   -6.9626   -0.4716   -1.1016 S   0  0  0  0  0  0  0  0  0  0  0  0
   -8.0389   -1.5236   -0.7972 O   0  0  0  0  0  0  0  0  0  0  0  0
   -7.4411    0.7779   -0.3473 O   0  0  0  0  0  0  0  0  0  0  0  0
   -6.9689   -0.1586   -2.7916 O   0  0  0  0  0  0  0  0  0  0  0  0
   -3.8194    0.6557    0.2447 C   0  0  0  0  0  0  0  0  0  0  0  0
   -2.3675    0.2613    0.5703 C   0  0  2  0  0  0  0  0  0  0  0  0
   -1.8184    0.9902    1.8051 C   0  0  0  0  0  0  0  0  0  0  0  0
   -0.4739    0.3681    2.1888 C   0  0  0  0  0  0  0  0  0  0  0  0
    0.5418    0.4613    1.0338 C   0  0  2  0  0  0  0  0  0  0  0  0
   -0.0189   -0.2163   -0.2757 C   0  0  2  0  0  0  0  0  0  0  0  0
    1.0718   -0.1820   -1.4052 C   0  0  0  0  0  0  0  0  0  0  0  0
    2.4115   -0.8140   -0.9445 C   0  0  0  0  0  0  0  0  0  0  0  0
    2.9453   -0.1202    0.3343 C   0  0  2  0  0  0  0  0  0  0  0  0
    3.3532    1.3563    0.0025 C   0  0  0  0  0  0  0  0  0  0  0  0
    4.1407   -0.8428    1.0282 C   0  0  1  0  0  0  0  0  0  0  0  0
    5.4112   -0.3223    0.6936 O   0  0  0  0  0  0  0  0  0  0  0  0
    6.0782   -1.0954   -0.7094 S   0  0  0  0  0  0  0  0  0  0  0  0
    7.5439   -1.4433   -0.4045 O   0  0  0  0  0  0  0  0  0  0  0  0
    5.4503   -2.4727   -0.9778 O   0  0  0  0  0  0  0  0  0  0  0  0
    6.0477   -0.1660   -2.1532 O   0  0  0  0  0  0  0  0  0  0  0  0
    3.8831   -0.6474    2.5500 C   0  0  0  0  0  0  0  0  0  0  0  0
    2.5949    0.1731    2.6772 C   0  0  0  0  0  0  0  0  0  0  0  0
    1.8560   -0.2526    1.4177 C   0  0  1  0  0  0  0  0  0  0  0  0
   -2.2286    2.3443   -1.3897 H   0  0  0  0  0  0  0  0  0  0  0  0
   -0.6227    1.9732   -2.0305 H   0  0  0  0  0  0  0  0  0  0  0  0
   -0.7989    2.5301   -0.3439 H   0  0  0  0  0  0  0  0  0  0  0  0
   -1.3726   -1.0546   -2.4110 H   0  0  0  0  0  0  0  0  0  0  0  0
   -2.3893    0.3632   -2.7027 H   0  0  0  0  0  0  0  0  0  0  0  0
   -3.0868   -1.9597   -0.8588 H   0  0  0  0  0  0  0  0  0  0  0  0
   -3.7837   -1.6138   -2.4647 H   0  0  0  0  0  0  0  0  0  0  0  0
   -4.7136    0.5164   -1.7137 H   0  0  0  0  0  0  0  0  0  0  0  0
   -6.6267   -0.9915   -3.2014 H   0  0  0  0  0  0  0  0  0  0  0  0
   -4.4572    0.5368    1.1483 H   0  0  0  0  0  0  0  0  0  0  0  0
   -3.8701    1.7327   -0.0176 H   0  0  0  0  0  0  0  0  0  0  0  0
   -2.4133   -0.8096    0.8708 H   0  0  0  0  0  0  0  0  0  0  0  0
   -2.5156    0.8561    2.6612 H   0  0  0  0  0  0  0  0  0  0  0  0
   -1.7198    2.0800    1.6249 H   0  0  0  0  0  0  0  0  0  0  0  0
   -0.6353   -0.7010    2.4538 H   0  0  0  0  0  0  0  0  0  0  0  0
   -0.0839    0.8899    3.0887 H   0  0  0  0  0  0  0  0  0  0  0  0
    0.7439    1.5352    0.8638 H   0  0  0  0  0  0  0  0  0  0  0  0
   -0.1985   -1.2910   -0.0418 H   0  0  0  0  0  0  0  0  0  0  0  0
    1.2605    0.8573   -1.7280 H   0  0  0  0  0  0  0  0  0  0  0  0
    0.7401   -0.7358   -2.3022 H   0  0  0  0  0  0  0  0  0  0  0  0
    3.1622   -0.7627   -1.7617 H   0  0  0  0  0  0  0  0  0  0  0  0
    2.2227   -1.8896   -0.7294 H   0  0  0  0  0  0  0  0  0  0  0  0
    4.1203    1.3589   -0.7998 H   0  0  0  0  0  0  0  0  0  0  0  0
    3.8047    1.8883    0.8610 H   0  0  0  0  0  0  0  0  0  0  0  0
    2.5160    1.9789   -0.3607 H   0  0  0  0  0  0  0  0  0  0  0  0
    4.0781   -1.9451    0.8826 H   0  0  0  0  0  0  0  0  0  0  0  0
    6.8200    0.4507   -2.0752 H   0  0  0  0  0  0  0  0  0  0  0  0
    4.7309   -0.2346    3.1386 H   0  0  0  0  0  0  0  0  0  0  0  0
    3.6562   -1.6554    2.9690 H   0  0  0  0  0  0  0  0  0  0  0  0
    2.8166    1.2570    2.6353 H   0  0  0  0  0  0  0  0  0  0  0  0
    2.0603   -0.0195    3.6310 H   0  0  0  0  0  0  0  0  0  0  0  0
    1.6079   -1.3358    1.5564 H   0  0  0  0  0  0  0  0  0  0  0  0
  1 30  1  0  0  0  0
  1 31  1  0  0  0  0
  1 32  1  0  0  0  0
  2  1  1  6  0  0  0
  2  3  1  0  0  0  0
  3  4  1  0  0  0  0
  3 33  1  0  0  0  0
  3 34  1  0  0  0  0
  4  5  1  0  0  0  0
  4 35  1  0  0  0  0
  4 36  1  0  0  0  0
  5  6  1  0  0  0  0
  5 11  1  0  0  0  0
  5 37  1  6  0  0  0
  6  7  1  0  0  0  0
  7  8  2  0  0  0  0
  7  9  2  0  0  0  0
  7 10  1  0  0  0  0
 10 38  1  0  0  0  0
 11 39  1  0  0  0  0
 11 40  1  0  0  0  0
 12 11  1  0  0  0  0
 12 13  1  0  0  0  0
 12  2  1  0  0  0  0
 12 41  1  1  0  0  0
 13 14  1  0  0  0  0
 13 42  1  0  0  0  0
 13 43  1  0  0  0  0
 14 44  1  0  0  0  0
 14 45  1  0  0  0  0
 15 14  1  0  0  0  0
 15 16  1  0  0  0  0
 15 46  1  6  0  0  0
 16 17  1  0  0  0  0
 16  2  1  0  0  0  0
 16 47  1  1  0  0  0
 17 18  1  0  0  0  0
 17 48  1  0  0  0  0
 17 49  1  0  0  0  0
 18 19  1  0  0  0  0
 18 50  1  0  0  0  0
 18 51  1  0  0  0  0
 19 20  1  6  0  0  0
 19 21  1  0  0  0  0
 20 52  1  0  0  0  0
 20 53  1  0  0  0  0
 20 54  1  0  0  0  0
 21 22  1  0  0  0  0
 21 27  1  0  0  0  0
 21 55  1  6  0  0  0
 22 23  1  0  0  0  0
 23 24  2  0  0  0  0
 23 25  2  0  0  0  0
 23 26  1  0  0  0  0
 26 56  1  0  0  0  0
 27 28  1  0  0  0  0
 27 57  1  0  0  0  0
 27 58  1  0  0  0  0
 28 59  1  0  0  0  0
 28 60  1  0  0  0  0
 29 28  1  0  0  0  0
 29 15  1  0  0  0  0
 29 19  1  0  0  0  0
 29 61  1  1  0  0  0
M  END
>  <IDENTIFIER>
CNP0578673.2

>  <Energy>
1667.53

$$$$
