
 OpenBabel09092513453D

 97103  0  0  0  0  0  0  0  0999 V2000
    8.0310    2.1375    1.2244 C   0  0  0  0  0  0  0  0  0  0  0  0
    7.2572    0.8202    1.2591 C   0  0  1  0  0  0  0  0  0  0  0  0
    5.9587    1.0338    0.7239 O   0  0  0  0  0  0  0  0  0  0  0  0
    5.1424   -0.1193    0.8836 C   0  0  1  0  0  0  0  0  0  0  0  0
    3.8734    0.1869    0.3376 O   0  0  0  0  0  0  0  0  0  0  0  0
    2.7719   -0.0986    1.1872 C   0  0  1  0  0  0  0  0  0  0  0  0
    1.9329    1.1962    1.2994 C   0  0  0  0  0  0  0  0  0  0  0  0
    0.4320    0.9182    1.2000 C   0  0  0  0  0  0  0  0  0  0  0  0
    0.0255    0.2512   -0.1760 C   0  0  2  0  0  0  0  0  0  0  0  0
   -0.0897    1.3439   -1.2486 C   0  0  0  0  0  0  0  0  0  0  0  0
    0.9111    2.1100   -1.5039 N   0  0  0  0  0  0  0  0  0  0  0  0
    0.9041    3.1740   -2.4819 C   0  0  0  0  0  0  0  0  0  0  0  0
    0.9427    4.5222   -1.7549 C   0  0  0  0  0  0  0  0  0  0  0  0
   -0.3321    4.7456   -0.9775 C   0  0  0  0  0  0  0  0  0  0  0  0
   -1.5551    4.8788   -1.6617 C   0  0  0  0  0  0  0  0  0  0  0  0
   -2.7420    5.0777   -0.9547 C   0  0  0  0  0  0  0  0  0  0  0  0
   -2.7229    5.1420    0.4404 C   0  0  0  0  0  0  0  0  0  0  0  0
   -1.5138    5.0123    1.1298 C   0  0  0  0  0  0  0  0  0  0  0  0
   -0.3201    4.8183    0.4250 C   0  0  0  0  0  0  0  0  0  0  0  0
   -1.3690   -0.4387    0.0108 C   0  0  1  0  0  0  0  0  0  0  0  0
   -2.5100    0.4515    0.5568 C   0  0  0  0  0  0  0  0  0  0  0  0
   -3.6218   -0.4757    1.0389 C   0  0  0  0  0  0  0  0  0  0  0  0
   -4.2208   -1.4071   -0.0714 C   0  0  2  0  0  0  0  0  0  0  0  0
   -5.1563   -0.5474   -0.9606 C   0  0  0  0  0  0  0  0  0  0  0  0
   -4.8690   -2.6574    0.6845 C   0  0  1  0  0  0  0  0  0  0  0  0
   -6.3389   -2.8208    1.0531 C   0  0  0  0  0  0  0  0  0  0  0  0
   -7.3799   -2.0278    0.8160 C   0  0  0  0  0  0  0  0  0  0  0  0
   -8.5145   -2.6614    1.4409 C   0  0  0  0  0  0  0  0  0  0  0  0
   -9.6490   -2.2133    1.4549 O   0  0  0  0  0  0  0  0  0  0  0  0
   -8.1650   -3.8092    2.0356 O   0  0  0  0  0  0  0  0  0  0  0  0
   -6.8132   -4.0163    1.8563 C   0  0  0  0  0  0  0  0  0  0  0  0
   -4.2458   -3.8844    0.0218 C   0  0  0  0  0  0  0  0  0  0  0  0
   -2.8222   -3.3964   -0.2634 C   0  0  0  0  0  0  0  0  0  0  0  0
   -3.1089   -2.0770   -0.9949 C   0  0  1  0  0  0  0  0  0  0  0  0
   -3.7040   -2.3969   -2.2457 O   0  0  0  0  0  0  0  0  0  0  0  0
   -1.8846   -1.1338   -1.2901 C   0  0  2  0  0  0  0  0  0  0  0  0
   -0.7261   -1.7997   -2.0950 C   0  0  0  0  0  0  0  0  0  0  0  0
    0.4249   -2.1747   -1.1719 C   0  0  0  0  0  0  0  0  0  0  0  0
    1.1053   -0.8779   -0.6070 C   0  0  1  0  0  0  0  0  0  0  0  0
    1.9594   -0.3529   -1.6032 O   0  0  0  0  0  0  0  0  0  0  0  0
    1.9676   -1.2893    0.6115 C   0  0  0  0  0  0  0  0  0  0  0  0
    5.7184   -1.3071    0.0881 C   0  0  0  0  0  0  0  0  0  0  0  0
    7.1589   -1.5787    0.5465 C   0  0  1  0  0  0  0  0  0  0  0  0
    7.7484   -2.6288   -0.1790 O   0  0  0  0  0  0  0  0  0  0  0  0
    7.9956   -0.2874    0.4618 C   0  0  1  0  0  0  0  0  0  0  0  0
    8.2297    0.0918   -0.8777 O   0  0  0  0  0  0  0  0  0  0  0  0
    7.4935    2.9026    1.8230 H   0  0  0  0  0  0  0  0  0  0  0  0
    8.1272    2.5109    0.1828 H   0  0  0  0  0  0  0  0  0  0  0  0
    9.0452    2.0000    1.6558 H   0  0  0  0  0  0  0  0  0  0  0  0
    7.1840    0.5253    2.3326 H   0  0  0  0  0  0  0  0  0  0  0  0
    5.1071   -0.3837    1.9671 H   0  0  0  0  0  0  0  0  0  0  0  0
    3.0505   -0.4250    2.2153 H   0  0  0  0  0  0  0  0  0  0  0  0
    2.2056    1.8927    0.4863 H   0  0  0  0  0  0  0  0  0  0  0  0
    2.1949    1.7256    2.2410 H   0  0  0  0  0  0  0  0  0  0  0  0
   -0.1366    1.8591    1.3628 H   0  0  0  0  0  0  0  0  0  0  0  0
    0.1900    0.2400    2.0482 H   0  0  0  0  0  0  0  0  0  0  0  0
   -1.0276    1.5079   -1.7712 H   0  0  0  0  0  0  0  0  0  0  0  0
    0.0167    3.1152   -3.1491 H   0  0  0  0  0  0  0  0  0  0  0  0
    1.8089    3.0669   -3.1161 H   0  0  0  0  0  0  0  0  0  0  0  0
    1.0640    5.3491   -2.4869 H   0  0  0  0  0  0  0  0  0  0  0  0
    1.8292    4.5320   -1.0815 H   0  0  0  0  0  0  0  0  0  0  0  0
   -1.5858    4.8329   -2.7429 H   0  0  0  0  0  0  0  0  0  0  0  0
   -3.6768    5.1804   -1.4900 H   0  0  0  0  0  0  0  0  0  0  0  0
   -3.6453    5.2938    0.9854 H   0  0  0  0  0  0  0  0  0  0  0  0
   -1.5029    5.0617    2.2109 H   0  0  0  0  0  0  0  0  0  0  0  0
    0.6071    4.7149    0.9750 H   0  0  0  0  0  0  0  0  0  0  0  0
   -1.1613   -1.2165    0.7786 H   0  0  0  0  0  0  0  0  0  0  0  0
   -2.8650    1.1831   -0.2002 H   0  0  0  0  0  0  0  0  0  0  0  0
   -2.1850    1.0207    1.4494 H   0  0  0  0  0  0  0  0  0  0  0  0
   -4.4336    0.0973    1.5384 H   0  0  0  0  0  0  0  0  0  0  0  0
   -3.1338   -1.0709    1.8417 H   0  0  0  0  0  0  0  0  0  0  0  0
   -5.8437    0.0687   -0.3549 H   0  0  0  0  0  0  0  0  0  0  0  0
   -5.7437   -1.1785   -1.6612 H   0  0  0  0  0  0  0  0  0  0  0  0
   -4.5694    0.1813   -1.5568 H   0  0  0  0  0  0  0  0  0  0  0  0
   -4.3898   -2.7157    1.6863 H   0  0  0  0  0  0  0  0  0  0  0  0
   -7.4273   -1.0946    0.2953 H   0  0  0  0  0  0  0  0  0  0  0  0
   -6.6435   -4.9621    1.3001 H   0  0  0  0  0  0  0  0  0  0  0  0
   -6.2994   -4.0546    2.8407 H   0  0  0  0  0  0  0  0  0  0  0  0
   -4.7814   -4.1193   -0.9250 H   0  0  0  0  0  0  0  0  0  0  0  0
   -4.2629   -4.7922    0.6630 H   0  0  0  0  0  0  0  0  0  0  0  0
   -2.2288   -4.1210   -0.8614 H   0  0  0  0  0  0  0  0  0  0  0  0
   -2.2895   -3.2174    0.6957 H   0  0  0  0  0  0  0  0  0  0  0  0
   -3.1962   -3.1221   -2.6922 H   0  0  0  0  0  0  0  0  0  0  0  0
   -2.2903   -0.3545   -1.9724 H   0  0  0  0  0  0  0  0  0  0  0  0
   -0.3105   -1.0754   -2.8305 H   0  0  0  0  0  0  0  0  0  0  0  0
   -1.0776   -2.6673   -2.6843 H   0  0  0  0  0  0  0  0  0  0  0  0
    1.1819   -2.7908   -1.7040 H   0  0  0  0  0  0  0  0  0  0  0  0
    0.0114   -2.8151   -0.3631 H   0  0  0  0  0  0  0  0  0  0  0  0
    2.6560   -1.0290   -1.8142 H   0  0  0  0  0  0  0  0  0  0  0  0
    2.6665   -2.1190    0.3699 H   0  0  0  0  0  0  0  0  0  0  0  0
    1.2781   -1.6775    1.3939 H   0  0  0  0  0  0  0  0  0  0  0  0
    5.7034   -1.0581   -0.9951 H   0  0  0  0  0  0  0  0  0  0  0  0
    5.0952   -2.2138    0.2398 H   0  0  0  0  0  0  0  0  0  0  0  0
    7.1142   -1.8891    1.6143 H   0  0  0  0  0  0  0  0  0  0  0  0
    7.6959   -2.3981   -1.1430 H   0  0  0  0  0  0  0  0  0  0  0  0
    8.9862   -0.4724    0.9309 H   0  0  0  0  0  0  0  0  0  0  0  0
    7.3927    0.4662   -1.2563 H   0  0  0  0  0  0  0  0  0  0  0  0
  1 47  1  0  0  0  0
  1 48  1  0  0  0  0
  1 49  1  0  0  0  0
  2  1  1  0  0  0  0
  2  3  1  0  0  0  0
  2 50  1  1  0  0  0
  3  4  1  0  0  0  0
  4  5  1  0  0  0  0
  4 42  1  0  0  0  0
  4 51  1  1  0  0  0
  6  5  1  0  0  0  0
  6  7  1  0  0  0  0
  6 52  1  1  0  0  0
  7  8  1  0  0  0  0
  7 53  1  0  0  0  0
  7 54  1  0  0  0  0
  8  9  1  0  0  0  0
  8 55  1  0  0  0  0
  8 56  1  0  0  0  0
  9 10  1  6  0  0  0
  9 20  1  0  0  0  0
 10 11  2  0  0  0  0
 10 57  1  0  0  0  0
 11 12  1  0  0  0  0
 12 13  1  0  0  0  0
 12 58  1  0  0  0  0
 12 59  1  0  0  0  0
 13 14  1  0  0  0  0
 13 60  1  0  0  0  0
 13 61  1  0  0  0  0
 14 15  2  0  0  0  0
 15 16  1  0  0  0  0
 15 62  1  0  0  0  0
 16 17  2  0  0  0  0
 16 63  1  0  0  0  0
 17 18  1  0  0  0  0
 17 64  1  0  0  0  0
 18 19  2  0  0  0  0
 18 65  1  0  0  0  0
 19 14  1  0  0  0  0
 19 66  1  0  0  0  0
 20 21  1  0  0  0  0
 20 67  1  1  0  0  0
 21 22  1  0  0  0  0
 21 68  1  0  0  0  0
 21 69  1  0  0  0  0
 22 23  1  0  0  0  0
 22 70  1  0  0  0  0
 22 71  1  0  0  0  0
 23 24  1  6  0  0  0
 23 25  1  0  0  0  0
 24 72  1  0  0  0  0
 24 73  1  0  0  0  0
 24 74  1  0  0  0  0
 25 26  1  0  0  0  0
 25 32  1  0  0  0  0
 25 75  1  1  0  0  0
 26 27  2  0  0  0  0
 27 28  1  0  0  0  0
 27 76  1  0  0  0  0
 28 29  2  0  0  0  0
 28 30  1  0  0  0  0
 30 31  1  0  0  0  0
 31 26  1  0  0  0  0
 31 77  1  0  0  0  0
 31 78  1  0  0  0  0
 32 33  1  0  0  0  0
 32 79  1  0  0  0  0
 32 80  1  0  0  0  0
 33 34  1  0  0  0  0
 33 81  1  0  0  0  0
 33 82  1  0  0  0  0
 34 35  1  6  0  0  0
 34 36  1  0  0  0  0
 34 23  1  0  0  0  0
 35 83  1  0  0  0  0
 36 37  1  0  0  0  0
 36 20  1  0  0  0  0
 36 84  1  6  0  0  0
 37 38  1  0  0  0  0
 37 85  1  0  0  0  0
 37 86  1  0  0  0  0
 38 39  1  0  0  0  0
 38 87  1  0  0  0  0
 38 88  1  0  0  0  0
 39 40  1  6  0  0  0
 39 41  1  0  0  0  0
 39  9  1  0  0  0  0
 40 89  1  0  0  0  0
 41  6  1  0  0  0  0
 41 90  1  0  0  0  0
 41 91  1  0  0  0  0
 42 43  1  0  0  0  0
 42 92  1  0  0  0  0
 42 93  1  0  0  0  0
 43 44  1  0  0  0  0
 43 45  1  0  0  0  0
 43 94  1  1  0  0  0
 44 95  1  0  0  0  0
 45 46  1  0  0  0  0
 45  2  1  0  0  0  0
 45 96  1  1  0  0  0
 46 97  1  0  0  0  0
M  END
>  <IDENTIFIER>
CNP0385416.2

>  <Energy>
1219.3

$$$$
