
 OpenBabel09072512223D

 30 30  0  0  0  0  0  0  0  0999 V2000
    4.1264    0.1124   -0.2009 C   0  0  0  0  0  0  0  0  0  0  0  0
    2.8415    0.2505    0.4445 N   0  0  0  0  0  0  0  0  0  0  0  0
    1.7222   -0.2004   -0.0285 C   0  0  0  0  0  0  0  0  0  0  0  0
    1.6775   -0.9013   -1.2677 N   0  0  0  0  0  0  0  0  0  0  0  0
    0.4736   -1.6027   -1.6231 C   0  0  0  0  0  0  0  0  0  0  0  0
   -0.6842   -0.6567   -1.4041 C   0  0  0  0  0  0  0  0  0  0  0  0
   -0.8257   -0.2956    0.1085 C   0  0  2  0  0  0  0  0  0  0  0  0
   -1.8252    0.9222    0.2600 C   0  0  2  0  0  0  0  0  0  0  0  0
   -2.0926    1.2093    1.6690 N   0  0  0  0  0  0  0  0  0  0  0  0
   -3.1487    0.7428   -0.5014 C   0  0  0  0  0  0  0  0  0  0  0  0
   -3.1377    0.7199   -1.7217 O   0  0  0  0  0  0  0  0  0  0  0  0
   -4.3515    0.6711    0.1172 O   0  0  0  0  0  0  0  0  0  0  0  0
    0.5041   -0.0329    0.7243 N   0  0  0  0  0  0  0  0  0  0  0  0
    0.6521    0.2732    2.1425 C   0  0  0  0  0  0  0  0  0  0  0  0
    4.9046    0.5819    0.4347 H   0  0  0  0  0  0  0  0  0  0  0  0
    4.1208    0.6232   -1.1875 H   0  0  0  0  0  0  0  0  0  0  0  0
    4.3765   -0.9634   -0.3284 H   0  0  0  0  0  0  0  0  0  0  0  0
    2.4731   -0.9047   -1.9219 H   0  0  0  0  0  0  0  0  0  0  0  0
    0.3404   -2.4928   -0.9697 H   0  0  0  0  0  0  0  0  0  0  0  0
    0.5337   -1.9407   -2.6803 H   0  0  0  0  0  0  0  0  0  0  0  0
   -1.6138   -1.1407   -1.7691 H   0  0  0  0  0  0  0  0  0  0  0  0
   -0.4838    0.2578   -2.0075 H   0  0  0  0  0  0  0  0  0  0  0  0
   -1.2582   -1.1835    0.6213 H   0  0  0  0  0  0  0  0  0  0  0  0
   -1.3347    1.8231   -0.1715 H   0  0  0  0  0  0  0  0  0  0  0  0
   -2.5511    0.3908    2.1323 H   0  0  0  0  0  0  0  0  0  0  0  0
   -2.6932    2.0609    1.7638 H   0  0  0  0  0  0  0  0  0  0  0  0
   -4.4790    0.6846    1.0735 H   0  0  0  0  0  0  0  0  0  0  0  0
   -0.2867    0.1987    2.7101 H   0  0  0  0  0  0  0  0  0  0  0  0
    1.0908    1.2859    2.2693 H   0  0  0  0  0  0  0  0  0  0  0  0
    1.3267   -0.4739    2.6131 H   0  0  0  0  0  0  0  0  0  0  0  0
  1  2  1  0  0  0  0
  1 15  1  0  0  0  0
  1 16  1  0  0  0  0
  1 17  1  0  0  0  0
  2  3  2  0  0  0  0
  3  4  1  0  0  0  0
  4  5  1  0  0  0  0
  4 18  1  0  0  0  0
  5  6  1  0  0  0  0
  5 19  1  0  0  0  0
  5 20  1  0  0  0  0
  6 21  1  0  0  0  0
  6 22  1  0  0  0  0
  7  6  1  0  0  0  0
  7  8  1  0  0  0  0
  7 13  1  0  0  0  0
  7 23  1  1  0  0  0
  8  9  1  0  0  0  0
  8 10  1  0  0  0  0
  8 24  1  6  0  0  0
  9 25  1  0  0  0  0
  9 26  1  0  0  0  0
 10 11  2  0  0  0  0
 10 12  1  0  0  0  0
 12 27  1  0  0  0  0
 13 14  1  0  0  0  0
 13  3  1  0  0  0  0
 14 28  1  0  0  0  0
 14 29  1  0  0  0  0
 14 30  1  0  0  0  0
M  END
>  <IDENTIFIER>
CNP0313017.1

>  <Energy>
201.239

$$$$
