
 OpenBabel09052503003D

 57 59  0  0  0  0  0  0  0  0999 V2000
    0.0865   -2.0881   -2.7195 C   0  5  0  0  0  0  0  0  0  0  0  0
   -0.3688   -1.1956   -2.1373 N   0  3  0  0  0  0  0  0  0  0  0  0
   -0.9168   -0.1003   -1.4208 C   0  0  2  0  0  0  0  0  0  0  0  0
   -0.9474   -0.4640    0.0732 C   0  0  1  0  0  0  0  0  0  0  0  0
   -1.8063   -1.7615    0.3040 C   0  0  2  0  0  0  0  0  0  0  0  0
   -2.9614   -1.9281   -0.7366 C   0  0  0  0  0  0  0  0  0  0  0  0
   -3.4903   -0.5627   -1.1477 C   0  0  0  0  0  0  0  0  0  0  0  0
   -2.3847    0.2662   -1.9006 C   0  0  2  0  0  0  0  0  0  0  0  0
   -2.5002    0.0800   -3.4326 C   0  0  0  0  0  0  0  0  0  0  0  0
   -2.6031    1.6281   -1.6084 O   0  0  0  0  0  0  0  0  0  0  0  0
   -2.2049   -1.6677    1.7852 C   0  0  0  0  0  0  0  0  0  0  0  0
   -3.4718   -1.7056    2.2337 C   0  0  0  0  0  0  0  0  0  0  0  0
   -1.0871   -1.4486    2.7911 C   0  0  0  0  0  0  0  0  0  0  0  0
    0.2815   -1.5001    2.0945 C   0  0  0  0  0  0  0  0  0  0  0  0
    0.4410   -0.5484    0.8446 C   0  0  2  0  0  0  0  0  0  0  0  0
    1.1457    0.8719    1.1241 C   0  0  1  0  0  0  0  0  0  0  0  0
    0.1871    1.8150    1.8948 C   0  0  0  0  0  0  0  0  0  0  0  0
    2.4082    0.7765    2.0463 C   0  0  0  0  0  0  0  0  0  0  0  0
    3.6136    0.2177    1.3130 C   0  0  0  0  0  0  0  0  0  0  0  0
    3.9360    1.1865    0.1779 C   0  0  2  0  0  0  0  0  0  0  0  0
    4.4900    2.7626    0.8665 Cl  0  0  0  0  0  0  0  0  0  0  0  0
    2.7094    1.3175   -0.7811 C   0  0  0  0  0  0  0  0  0  0  0  0
    2.9260    2.5209   -1.7261 C   0  0  0  0  0  0  0  0  0  0  0  0
    2.6578    0.0805   -1.7127 C   0  0  0  0  0  0  0  0  0  0  0  0
    1.4503    1.5534   -0.1107 O   0  0  0  0  0  0  0  0  0  0  0  0
   -0.2837    0.7828   -1.6278 H   0  0  0  0  0  0  0  0  0  0  0  0
   -1.5371    0.3473    0.5385 H   0  0  0  0  0  0  0  0  0  0  0  0
   -1.1944   -2.6778    0.1643 H   0  0  0  0  0  0  0  0  0  0  0  0
   -3.7425   -2.6189   -0.3614 H   0  0  0  0  0  0  0  0  0  0  0  0
   -2.5816   -2.4050   -1.6646 H   0  0  0  0  0  0  0  0  0  0  0  0
   -3.7804   -0.0510   -0.2034 H   0  0  0  0  0  0  0  0  0  0  0  0
   -4.4131   -0.6307   -1.7647 H   0  0  0  0  0  0  0  0  0  0  0  0
   -3.5017    0.4037   -3.7883 H   0  0  0  0  0  0  0  0  0  0  0  0
   -2.3735   -0.9833   -3.7233 H   0  0  0  0  0  0  0  0  0  0  0  0
   -1.7334    0.6933   -3.9532 H   0  0  0  0  0  0  0  0  0  0  0  0
   -3.5248    1.8654   -1.8957 H   0  0  0  0  0  0  0  0  0  0  0  0
   -4.3250   -1.8254    1.5814 H   0  0  0  0  0  0  0  0  0  0  0  0
   -3.6772   -1.6080    3.2961 H   0  0  0  0  0  0  0  0  0  0  0  0
   -1.1175   -2.2536    3.5582 H   0  0  0  0  0  0  0  0  0  0  0  0
   -1.2337   -0.4775    3.3027 H   0  0  0  0  0  0  0  0  0  0  0  0
    0.3477   -2.5442    1.7146 H   0  0  0  0  0  0  0  0  0  0  0  0
    1.1123   -1.4744    2.8135 H   0  0  0  0  0  0  0  0  0  0  0  0
    1.1361   -1.1328    0.2340 H   0  0  0  0  0  0  0  0  0  0  0  0
   -0.1078    1.3900    2.8725 H   0  0  0  0  0  0  0  0  0  0  0  0
   -0.7135    2.0833    1.3136 H   0  0  0  0  0  0  0  0  0  0  0  0
    0.6817    2.7920    2.0905 H   0  0  0  0  0  0  0  0  0  0  0  0
    2.2218    0.2305    2.9847 H   0  0  0  0  0  0  0  0  0  0  0  0
    2.6832    1.7880    2.4113 H   0  0  0  0  0  0  0  0  0  0  0  0
    3.4016   -0.8059    0.9437 H   0  0  0  0  0  0  0  0  0  0  0  0
    4.4826    0.1544    2.0031 H   0  0  0  0  0  0  0  0  0  0  0  0
    4.8178    0.8143   -0.3882 H   0  0  0  0  0  0  0  0  0  0  0  0
    3.8850    2.4293   -2.2807 H   0  0  0  0  0  0  0  0  0  0  0  0
    2.9313    3.4789   -1.1662 H   0  0  0  0  0  0  0  0  0  0  0  0
    2.0970    2.5904   -2.4633 H   0  0  0  0  0  0  0  0  0  0  0  0
    3.5959    0.0109   -2.3044 H   0  0  0  0  0  0  0  0  0  0  0  0
    1.8287    0.1728   -2.4403 H   0  0  0  0  0  0  0  0  0  0  0  0
    2.5861   -0.8832   -1.1903 H   0  0  0  0  0  0  0  0  0  0  0  0
  1  2  3  0  0  0  0
  3  2  1  0  0  0  0
  3  4  1  0  0  0  0
  3 26  1  6  0  0  0
  4  5  1  0  0  0  0
  4 27  1  1  0  0  0
  5  6  1  0  0  0  0
  5 11  1  0  0  0  0
  5 28  1  6  0  0  0
  6  7  1  0  0  0  0
  6 29  1  0  0  0  0
  6 30  1  0  0  0  0
  7  8  1  0  0  0  0
  7 31  1  0  0  0  0
  7 32  1  0  0  0  0
  8  9  1  0  0  0  0
  8 10  1  1  0  0  0
  8  3  1  0  0  0  0
  9 33  1  0  0  0  0
  9 34  1  0  0  0  0
  9 35  1  0  0  0  0
 10 36  1  0  0  0  0
 11 12  2  0  0  0  0
 11 13  1  0  0  0  0
 12 37  1  0  0  0  0
 12 38  1  0  0  0  0
 13 14  1  0  0  0  0
 13 39  1  0  0  0  0
 13 40  1  0  0  0  0
 14 41  1  0  0  0  0
 14 42  1  0  0  0  0
 15 14  1  0  0  0  0
 15 16  1  0  0  0  0
 15  4  1  0  0  0  0
 15 43  1  6  0  0  0
 16 17  1  1  0  0  0
 16 18  1  0  0  0  0
 17 44  1  0  0  0  0
 17 45  1  0  0  0  0
 17 46  1  0  0  0  0
 18 19  1  0  0  0  0
 18 47  1  0  0  0  0
 18 48  1  0  0  0  0
 19 20  1  0  0  0  0
 19 49  1  0  0  0  0
 19 50  1  0  0  0  0
 20 21  1  0  0  0  0
 20 22  1  0  0  0  0
 20 51  1  6  0  0  0
 22 23  1  0  0  0  0
 22 24  1  0  0  0  0
 22 25  1  0  0  0  0
 23 52  1  0  0  0  0
 23 53  1  0  0  0  0
 23 54  1  0  0  0  0
 24 55  1  0  0  0  0
 24 56  1  0  0  0  0
 24 57  1  0  0  0  0
 25 16  1  0  0  0  0
M  CHG  2   1  -1   2   1
M  END
>  <IDENTIFIER>
CNP0502900.1

>  <Energy>
681.465

$$$$
