
 OpenBabel09052505083D

154163  0  0  0  0  0  0  0  0999 V2000
   15.8218    1.3649   -1.1423 C   0  0  0  0  0  0  0  0  0  0  0  0
   14.6882    0.6383   -0.4106 C   0  0  2  0  0  0  0  0  0  0  0  0
   13.5561    0.2330   -1.3886 C   0  0  0  0  0  0  0  0  0  0  0  0
   12.2989    1.0432   -1.1027 C   0  0  0  0  0  0  0  0  0  0  0  0
   11.8857    0.8362    0.3983 C   0  0  1  0  0  0  0  0  0  0  0  0
   12.9802    0.9921    1.3240 O   0  0  0  0  0  0  0  0  0  0  0  0
   14.1507    1.5314    0.7408 C   0  0  0  0  0  0  0  0  0  0  0  0
   10.9066    1.8027    0.7274 O   0  0  0  0  0  0  0  0  0  0  0  0
   10.0299    1.2020    1.6595 C   0  0  1  0  0  0  0  0  0  0  0  0
    8.6136    1.8372    1.5555 C   0  0  0  0  0  0  0  0  0  0  0  0
    7.6953    0.6668    1.1885 C   0  0  1  0  0  0  0  0  0  0  0  0
    6.3375    0.9804    0.5191 C   0  0  2  0  0  0  0  0  0  0  0  0
    5.4257    1.7724    1.4770 C   0  0  0  0  0  0  0  0  0  0  0  0
    4.0307    1.9332    0.9342 C   0  0  0  0  0  0  0  0  0  0  0  0
    3.5383    1.1940   -0.0848 C   0  0  0  0  0  0  0  0  0  0  0  0
    2.1674    1.5118   -0.6429 C   0  0  0  0  0  0  0  0  0  0  0  0
    1.2697    0.2682   -0.6895 C   0  0  1  0  0  0  0  0  0  0  0  0
    0.1303    0.6400   -1.4410 O   0  0  0  0  0  0  0  0  0  0  0  0
   -1.0880    0.0907   -0.9887 C   0  0  2  0  0  0  0  0  0  0  0  0
   -1.4538   -0.9876   -1.8289 O   0  0  0  0  0  0  0  0  0  0  0  0
   -2.6219   -1.6757   -1.3567 C   0  0  2  0  0  0  0  0  0  0  0  0
   -3.2263   -2.4404   -2.5539 C   0  0  0  0  0  0  0  0  0  0  0  0
   -2.2893   -3.3441   -3.0759 O   0  0  0  0  0  0  0  0  0  0  0  0
   -3.6597   -0.7241   -0.6501 C   0  0  2  0  0  0  0  0  0  0  0  0
   -4.9873   -1.2150   -0.7639 O   0  0  0  0  0  0  0  0  0  0  0  0
   -5.6361   -1.4197    0.4811 C   0  0  2  0  0  0  0  0  0  0  0  0
   -5.6476   -2.8268    0.7231 O   0  0  0  0  0  0  0  0  0  0  0  0
   -6.6046   -3.2937    1.6782 C   0  0  2  0  0  0  0  0  0  0  0  0
   -7.6474   -4.1770    0.9727 C   0  0  0  0  0  0  0  0  0  0  0  0
   -7.0244   -5.2813    0.3735 O   0  0  0  0  0  0  0  0  0  0  0  0
   -7.2481   -2.1749    2.5298 C   0  0  1  0  0  0  0  0  0  0  0  0
   -6.2322   -1.5824    3.3032 O   0  0  0  0  0  0  0  0  0  0  0  0
   -7.9150   -1.1095    1.6269 C   0  0  2  0  0  0  0  0  0  0  0  0
   -9.1947   -1.5641    1.1971 O   0  0  0  0  0  0  0  0  0  0  0  0
  -10.2529   -0.9662    1.9228 C   0  0  2  0  0  0  0  0  0  0  0  0
  -10.2878   -1.4985    3.2553 O   0  0  0  0  0  0  0  0  0  0  0  0
  -11.5889   -1.8223    3.7423 C   0  0  0  0  0  0  0  0  0  0  0  0
  -12.6306   -0.7303    3.4196 C   0  0  1  0  0  0  0  0  0  0  0  0
  -12.3023    0.4648    4.0911 O   0  0  0  0  0  0  0  0  0  0  0  0
  -12.7337   -0.5017    1.8850 C   0  0  2  0  0  0  0  0  0  0  0  0
  -13.9656   -0.9388    1.3700 O   0  0  0  0  0  0  0  0  0  0  0  0
  -11.5649   -1.1876    1.1346 C   0  0  1  0  0  0  0  0  0  0  0  0
  -11.4656   -0.7614   -0.2020 O   0  0  0  0  0  0  0  0  0  0  0  0
   -7.0540   -0.8135    0.3654 C   0  0  1  0  0  0  0  0  0  0  0  0
   -6.9340    0.5958    0.1846 O   0  0  0  0  0  0  0  0  0  0  0  0
   -7.7275    1.1262   -0.8668 C   0  0  2  0  0  0  0  0  0  0  0  0
   -6.8605    1.4809   -1.9399 O   0  0  0  0  0  0  0  0  0  0  0  0
   -7.5698    2.0317   -3.0463 C   0  0  2  0  0  0  0  0  0  0  0  0
   -6.5608    2.3740   -4.1530 C   0  0  0  0  0  0  0  0  0  0  0  0
   -5.8830    1.2185   -4.5583 O   0  0  0  0  0  0  0  0  0  0  0  0
   -8.3299    3.3243   -2.6417 C   0  0  1  0  0  0  0  0  0  0  0  0
   -9.0507    3.8637   -3.7226 O   0  0  0  0  0  0  0  0  0  0  0  0
   -9.2620    3.0291   -1.4632 C   0  0  2  0  0  0  0  0  0  0  0  0
   -9.9209    4.1923   -1.0284 O   0  0  0  0  0  0  0  0  0  0  0  0
   -8.4330    2.3916   -0.3305 C   0  0  1  0  0  0  0  0  0  0  0  0
   -9.2251    2.0998    0.7900 O   0  0  0  0  0  0  0  0  0  0  0  0
   -3.5788    0.6725   -1.2695 C   0  0  2  0  0  0  0  0  0  0  0  0
   -3.9384    0.6113   -2.6318 O   0  0  0  0  0  0  0  0  0  0  0  0
   -2.1410    1.2285   -1.0678 C   0  0  1  0  0  0  0  0  0  0  0  0
   -2.0437    2.0363    0.0801 O   0  0  0  0  0  0  0  0  0  0  0  0
    1.9893   -0.9072   -1.3984 C   0  0  2  0  0  0  0  0  0  0  0  0
    1.1893   -2.0628   -1.3894 O   0  0  0  0  0  0  0  0  0  0  0  0
    3.3628   -1.2020   -0.7505 C   0  0  0  0  0  0  0  0  0  0  0  0
    4.3111    0.0363   -0.7345 C   0  0  1  0  0  0  0  0  0  0  0  0
    4.6718    0.4614   -2.1933 C   0  0  0  0  0  0  0  0  0  0  0  0
    5.6047   -0.3291    0.1059 C   0  0  1  0  0  0  0  0  0  0  0  0
    6.5290   -1.3747   -0.6092 C   0  0  0  0  0  0  0  0  0  0  0  0
    7.8685   -1.5753    0.1246 C   0  0  0  0  0  0  0  0  0  0  0  0
    8.5964   -0.2156    0.3172 C   0  0  1  0  0  0  0  0  0  0  0  0
    8.8911    0.4224   -1.0914 C   0  0  0  0  0  0  0  0  0  0  0  0
    9.8736   -0.2627    1.2419 C   0  0  2  0  0  0  0  0  0  0  0  0
    9.6203   -1.0223    2.4077 O   0  0  0  0  0  0  0  0  0  0  0  0
   11.2383   -0.5797    0.5963 C   0  0  2  0  0  0  0  0  0  0  0  0
   12.1323   -1.5382    1.4197 C   0  0  0  0  0  0  0  0  0  0  0  0
   16.2379    0.7144   -1.9405 H   0  0  0  0  0  0  0  0  0  0  0  0
   16.6413    1.6118   -0.4335 H   0  0  0  0  0  0  0  0  0  0  0  0
   15.4495    2.3046   -1.6061 H   0  0  0  0  0  0  0  0  0  0  0  0
   15.1109   -0.2989    0.0152 H   0  0  0  0  0  0  0  0  0  0  0  0
   13.3069   -0.8375   -1.2352 H   0  0  0  0  0  0  0  0  0  0  0  0
   13.8681    0.3239   -2.4512 H   0  0  0  0  0  0  0  0  0  0  0  0
   11.4939    0.7673   -1.8059 H   0  0  0  0  0  0  0  0  0  0  0  0
   12.5243    2.1145   -1.2959 H   0  0  0  0  0  0  0  0  0  0  0  0
   14.9361    1.6361    1.5187 H   0  0  0  0  0  0  0  0  0  0  0  0
   13.9328    2.5660    0.3913 H   0  0  0  0  0  0  0  0  0  0  0  0
   10.4739    1.2969    2.6763 H   0  0  0  0  0  0  0  0  0  0  0  0
    8.6135    2.5674    0.7171 H   0  0  0  0  0  0  0  0  0  0  0  0
    8.2875    2.3773    2.4686 H   0  0  0  0  0  0  0  0  0  0  0  0
    7.4816    0.1133    2.1349 H   0  0  0  0  0  0  0  0  0  0  0  0
    6.5249    1.5987   -0.3784 H   0  0  0  0  0  0  0  0  0  0  0  0
    5.8780    2.7770    1.6173 H   0  0  0  0  0  0  0  0  0  0  0  0
    5.3423    1.2876    2.4744 H   0  0  0  0  0  0  0  0  0  0  0  0
    3.4156    2.7069    1.3854 H   0  0  0  0  0  0  0  0  0  0  0  0
    2.2963    1.8895   -1.6774 H   0  0  0  0  0  0  0  0  0  0  0  0
    1.6577    2.3226   -0.0766 H   0  0  0  0  0  0  0  0  0  0  0  0
    1.0530   -0.0057    0.3701 H   0  0  0  0  0  0  0  0  0  0  0  0
   -1.0356   -0.2906    0.0606 H   0  0  0  0  0  0  0  0  0  0  0  0
   -2.3309   -2.4650   -0.6280 H   0  0  0  0  0  0  0  0  0  0  0  0
   -3.5884   -1.7648   -3.3565 H   0  0  0  0  0  0  0  0  0  0  0  0
   -4.1056   -3.0308   -2.2197 H   0  0  0  0  0  0  0  0  0  0  0  0
   -1.7079   -2.8316   -3.6963 H   0  0  0  0  0  0  0  0  0  0  0  0
   -3.3126   -0.6059    0.4017 H   0  0  0  0  0  0  0  0  0  0  0  0
   -5.1299   -0.9018    1.3227 H   0  0  0  0  0  0  0  0  0  0  0  0
   -6.0680   -3.9519    2.3974 H   0  0  0  0  0  0  0  0  0  0  0  0
   -8.2295   -3.6128    0.2136 H   0  0  0  0  0  0  0  0  0  0  0  0
   -8.3728   -4.5611    1.7224 H   0  0  0  0  0  0  0  0  0  0  0  0
   -6.6732   -4.9718   -0.5025 H   0  0  0  0  0  0  0  0  0  0  0  0
   -7.9874   -2.6183    3.2359 H   0  0  0  0  0  0  0  0  0  0  0  0
   -6.6760   -1.0849    4.0395 H   0  0  0  0  0  0  0  0  0  0  0  0
   -7.9760   -0.1845    2.2505 H   0  0  0  0  0  0  0  0  0  0  0  0
  -10.1125    0.1289    1.9851 H   0  0  0  0  0  0  0  0  0  0  0  0
  -11.5343   -1.9381    4.8458 H   0  0  0  0  0  0  0  0  0  0  0  0
  -11.9082   -2.8050    3.3329 H   0  0  0  0  0  0  0  0  0  0  0  0
  -13.6215   -1.0422    3.8147 H   0  0  0  0  0  0  0  0  0  0  0  0
  -11.4106    0.7680    3.7819 H   0  0  0  0  0  0  0  0  0  0  0  0
  -12.6871    0.5991    1.7207 H   0  0  0  0  0  0  0  0  0  0  0  0
  -14.0467   -1.9077    1.5776 H   0  0  0  0  0  0  0  0  0  0  0  0
  -11.7397   -2.2855    1.1111 H   0  0  0  0  0  0  0  0  0  0  0  0
  -11.5631    0.2237   -0.2257 H   0  0  0  0  0  0  0  0  0  0  0  0
   -7.4888   -1.3487   -0.5126 H   0  0  0  0  0  0  0  0  0  0  0  0
   -8.5100    0.4083   -1.2143 H   0  0  0  0  0  0  0  0  0  0  0  0
   -8.2808    1.2736   -3.4489 H   0  0  0  0  0  0  0  0  0  0  0  0
   -5.8349    3.1222   -3.7563 H   0  0  0  0  0  0  0  0  0  0  0  0
   -7.0915    2.8057   -5.0306 H   0  0  0  0  0  0  0  0  0  0  0  0
   -5.1191    1.5305   -5.1111 H   0  0  0  0  0  0  0  0  0  0  0  0
   -7.5831    4.0811   -2.3115 H   0  0  0  0  0  0  0  0  0  0  0  0
   -9.6922    3.1710   -4.0304 H   0  0  0  0  0  0  0  0  0  0  0  0
  -10.0360    2.3004   -1.7949 H   0  0  0  0  0  0  0  0  0  0  0  0
   -9.2329    4.8266   -0.7006 H   0  0  0  0  0  0  0  0  0  0  0  0
   -7.6557    3.1186   -0.0055 H   0  0  0  0  0  0  0  0  0  0  0  0
  -10.0954    1.7577    0.4665 H   0  0  0  0  0  0  0  0  0  0  0  0
   -4.2937    1.3774   -0.7925 H   0  0  0  0  0  0  0  0  0  0  0  0
   -3.1297    0.4620   -3.1867 H   0  0  0  0  0  0  0  0  0  0  0  0
   -1.9446    1.8958   -1.9367 H   0  0  0  0  0  0  0  0  0  0  0  0
   -2.3643    1.5051    0.8544 H   0  0  0  0  0  0  0  0  0  0  0  0
    2.1479   -0.6349   -2.4613 H   0  0  0  0  0  0  0  0  0  0  0  0
    1.0251   -2.3081   -0.4411 H   0  0  0  0  0  0  0  0  0  0  0  0
    3.8375   -2.0481   -1.2906 H   0  0  0  0  0  0  0  0  0  0  0  0
    3.1781   -1.5266    0.2985 H   0  0  0  0  0  0  0  0  0  0  0  0
    5.1241   -0.3690   -2.7673 H   0  0  0  0  0  0  0  0  0  0  0  0
    5.3607    1.3282   -2.2087 H   0  0  0  0  0  0  0  0  0  0  0  0
    3.7936    0.7640   -2.7900 H   0  0  0  0  0  0  0  0  0  0  0  0
    5.3039   -0.8036    1.0692 H   0  0  0  0  0  0  0  0  0  0  0  0
    6.7697   -1.0758   -1.6390 H   0  0  0  0  0  0  0  0  0  0  0  0
    6.0114   -2.3528   -0.6894 H   0  0  0  0  0  0  0  0  0  0  0  0
    8.5111   -2.2856   -0.4392 H   0  0  0  0  0  0  0  0  0  0  0  0
    7.6308   -2.0345    1.1073 H   0  0  0  0  0  0  0  0  0  0  0  0
    9.5018   -0.2677   -1.7049 H   0  0  0  0  0  0  0  0  0  0  0  0
    9.3931    1.4025   -1.0446 H   0  0  0  0  0  0  0  0  0  0  0  0
    7.9884    0.6290   -1.6892 H   0  0  0  0  0  0  0  0  0  0  0  0
    9.5836   -1.9768    2.1484 H   0  0  0  0  0  0  0  0  0  0  0  0
   11.0514   -1.1055   -0.3608 H   0  0  0  0  0  0  0  0  0  0  0  0
   12.3147   -1.1401    2.4410 H   0  0  0  0  0  0  0  0  0  0  0  0
   13.1090   -1.6882    0.9167 H   0  0  0  0  0  0  0  0  0  0  0  0
   11.6582   -2.5375    1.5089 H   0  0  0  0  0  0  0  0  0  0  0  0
  1 75  1  0  0  0  0
  1 76  1  0  0  0  0
  1 77  1  0  0  0  0
  2  1  1  0  0  0  0
  2  3  1  0  0  0  0
  2 78  1  1  0  0  0
  3  4  1  0  0  0  0
  3 79  1  0  0  0  0
  3 80  1  0  0  0  0
  4 81  1  0  0  0  0
  4 82  1  0  0  0  0
  5  4  1  0  0  0  0
  5  6  1  1  0  0  0
  5  8  1  0  0  0  0
  6  7  1  0  0  0  0
  7  2  1  0  0  0  0
  7 83  1  0  0  0  0
  7 84  1  0  0  0  0
  8  9  1  0  0  0  0
  9 10  1  0  0  0  0
  9 85  1  1  0  0  0
 10 86  1  0  0  0  0
 10 87  1  0  0  0  0
 11 10  1  0  0  0  0
 11 12  1  0  0  0  0
 11 88  1  1  0  0  0
 12 13  1  0  0  0  0
 12 89  1  6  0  0  0
 13 14  1  0  0  0  0
 13 90  1  0  0  0  0
 13 91  1  0  0  0  0
 14 15  2  0  0  0  0
 14 92  1  0  0  0  0
 15 16  1  0  0  0  0
 16 17  1  0  0  0  0
 16 93  1  0  0  0  0
 16 94  1  0  0  0  0
 17 18  1  0  0  0  0
 17 61  1  0  0  0  0
 17 95  1  1  0  0  0
 19 18  1  0  0  0  0
 19 20  1  0  0  0  0
 19 96  1  1  0  0  0
 20 21  1  0  0  0  0
 21 22  1  0  0  0  0
 21 24  1  0  0  0  0
 21 97  1  1  0  0  0
 22 23  1  0  0  0  0
 22 98  1  0  0  0  0
 22 99  1  0  0  0  0
 23100  1  0  0  0  0
 24 25  1  0  0  0  0
 24 57  1  0  0  0  0
 24101  1  1  0  0  0
 26 25  1  0  0  0  0
 26 27  1  0  0  0  0
 26102  1  1  0  0  0
 27 28  1  0  0  0  0
 28 29  1  0  0  0  0
 28 31  1  0  0  0  0
 28103  1  1  0  0  0
 29 30  1  0  0  0  0
 29104  1  0  0  0  0
 29105  1  0  0  0  0
 30106  1  0  0  0  0
 31 32  1  0  0  0  0
 31 33  1  0  0  0  0
 31107  1  1  0  0  0
 32108  1  0  0  0  0
 33 34  1  0  0  0  0
 33 44  1  0  0  0  0
 33109  1  1  0  0  0
 35 34  1  0  0  0  0
 35 36  1  0  0  0  0
 35110  1  1  0  0  0
 36 37  1  0  0  0  0
 37 38  1  0  0  0  0
 37111  1  0  0  0  0
 37112  1  0  0  0  0
 38 39  1  0  0  0  0
 38 40  1  0  0  0  0
 38113  1  1  0  0  0
 39114  1  0  0  0  0
 40 41  1  0  0  0  0
 40 42  1  0  0  0  0
 40115  1  6  0  0  0
 41116  1  0  0  0  0
 42 43  1  0  0  0  0
 42 35  1  0  0  0  0
 42117  1  6  0  0  0
 43118  1  0  0  0  0
 44 45  1  0  0  0  0
 44 26  1  0  0  0  0
 44119  1  6  0  0  0
 46 45  1  0  0  0  0
 46 47  1  0  0  0  0
 46120  1  6  0  0  0
 47 48  1  0  0  0  0
 48 49  1  0  0  0  0
 48 51  1  0  0  0  0
 48121  1  6  0  0  0
 49 50  1  0  0  0  0
 49122  1  0  0  0  0
 49123  1  0  0  0  0
 50124  1  0  0  0  0
 51 52  1  0  0  0  0
 51 53  1  0  0  0  0
 51125  1  1  0  0  0
 52126  1  0  0  0  0
 53 54  1  0  0  0  0
 53 55  1  0  0  0  0
 53127  1  6  0  0  0
 54128  1  0  0  0  0
 55 56  1  0  0  0  0
 55 46  1  0  0  0  0
 55129  1  1  0  0  0
 56130  1  0  0  0  0
 57 58  1  0  0  0  0
 57 59  1  0  0  0  0
 57131  1  1  0  0  0
 58132  1  0  0  0  0
 59 60  1  0  0  0  0
 59 19  1  0  0  0  0
 59133  1  6  0  0  0
 60134  1  0  0  0  0
 61 62  1  0  0  0  0
 61 63  1  0  0  0  0
 61135  1  6  0  0  0
 62136  1  0  0  0  0
 63 64  1  0  0  0  0
 63137  1  0  0  0  0
 63138  1  0  0  0  0
 64 65  1  6  0  0  0
 64 66  1  0  0  0  0
 64 15  1  0  0  0  0
 65139  1  0  0  0  0
 65140  1  0  0  0  0
 65141  1  0  0  0  0
 66 67  1  0  0  0  0
 66 12  1  0  0  0  0
 66142  1  1  0  0  0
 67 68  1  0  0  0  0
 67143  1  0  0  0  0
 67144  1  0  0  0  0
 68 69  1  0  0  0  0
 68145  1  0  0  0  0
 68146  1  0  0  0  0
 69 70  1  6  0  0  0
 69 71  1  0  0  0  0
 69 11  1  0  0  0  0
 70147  1  0  0  0  0
 70148  1  0  0  0  0
 70149  1  0  0  0  0
 71 72  1  1  0  0  0
 71 73  1  0  0  0  0
 71  9  1  0  0  0  0
 72150  1  0  0  0  0
 73 74  1  0  0  0  0
 73  5  1  0  0  0  0
 73151  1  6  0  0  0
 74152  1  0  0  0  0
 74153  1  0  0  0  0
 74154  1  0  0  0  0
M  END
>  <IDENTIFIER>
CNP0208449.1

>  <Energy>
2229.11

$$$$
