
 OpenBabel09062510223D

 69 71  0  0  0  0  0  0  0  0999 V2000
   -5.9250   -2.9802    0.1135 C   0  0  0  0  0  0  0  0  0  0  0  0
   -5.4731   -1.5656   -0.2749 C   0  0  2  0  0  0  0  0  0  0  0  0
   -4.0222   -1.5814   -0.4789 N   0  0  0  0  0  0  0  0  0  0  0  0
   -3.3741   -0.2802   -0.7760 C   0  0  2  0  0  0  0  0  0  0  0  0
   -1.8323   -0.5629   -0.6666 C   0  0  1  0  0  0  0  0  0  0  0  0
   -0.8535    0.6154   -0.9329 C   0  0  0  0  0  0  0  0  0  0  0  0
    0.5914    0.0797   -0.8612 C   0  0  0  0  0  0  0  0  0  0  0  0
    0.9476   -0.5637    0.5174 C   0  0  2  0  0  0  0  0  0  0  0  0
    1.6545   -1.9384    0.3402 C   0  0  0  0  0  0  0  0  0  0  0  0
    2.9853   -1.9357   -0.4421 C   0  0  0  0  0  0  0  0  0  0  0  0
    4.2631   -1.5632    0.3387 C   0  0  0  0  0  0  0  0  0  0  0  0
    4.3201   -0.1307    0.8797 C   0  0  0  0  0  0  0  0  0  0  0  0
    5.6512    0.2347    1.5716 C   0  0  0  0  0  0  0  0  0  0  0  0
    6.9174    0.2676    0.6804 C   0  0  1  0  0  0  0  0  0  0  0  0
    7.2811   -1.0494    0.3265 O   0  0  0  0  0  0  0  0  0  0  0  0
    6.8129    1.2050   -0.5582 C   0  0  0  0  0  0  0  0  0  0  0  0
    6.5673    2.6549   -0.2105 C   0  0  0  0  0  0  0  0  0  0  0  0
    5.5212    2.9931    0.3193 O   0  0  0  0  0  0  0  0  0  0  0  0
    7.4820    3.6008   -0.5143 O   0  0  0  0  0  0  0  0  0  0  0  0
   -0.3008   -0.7103    1.4112 C   0  0  0  0  0  0  0  0  0  0  0  0
   -1.4842   -1.3218    0.6654 C   0  0  0  0  0  0  0  0  0  0  0  0
   -3.8463    0.8574    0.2058 C   0  0  1  0  0  0  0  0  0  0  0  0
   -3.5071    2.2239   -0.2488 N   0  0  0  0  0  0  0  0  0  0  0  0
   -3.1251    2.6597   -1.4697 C   0  0  0  0  0  0  0  0  0  0  0  0
   -2.9701    4.0264   -1.4108 C   0  0  0  0  0  0  0  0  0  0  0  0
   -3.2622    4.4529   -0.1679 N   0  0  0  0  0  0  0  0  0  0  0  0
   -3.5908    3.3361    0.5121 C   0  0  0  0  0  0  0  0  0  0  0  0
   -5.3674    0.8258    0.4220 C   0  0  0  0  0  0  0  0  0  0  0  0
   -5.8289   -0.5667    0.8406 C   0  0  1  0  0  0  0  0  0  0  0  0
   -7.2084   -0.5628    1.1130 O   0  0  0  0  0  0  0  0  0  0  0  0
   -5.6738   -3.6954   -0.6977 H   0  0  0  0  0  0  0  0  0  0  0  0
   -7.0228   -3.0142    0.2758 H   0  0  0  0  0  0  0  0  0  0  0  0
   -5.4117   -3.3071    1.0440 H   0  0  0  0  0  0  0  0  0  0  0  0
   -5.9846   -1.2751   -1.2211 H   0  0  0  0  0  0  0  0  0  0  0  0
   -3.7927   -2.2545   -1.2486 H   0  0  0  0  0  0  0  0  0  0  0  0
   -3.6603    0.0063   -1.8099 H   0  0  0  0  0  0  0  0  0  0  0  0
   -1.6134   -1.2909   -1.4822 H   0  0  0  0  0  0  0  0  0  0  0  0
   -0.9828    1.4313   -0.1919 H   0  0  0  0  0  0  0  0  0  0  0  0
   -1.0171    1.0239   -1.9504 H   0  0  0  0  0  0  0  0  0  0  0  0
    1.3398    0.8606   -1.1173 H   0  0  0  0  0  0  0  0  0  0  0  0
    0.6523   -0.6887   -1.6629 H   0  0  0  0  0  0  0  0  0  0  0  0
    1.5777    0.1379    1.0833 H   0  0  0  0  0  0  0  0  0  0  0  0
    0.9488   -2.5776   -0.2345 H   0  0  0  0  0  0  0  0  0  0  0  0
    1.8203   -2.4384    1.3192 H   0  0  0  0  0  0  0  0  0  0  0  0
    2.8969   -1.3322   -1.3694 H   0  0  0  0  0  0  0  0  0  0  0  0
    3.1556   -2.9881   -0.7616 H   0  0  0  0  0  0  0  0  0  0  0  0
    5.0870   -1.7101   -0.3829 H   0  0  0  0  0  0  0  0  0  0  0  0
    4.4050   -2.2747    1.1818 H   0  0  0  0  0  0  0  0  0  0  0  0
    3.5549   -0.0321    1.6685 H   0  0  0  0  0  0  0  0  0  0  0  0
    4.1026    0.5930    0.0667 H   0  0  0  0  0  0  0  0  0  0  0  0
    5.8286   -0.4636    2.4190 H   0  0  0  0  0  0  0  0  0  0  0  0
    5.5187    1.2393    2.0232 H   0  0  0  0  0  0  0  0  0  0  0  0
    7.7483    0.6577    1.3084 H   0  0  0  0  0  0  0  0  0  0  0  0
    7.3220   -1.1423   -0.6606 H   0  0  0  0  0  0  0  0  0  0  0  0
    6.0162    0.8540   -1.2478 H   0  0  0  0  0  0  0  0  0  0  0  0
    7.7775    1.1372   -1.1066 H   0  0  0  0  0  0  0  0  0  0  0  0
    8.3213    3.3838   -0.9431 H   0  0  0  0  0  0  0  0  0  0  0  0
   -0.6196    0.3028    1.7424 H   0  0  0  0  0  0  0  0  0  0  0  0
   -0.0690   -1.2806    2.3371 H   0  0  0  0  0  0  0  0  0  0  0  0
   -2.3341   -1.3206    1.3798 H   0  0  0  0  0  0  0  0  0  0  0  0
   -1.2892   -2.3910    0.4331 H   0  0  0  0  0  0  0  0  0  0  0  0
   -3.3657    0.6704    1.1889 H   0  0  0  0  0  0  0  0  0  0  0  0
   -2.9836    2.0544   -2.3513 H   0  0  0  0  0  0  0  0  0  0  0  0
   -2.6779    4.6728   -2.2282 H   0  0  0  0  0  0  0  0  0  0  0  0
   -3.8927    3.3394    1.5518 H   0  0  0  0  0  0  0  0  0  0  0  0
   -5.8840    1.1142   -0.5214 H   0  0  0  0  0  0  0  0  0  0  0  0
   -5.6478    1.5581    1.2098 H   0  0  0  0  0  0  0  0  0  0  0  0
   -5.2998   -0.8537    1.7783 H   0  0  0  0  0  0  0  0  0  0  0  0
   -7.6815   -0.3264    0.2738 H   0  0  0  0  0  0  0  0  0  0  0  0
  1 31  1  0  0  0  0
  1 32  1  0  0  0  0
  1 33  1  0  0  0  0
  2  1  1  0  0  0  0
  2  3  1  0  0  0  0
  2 34  1  6  0  0  0
  3 35  1  0  0  0  0
  4  3  1  0  0  0  0
  4  5  1  0  0  0  0
  4 22  1  0  0  0  0
  4 36  1  6  0  0  0
  5  6  1  0  0  0  0
  5 37  1  6  0  0  0
  6  7  1  0  0  0  0
  6 38  1  0  0  0  0
  6 39  1  0  0  0  0
  7  8  1  0  0  0  0
  7 40  1  0  0  0  0
  7 41  1  0  0  0  0
  8  9  1  0  0  0  0
  8 20  1  0  0  0  0
  8 42  1  1  0  0  0
  9 10  1  0  0  0  0
  9 43  1  0  0  0  0
  9 44  1  0  0  0  0
 10 11  1  0  0  0  0
 10 45  1  0  0  0  0
 10 46  1  0  0  0  0
 11 12  1  0  0  0  0
 11 47  1  0  0  0  0
 11 48  1  0  0  0  0
 12 13  1  0  0  0  0
 12 49  1  0  0  0  0
 12 50  1  0  0  0  0
 13 14  1  0  0  0  0
 13 51  1  0  0  0  0
 13 52  1  0  0  0  0
 14 15  1  0  0  0  0
 14 16  1  0  0  0  0
 14 53  1  1  0  0  0
 15 54  1  0  0  0  0
 16 17  1  0  0  0  0
 16 55  1  0  0  0  0
 16 56  1  0  0  0  0
 17 18  2  0  0  0  0
 17 19  1  0  0  0  0
 19 57  1  0  0  0  0
 20 21  1  0  0  0  0
 20 58  1  0  0  0  0
 20 59  1  0  0  0  0
 21  5  1  0  0  0  0
 21 60  1  0  0  0  0
 21 61  1  0  0  0  0
 22 23  1  0  0  0  0
 22 28  1  0  0  0  0
 22 62  1  1  0  0  0
 23 24  1  0  0  0  0
 24 25  2  0  0  0  0
 24 63  1  0  0  0  0
 25 26  1  0  0  0  0
 25 64  1  0  0  0  0
 26 27  2  0  0  0  0
 27 23  1  0  0  0  0
 27 65  1  0  0  0  0
 28 29  1  0  0  0  0
 28 66  1  0  0  0  0
 28 67  1  0  0  0  0
 29 30  1  0  0  0  0
 29  2  1  0  0  0  0
 29 68  1  1  0  0  0
 30 69  1  0  0  0  0
M  END
>  <IDENTIFIER>
CNP0540231.1

>  <Energy>
699.908

$$$$
