
 OpenBabel09042519132D

169168  0  0  0  0  0  0  0  0999 V2000
   24.6817   14.2500    0.0000 C   0  0  0  0  0  0  0  0  0  0  0  0
   23.3827   13.5000    0.0000 C   0  0  0  0  0  0  0  0  0  0  0  0
   22.0836   12.7500    0.0000 C   0  0  0  0  0  0  0  0  0  0  0  0
   20.7846   12.0000    0.0000 C   0  0  0  0  0  2  0  0  0  0  0  0
   19.4856   11.2500    0.0000 C   0  0  0  0  0  0  0  0  0  0  0  0
   18.1865   10.5000    0.0000 C   0  0  0  0  0  0  0  0  0  0  0  0
   16.8875    9.7500    0.0000 C   0  0  0  0  0  2  0  0  0  0  0  0
   15.5885    9.0000    0.0000 C   0  0  0  0  0  0  0  0  0  0  0  0
   13.9522    8.6396   -0.1342 C   0  0  0  0  0  0  0  0  0  0  0  0
   13.3325    7.0792    0.1418 C   0  0  0  0  0  0  0  0  0  0  0  0
   11.6913    6.7500    0.0000 C   0  0  0  0  0  0  0  0  0  0  0  0
   10.3923    6.0000    0.0000 C   0  0  0  0  0  0  0  0  0  0  0  0
    9.0933    5.2500    0.0000 C   0  0  0  0  0  0  0  0  0  0  0  0
    7.7942    4.5000    0.0000 C   0  0  0  0  0  0  0  0  0  0  0  0
    6.4952    3.7500    0.0000 C   0  0  0  0  0  0  0  0  0  0  0  0
    5.1962    3.0000    0.0000 C   0  0  0  0  0  0  0  0  0  0  0  0
    3.5450    2.9594   -0.2719 C   0  0  0  0  0  0  0  0  0  0  0  0
    2.7047    1.5162   -0.0061 C   0  0  0  0  0  0  0  0  0  0  0  0
    1.0575    1.2609   -0.2516 C   0  0  0  0  0  0  0  0  0  0  0  0
    0.3294   -0.1905    0.0501 C   0  0  0  0  0  0  0  0  0  0  0  0
    1.0670   -1.0629    0.4781 O   0  0  0  0  0  0  0  0  0  0  0  0
   -1.0677   -0.5417   -0.1401 O   0  0  0  0  0  0  0  0  0  0  0  0
   -1.6990   -1.8456    0.1483 C   0  0  0  0  0  0  0  0  0  0  0  0
   -3.3141   -2.2378   -0.1633 C   0  0  2  0  0  0  0  0  0  0  0  0
   -3.6840   -3.8721    0.1192 C   0  0  0  0  0  0  0  0  0  0  0  0
   -4.9719   -4.5661   -0.1266 O   0  0  0  0  0  0  0  0  0  0  0  0
   -5.1962   -6.0000    0.0000 C   0  0  0  0  0  0  0  0  0  0  0  0
   -4.1839   -6.6745    0.1864 O   0  0  0  0  0  0  0  0  0  0  0  0
   -6.4952   -6.7500    0.0000 C   0  0  0  0  0  0  0  0  0  0  0  0
   -7.7942   -7.5000    0.0000 C   0  0  0  0  0  0  0  0  0  0  0  0
   -9.0933   -8.2500    0.0000 C   0  0  0  0  0  0  0  0  0  0  0  0
  -10.3923   -9.0000    0.0000 C   0  0  0  0  0  0  0  0  0  0  0  0
  -11.6913   -9.7500    0.0000 C   0  0  0  0  0  0  0  0  0  0  0  0
  -13.3154  -10.1148   -0.2295 C   0  0  0  0  0  0  0  0  0  0  0  0
  -14.0052  -11.5575    0.3571 C   0  0  0  0  0  0  0  0  0  0  0  0
  -15.5885  -12.0000    0.0000 C   0  0  0  0  0  0  0  0  0  0  0  0
  -16.8875  -12.7500    0.0000 C   0  0  0  0  0  0  0  0  0  0  0  0
  -18.1865  -13.5000    0.0000 C   0  0  0  0  0  0  0  0  0  0  0  0
  -16.1375  -14.0490    0.0000 C   0  0  0  0  0  0  0  0  0  0  0  0
   -4.1721   -1.3747    0.5649 O   0  0  0  0  0  0  0  0  0  0  0  0
   -4.9265   -0.3232    0.0599 C   0  0  0  0  0  0  0  0  0  0  0  0
   -4.8346   -0.0292   -1.1233 O   0  0  0  0  0  0  0  0  0  0  0  0
   -5.8625    0.5261    0.9695 C   0  0  0  0  0  0  0  0  0  0  0  0
   -6.5637    1.7530    0.2613 C   0  0  0  0  0  0  0  0  0  0  0  0
   -7.5209    2.6531    1.1494 C   0  0  0  0  0  0  0  0  0  0  0  0
   -8.0743    3.8906    0.3479 C   0  0  0  0  0  0  0  0  0  0  0  0
   -9.0415    4.9539    1.0433 C   0  0  0  0  0  0  0  0  0  0  0  0
   -9.3481    6.0933    0.0000 C   0  0  0  0  0  0  0  0  0  0  0  0
  -10.0981    7.3923    0.0000 C   0  0  0  0  0  0  0  0  0  0  0  0
  -10.8481    8.6913    0.0000 C   0  0  0  0  0  0  0  0  0  0  0  0
  -11.1648   10.3421    0.0006 C   0  0  0  0  0  0  0  0  0  0  0  0
  -12.7588   10.9436   -0.0722 C   0  0  0  0  0  0  0  0  0  0  0  0
  -13.0981   12.5885    0.0000 C   0  0  0  0  0  0  0  0  0  0  0  0
  -13.8481   13.8875    0.0000 C   0  0  0  0  0  0  0  0  0  0  0  0
  -14.5981   15.1865    0.0000 C   0  0  0  0  0  0  0  0  0  0  0  0
  -15.3481   16.4856    0.0000 C   0  0  0  0  0  0  0  0  0  0  0  0
  -16.0981   17.7846    0.0000 C   0  0  0  0  0  0  0  0  0  0  0  0
  -16.8481   19.0836    0.0000 C   0  0  0  0  0  0  0  0  0  0  0  0
  -16.6638   20.7408    0.1208 C   0  0  0  0  0  0  0  0  0  0  0  0
  -18.1117   21.5507    0.1752 C   0  0  0  0  0  0  0  0  0  0  0  0
  -19.0981   22.9808    0.0000 C   0  0  0  0  0  0  0  0  0  0  0  0
  -19.8481   24.2798    0.0000 C   0  0  0  0  0  0  0  0  0  0  0  0
  -20.3971   22.2308    0.0000 C   0  0  0  0  0  0  0  0  0  0  0  0
   25.4331   13.4152   -0.0951 H   0  0  0  0  0  0  0  0  0  0  0  0
   24.5133   14.8059   -0.9527 H   0  0  0  0  0  0  0  0  0  0  0  0
   25.6083   14.7850    0.0000 H   0  0  0  0  0  0  0  0  0  0  0  0
   23.7008   12.9632    0.9345 H   0  0  0  0  0  0  0  0  0  0  0  0
   23.6732   12.8883   -0.9060 H   0  0  0  0  0  0  0  0  0  0  0  0
   21.6961   13.3112   -0.8889 H   0  0  0  0  0  0  0  0  0  0  0  0
   21.6989   13.3101    0.8891 H   0  0  0  0  0  0  0  0  0  0  0  0
   19.8547   10.6945   -0.8960 H   0  0  0  0  0  0  0  0  0  0  0  0
   19.8547   10.6944    0.8959 H   0  0  0  0  0  0  0  0  0  0  0  0
   17.8174   11.0557   -0.8959 H   0  0  0  0  0  0  0  0  0  0  0  0
   17.8175   11.0556    0.8960 H   0  0  0  0  0  0  0  0  0  0  0  0
   15.7110    8.5920    1.0250 H   0  0  0  0  0  0  0  0  0  0  0  0
   15.9372    8.2007   -0.6867 H   0  0  0  0  0  0  0  0  0  0  0  0
   13.6483    8.9239   -1.1635 H   0  0  0  0  0  0  0  0  0  0  0  0
   13.4199    9.3197    0.5636 H   0  0  0  0  0  0  0  0  0  0  0  0
   13.8599    6.3949   -0.5555 H   0  0  0  0  0  0  0  0  0  0  0  0
   13.6305    6.7930    1.1723 H   0  0  0  0  0  0  0  0  0  0  0  0
   11.3790    7.5964    0.6621 H   0  0  0  0  0  0  0  0  0  0  0  0
   11.5962    7.1941   -1.0235 H   0  0  0  0  0  0  0  0  0  0  0  0
   10.9908    5.2586   -0.6240 H   0  0  0  0  0  0  0  0  0  0  0  0
   10.5161    5.7914    1.0976 H   0  0  0  0  0  0  0  0  0  0  0  0
    9.0413    5.3813   -1.1242 H   0  0  0  0  0  0  0  0  0  0  0  0
    9.5700    4.2293    0.1903 H   0  0  0  0  0  0  0  0  0  0  0  0
    7.3137    5.5162   -0.2035 H   0  0  0  0  0  0  0  0  0  0  0  0
    7.8425    4.3782    1.1247 H   0  0  0  0  0  0  0  0  0  0  0  0
    5.8892    4.4976    0.6067 H   0  0  0  0  0  0  0  0  0  0  0  0
    6.3868    3.9215   -1.1037 H   0  0  0  0  0  0  0  0  0  0  0  0
    5.2062    2.5745    1.0345 H   0  0  0  0  0  0  0  0  0  0  0  0
    5.4746    2.1143   -0.6221 H   0  0  0  0  0  0  0  0  0  0  0  0
    3.0796    3.7386    0.3668 H   0  0  0  0  0  0  0  0  0  0  0  0
    3.3788    3.2483   -1.3308 H   0  0  0  0  0  0  0  0  0  0  0  0
    3.2174    0.7526   -0.6279 H   0  0  0  0  0  0  0  0  0  0  0  0
    2.8953    1.2510    1.0549 H   0  0  0  0  0  0  0  0  0  0  0  0
    0.5249    2.0152    0.3633 H   0  0  0  0  0  0  0  0  0  0  0  0
    0.8609    1.4984   -1.3173 H   0  0  0  0  0  0  0  0  0  0  0  0
   -1.5345   -2.0576    1.2260 H   0  0  0  0  0  0  0  0  0  0  0  0
   -1.1115   -2.6019   -0.4135 H   0  0  0  0  0  0  0  0  0  0  0  0
   -3.4584   -2.0736   -1.2526 H   0  0  0  0  0  0  0  0  0  0  0  0
   -3.4281   -4.0536    1.1843 H   0  0  0  0  0  0  0  0  0  0  0  0
   -2.9243   -4.4199   -0.4779 H   0  0  0  0  0  0  0  0  0  0  0  0
   -6.0929   -7.4766   -0.7515 H   0  0  0  0  0  0  0  0  0  0  0  0
   -6.2538   -6.8844    1.1037 H   0  0  0  0  0  0  0  0  0  0  0  0
   -7.3811   -8.3677    0.6183 H   0  0  0  0  0  0  0  0  0  0  0  0
   -8.2235   -6.7398    0.7212 H   0  0  0  0  0  0  0  0  0  0  0  0
   -9.4703   -7.3994   -0.6630 H   0  0  0  0  0  0  0  0  0  0  0  0
   -8.6608   -9.0383   -0.6918 H   0  0  0  0  0  0  0  0  0  0  0  0
  -10.6072   -8.9056   -1.1161 H   0  0  0  0  0  0  0  0  0  0  0  0
  -10.8918   -8.1690    0.5679 H   0  0  0  0  0  0  0  0  0  0  0  0
  -11.3245  -10.6978   -0.4743 H   0  0  0  0  0  0  0  0  0  0  0  0
  -11.6923  -10.0159    1.0857 H   0  0  0  0  0  0  0  0  0  0  0  0
  -13.9064   -9.2841    0.2099 H   0  0  0  0  0  0  0  0  0  0  0  0
  -13.4857  -10.0929   -1.3266 H   0  0  0  0  0  0  0  0  0  0  0  0
  -13.9147  -11.5200    1.4628 H   0  0  0  0  0  0  0  0  0  0  0  0
  -13.3643  -12.3931    0.0048 H   0  0  0  0  0  0  0  0  0  0  0  0
  -15.4539  -11.9383   -1.1086 H   0  0  0  0  0  0  0  0  0  0  0  0
  -16.0051  -10.9843    0.2158 H   0  0  0  0  0  0  0  0  0  0  0  0
  -17.0490  -12.5071    1.0880 H   0  0  0  0  0  0  0  0  0  0  0  0
  -18.8546  -12.6122    0.1305 H   0  0  0  0  0  0  0  0  0  0  0  0
  -18.2271  -13.7050   -1.1011 H   0  0  0  0  0  0  0  0  0  0  0  0
  -19.1131  -14.0350    0.0000 H   0  0  0  0  0  0  0  0  0  0  0  0
  -15.7641  -14.1105   -1.0587 H   0  0  0  0  0  0  0  0  0  0  0  0
  -15.5286  -14.0596    0.9539 H   0  0  0  0  0  0  0  0  0  0  0  0
  -15.6025  -14.9756    0.0000 H   0  0  0  0  0  0  0  0  0  0  0  0
   -6.6425   -0.1449    1.3873 H   0  0  0  0  0  0  0  0  0  0  0  0
   -5.2549    0.9229    1.8097 H   0  0  0  0  0  0  0  0  0  0  0  0
   -5.7566    2.4059   -0.1360 H   0  0  0  0  0  0  0  0  0  0  0  0
   -7.1529    1.3711   -0.6004 H   0  0  0  0  0  0  0  0  0  0  0  0
   -8.3710    2.0362    1.5113 H   0  0  0  0  0  0  0  0  0  0  0  0
   -6.9538    3.0271    2.0276 H   0  0  0  0  0  0  0  0  0  0  0  0
   -8.6012    3.4906   -0.5459 H   0  0  0  0  0  0  0  0  0  0  0  0
   -7.1795    4.4456   -0.0088 H   0  0  0  0  0  0  0  0  0  0  0  0
   -8.5415    5.3890    1.9336 H   0  0  0  0  0  0  0  0  0  0  0  0
   -9.9858    4.4605    1.3577 H   0  0  0  0  0  0  0  0  0  0  0  0
   -9.7239    5.5513   -0.9040 H   0  0  0  0  0  0  0  0  0  0  0  0
   -8.3327    6.4288   -0.3170 H   0  0  0  0  0  0  0  0  0  0  0  0
   -9.5834    7.6873    0.9466 H   0  0  0  0  0  0  0  0  0  0  0  0
  -11.0173    6.7677    0.1881 H   0  0  0  0  0  0  0  0  0  0  0  0
  -11.4415    8.4988   -0.9254 H   0  0  0  0  0  0  0  0  0  0  0  0
  -11.5342    8.5493    0.8821 H   0  0  0  0  0  0  0  0  0  0  0  0
  -10.7123   10.7499    0.9300 H   0  0  0  0  0  0  0  0  0  0  0  0
  -10.6120   10.7865   -0.8533 H   0  0  0  0  0  0  0  0  0  0  0  0
  -13.3246   10.4677    0.7560 H   0  0  0  0  0  0  0  0  0  0  0  0
  -13.1917   10.5673   -1.0230 H   0  0  0  0  0  0  0  0  0  0  0  0
  -12.3492   12.8569   -0.7865 H   0  0  0  0  0  0  0  0  0  0  0  0
  -12.5273   12.7525    0.9501 H   0  0  0  0  0  0  0  0  0  0  0  0
  -14.4848   13.3509    0.7775 H   0  0  0  0  0  0  0  0  0  0  0  0
  -14.2187   13.6691   -1.0383 H   0  0  0  0  0  0  0  0  0  0  0  0
  -14.2921   15.3410    1.0793 H   0  0  0  0  0  0  0  0  0  0  0  0
  -15.6327   14.7008    0.0162 H   0  0  0  0  0  0  0  0  0  0  0  0
  -15.6559   16.3288   -1.0793 H   0  0  0  0  0  0  0  0  0  0  0  0
  -14.3163   16.9749   -0.0185 H   0  0  0  0  0  0  0  0  0  0  0  0
  -15.7273   18.0125    1.0344 H   0  0  0  0  0  0  0  0  0  0  0  0
  -15.4808   18.3135   -0.7956 H   0  0  0  0  0  0  0  0  0  0  0  0
  -17.5989   18.9058    0.8081 H   0  0  0  0  0  0  0  0  0  0  0  0
  -17.4598   18.9906   -0.9310 H   0  0  0  0  0  0  0  0  0  0  0  0
  -16.0954   21.0704   -0.7748 H   0  0  0  0  0  0  0  0  0  0  0  0
  -16.0717   21.0035    1.0229 H   0  0  0  0  0  0  0  0  0  0  0  0
  -18.4831   20.9339   -0.6672 H   0  0  0  0  0  0  0  0  0  0  0  0
  -18.4540   21.1282    1.1456 H   0  0  0  0  0  0  0  0  0  0  0  0
  -18.7624   23.1160   -1.0602 H   0  0  0  0  0  0  0  0  0  0  0  0
  -18.9579   24.9439   -0.1197 H   0  0  0  0  0  0  0  0  0  0  0  0
  -20.0801   24.3125    1.0966 H   0  0  0  0  0  0  0  0  0  0  0  0
  -20.3831   25.2064    0.0000 H   0  0  0  0  0  0  0  0  0  0  0  0
  -20.4205   21.8582    1.0503 H   0  0  0  0  0  0  0  0  0  0  0  0
  -20.3451   21.6023   -0.9174 H   0  0  0  0  0  0  0  0  0  0  0  0
  -21.3237   21.6958    0.0000 H   0  0  0  0  0  0  0  0  0  0  0  0
  1  2  1  0  0  0  0
  1 64  1  0  0  0  0
  1 65  1  0  0  0  0
  1 66  1  0  0  0  0
  2  3  1  0  0  0  0
  2 67  1  0  0  0  0
  2 68  1  0  0  0  0
  3  4  1  0  0  0  0
  3 69  1  0  0  0  0
  3 70  1  0  0  0  0
  4  5  1  0  0  0  0
  5  6  1  0  0  0  0
  5 71  1  0  0  0  0
  5 72  1  0  0  0  0
  6  7  1  0  0  0  0
  6 73  1  0  0  0  0
  6 74  1  0  0  0  0
  7  8  1  0  0  0  0
  8  9  1  0  0  0  0
  8 75  1  0  0  0  0
  8 76  1  0  0  0  0
  9 10  1  0  0  0  0
  9 77  1  0  0  0  0
  9 78  1  0  0  0  0
 10 11  1  0  0  0  0
 10 79  1  0  0  0  0
 10 80  1  0  0  0  0
 11 12  1  0  0  0  0
 11 81  1  0  0  0  0
 11 82  1  0  0  0  0
 12 13  1  0  0  0  0
 12 83  1  0  0  0  0
 12 84  1  0  0  0  0
 13 14  1  0  0  0  0
 13 85  1  0  0  0  0
 13 86  1  0  0  0  0
 14 15  1  0  0  0  0
 14 87  1  0  0  0  0
 14 88  1  0  0  0  0
 15 16  1  0  0  0  0
 15 89  1  0  0  0  0
 15 90  1  0  0  0  0
 16 17  1  0  0  0  0
 16 91  1  0  0  0  0
 16 92  1  0  0  0  0
 17 18  1  0  0  0  0
 17 93  1  0  0  0  0
 17 94  1  0  0  0  0
 18 19  1  0  0  0  0
 18 95  1  0  0  0  0
 18 96  1  0  0  0  0
 19 20  1  0  0  0  0
 19 97  1  0  0  0  0
 19 98  1  0  0  0  0
 20 21  2  0  0  0  0
 20 22  1  0  0  0  0
 22 23  1  0  0  0  0
 23 99  1  0  0  0  0
 23100  1  0  0  0  0
 24 23  1  0  0  0  0
 24 25  1  0  0  0  0
 24 40  1  0  0  0  0
 24101  1  1  0  0  0
 25 26  1  0  0  0  0
 25102  1  0  0  0  0
 25103  1  0  0  0  0
 26 27  1  0  0  0  0
 27 28  2  0  0  0  0
 27 29  1  0  0  0  0
 29 30  1  0  0  0  0
 29104  1  0  0  0  0
 29105  1  0  0  0  0
 30 31  1  0  0  0  0
 30106  1  0  0  0  0
 30107  1  0  0  0  0
 31 32  1  0  0  0  0
 31108  1  0  0  0  0
 31109  1  0  0  0  0
 32 33  1  0  0  0  0
 32110  1  0  0  0  0
 32111  1  0  0  0  0
 33 34  1  0  0  0  0
 33112  1  0  0  0  0
 33113  1  0  0  0  0
 34 35  1  0  0  0  0
 34114  1  0  0  0  0
 34115  1  0  0  0  0
 35 36  1  0  0  0  0
 35116  1  0  0  0  0
 35117  1  0  0  0  0
 36 37  1  0  0  0  0
 36118  1  0  0  0  0
 36119  1  0  0  0  0
 37 38  1  0  0  0  0
 37 39  1  0  0  0  0
 37120  1  0  0  0  0
 38121  1  0  0  0  0
 38122  1  0  0  0  0
 38123  1  0  0  0  0
 39124  1  0  0  0  0
 39125  1  0  0  0  0
 39126  1  0  0  0  0
 40 41  1  0  0  0  0
 41 42  2  0  0  0  0
 41 43  1  0  0  0  0
 43 44  1  0  0  0  0
 43127  1  0  0  0  0
 43128  1  0  0  0  0
 44 45  1  0  0  0  0
 44129  1  0  0  0  0
 44130  1  0  0  0  0
 45 46  1  0  0  0  0
 45131  1  0  0  0  0
 45132  1  0  0  0  0
 46 47  1  0  0  0  0
 46133  1  0  0  0  0
 46134  1  0  0  0  0
 47 48  1  0  0  0  0
 47135  1  0  0  0  0
 47136  1  0  0  0  0
 48 49  1  0  0  0  0
 48137  1  0  0  0  0
 48138  1  0  0  0  0
 49 50  1  0  0  0  0
 49139  1  0  0  0  0
 49140  1  0  0  0  0
 50 51  1  0  0  0  0
 50141  1  0  0  0  0
 50142  1  0  0  0  0
 51 52  1  0  0  0  0
 51143  1  0  0  0  0
 51144  1  0  0  0  0
 52 53  1  0  0  0  0
 52145  1  0  0  0  0
 52146  1  0  0  0  0
 53 54  1  0  0  0  0
 53147  1  0  0  0  0
 53148  1  0  0  0  0
 54 55  1  0  0  0  0
 54149  1  0  0  0  0
 54150  1  0  0  0  0
 55 56  1  0  0  0  0
 55151  1  0  0  0  0
 55152  1  0  0  0  0
 56 57  1  0  0  0  0
 56153  1  0  0  0  0
 56154  1  0  0  0  0
 57 58  1  0  0  0  0
 57155  1  0  0  0  0
 57156  1  0  0  0  0
 58 59  1  0  0  0  0
 58157  1  0  0  0  0
 58158  1  0  0  0  0
 59 60  1  0  0  0  0
 59159  1  0  0  0  0
 59160  1  0  0  0  0
 60 61  1  0  0  0  0
 60161  1  0  0  0  0
 60162  1  0  0  0  0
 61 62  1  0  0  0  0
 61 63  1  0  0  0  0
 61163  1  0  0  0  0
 62164  1  0  0  0  0
 62165  1  0  0  0  0
 62166  1  0  0  0  0
 63167  1  0  0  0  0
 63168  1  0  0  0  0
 63169  1  0  0  0  0
M  END
>  <IDENTIFIER>
CNP0583392.1

>  <Energy>
13560.1

$$$$
