
 OpenBabel09122514423D

 70 74  0  0  0  0  0  0  0  0999 V2000
   -4.2174    2.5117   -3.1348 O   0  0  0  0  0  0  0  0  0  0  0  0
   -4.5219    1.7733   -2.2084 C   0  0  0  0  0  0  0  0  0  0  0  0
   -5.8260    1.0781   -2.2504 C   0  0  0  0  0  0  0  0  0  0  0  0
   -6.2240    0.2385   -1.2759 C   0  0  0  0  0  0  0  0  0  0  0  0
   -7.5211   -0.4994   -1.2705 C   0  0  0  0  0  0  0  0  0  0  0  0
   -7.8041   -1.3382   -0.1775 C   0  0  0  0  0  0  0  0  0  0  0  0
   -9.0021   -2.0568   -0.1184 C   0  0  0  0  0  0  0  0  0  0  0  0
   -9.9399   -1.9497   -1.1532 C   0  0  0  0  0  0  0  0  0  0  0  0
  -11.0994   -2.6369   -1.1102 O   0  0  0  0  0  0  0  0  0  0  0  0
   -9.6708   -1.1206   -2.2447 C   0  0  0  0  0  0  0  0  0  0  0  0
   -8.4742   -0.3996   -2.3080 C   0  0  0  0  0  0  0  0  0  0  0  0
   -3.6657    1.5815   -1.1707 O   0  0  0  0  0  0  0  0  0  0  0  0
   -2.3978    2.1286   -1.1181 C   0  0  0  0  0  0  0  0  0  0  0  0
   -1.6554    1.6962    0.1528 C   0  0  2  0  0  0  0  0  0  0  0  0
   -1.6209    0.2745    0.2079 O   0  0  0  0  0  0  0  0  0  0  0  0
   -0.7956   -0.1963    1.2670 C   0  0  1  0  0  0  0  0  0  0  0  0
    0.5325    0.1615    1.0436 O   0  0  0  0  0  0  0  0  0  0  0  0
    1.6254   -0.6392    0.8654 C   0  0  0  0  0  0  0  0  0  0  0  0
    1.6031   -2.0446    1.0177 C   0  0  0  0  0  0  0  0  0  0  0  0
    2.7601   -2.8108    0.8139 C   0  0  0  0  0  0  0  0  0  0  0  0
    2.7070   -4.1535    0.9484 O   0  0  0  0  0  0  0  0  0  0  0  0
    3.9679   -2.1776    0.4648 C   0  0  0  0  0  0  0  0  0  0  0  0
    5.2203   -2.9322    0.1886 C   0  0  0  0  0  0  0  0  0  0  0  0
    5.2258   -4.1534    0.1538 O   0  0  0  0  0  0  0  0  0  0  0  0
    6.4496   -2.1811   -0.2414 C   0  0  0  0  0  0  0  0  0  0  0  0
    6.3959   -0.7240    0.2646 C   0  0  1  0  0  0  0  0  0  0  0  0
    7.5204    0.1687   -0.2460 C   0  0  0  0  0  0  0  0  0  0  0  0
    8.5458   -0.2944   -1.1029 C   0  0  0  0  0  0  0  0  0  0  0  0
    9.5597    0.5685   -1.5299 C   0  0  0  0  0  0  0  0  0  0  0  0
    9.5707    1.9051   -1.1177 C   0  0  0  0  0  0  0  0  0  0  0  0
   10.5458    2.7468   -1.5229 O   0  0  0  0  0  0  0  0  0  0  0  0
    8.5634    2.3742   -0.2704 C   0  0  0  0  0  0  0  0  0  0  0  0
    7.5483    1.5137    0.1634 C   0  0  0  0  0  0  0  0  0  0  0  0
    5.1621   -0.1570   -0.0188 O   0  0  0  0  0  0  0  0  0  0  0  0
    4.0004   -0.7774    0.3174 C   0  0  0  0  0  0  0  0  0  0  0  0
    2.8356   -0.0229    0.5110 C   0  0  0  0  0  0  0  0  0  0  0  0
   -1.3180    0.2875    2.6611 C   0  0  2  0  0  0  0  0  0  0  0  0
   -2.5802   -0.2698    2.9595 O   0  0  0  0  0  0  0  0  0  0  0  0
   -1.4717    1.8247    2.6820 C   0  0  1  0  0  0  0  0  0  0  0  0
   -0.2240    2.4755    2.7779 O   0  0  0  0  0  0  0  0  0  0  0  0
   -2.2868    2.2901    1.4485 C   0  0  2  0  0  0  0  0  0  0  0  0
   -3.6454    1.9351    1.5912 O   0  0  0  0  0  0  0  0  0  0  0  0
   -6.4497    1.2715   -3.1129 H   0  0  0  0  0  0  0  0  0  0  0  0
   -5.5597    0.0775   -0.4307 H   0  0  0  0  0  0  0  0  0  0  0  0
   -7.0951   -1.4389    0.6354 H   0  0  0  0  0  0  0  0  0  0  0  0
   -9.1994   -2.6967    0.7325 H   0  0  0  0  0  0  0  0  0  0  0  0
  -11.3240   -3.2213   -0.3722 H   0  0  0  0  0  0  0  0  0  0  0  0
  -10.3914   -1.0340   -3.0487 H   0  0  0  0  0  0  0  0  0  0  0  0
   -8.3157    0.2248   -3.1731 H   0  0  0  0  0  0  0  0  0  0  0  0
   -2.4535    3.2388   -1.1630 H   0  0  0  0  0  0  0  0  0  0  0  0
   -1.8191    1.7667   -1.9969 H   0  0  0  0  0  0  0  0  0  0  0  0
   -0.6286    2.0985    0.0207 H   0  0  0  0  0  0  0  0  0  0  0  0
   -0.8921   -1.2913    1.2649 H   0  0  0  0  0  0  0  0  0  0  0  0
    0.7093   -2.5786    1.2911 H   0  0  0  0  0  0  0  0  0  0  0  0
    1.8908   -4.6210    1.1766 H   0  0  0  0  0  0  0  0  0  0  0  0
    6.4868   -2.2300   -1.3510 H   0  0  0  0  0  0  0  0  0  0  0  0
    7.3580   -2.6646    0.1806 H   0  0  0  0  0  0  0  0  0  0  0  0
    6.4867   -0.7636    1.3752 H   0  0  0  0  0  0  0  0  0  0  0  0
    8.5844   -1.3186   -1.4434 H   0  0  0  0  0  0  0  0  0  0  0  0
   10.3380    0.1904   -2.1821 H   0  0  0  0  0  0  0  0  0  0  0  0
   11.2620    2.4556   -2.1086 H   0  0  0  0  0  0  0  0  0  0  0  0
    8.5656    3.4071    0.0544 H   0  0  0  0  0  0  0  0  0  0  0  0
    6.7798    1.8993    0.8232 H   0  0  0  0  0  0  0  0  0  0  0  0
    2.8732    1.0530    0.3914 H   0  0  0  0  0  0  0  0  0  0  0  0
   -0.6202   -0.0339    3.4657 H   0  0  0  0  0  0  0  0  0  0  0  0
   -2.6601   -1.1666    2.5456 H   0  0  0  0  0  0  0  0  0  0  0  0
   -2.0196    2.1229    3.6029 H   0  0  0  0  0  0  0  0  0  0  0  0
    0.2929    2.3498    1.9484 H   0  0  0  0  0  0  0  0  0  0  0  0
   -2.2561    3.4002    1.3980 H   0  0  0  0  0  0  0  0  0  0  0  0
   -3.7728    0.9955    1.3057 H   0  0  0  0  0  0  0  0  0  0  0  0
  1  2  2  0  0  0  0
  2  3  1  0  0  0  0
  2 12  1  0  0  0  0
  3  4  2  0  0  0  0
  3 43  1  0  0  0  0
  4  5  1  0  0  0  0
  4 44  1  0  0  0  0
  5  6  2  0  0  0  0
  6  7  1  0  0  0  0
  6 45  1  0  0  0  0
  7  8  2  0  0  0  0
  7 46  1  0  0  0  0
  8  9  1  0  0  0  0
  8 10  1  0  0  0  0
  9 47  1  0  0  0  0
 10 11  2  0  0  0  0
 10 48  1  0  0  0  0
 11  5  1  0  0  0  0
 11 49  1  0  0  0  0
 12 13  1  0  0  0  0
 13 50  1  0  0  0  0
 13 51  1  0  0  0  0
 14 13  1  0  0  0  0
 14 15  1  0  0  0  0
 14 52  1  6  0  0  0
 15 16  1  0  0  0  0
 16 17  1  0  0  0  0
 16 37  1  0  0  0  0
 16 53  1  6  0  0  0
 17 18  1  0  0  0  0
 18 19  2  0  0  0  0
 19 20  1  0  0  0  0
 19 54  1  0  0  0  0
 20 21  1  0  0  0  0
 20 22  2  0  0  0  0
 21 55  1  0  0  0  0
 22 23  1  0  0  0  0
 23 24  2  0  0  0  0
 23 25  1  0  0  0  0
 25 26  1  0  0  0  0
 25 56  1  0  0  0  0
 25 57  1  0  0  0  0
 26 27  1  0  0  0  0
 26 34  1  0  0  0  0
 26 58  1  1  0  0  0
 27 28  2  0  0  0  0
 28 29  1  0  0  0  0
 28 59  1  0  0  0  0
 29 30  2  0  0  0  0
 29 60  1  0  0  0  0
 30 31  1  0  0  0  0
 30 32  1  0  0  0  0
 31 61  1  0  0  0  0
 32 33  2  0  0  0  0
 32 62  1  0  0  0  0
 33 27  1  0  0  0  0
 33 63  1  0  0  0  0
 34 35  1  0  0  0  0
 35 36  2  0  0  0  0
 35 22  1  0  0  0  0
 36 18  1  0  0  0  0
 36 64  1  0  0  0  0
 37 38  1  0  0  0  0
 37 39  1  0  0  0  0
 37 65  1  1  0  0  0
 38 66  1  0  0  0  0
 39 40  1  0  0  0  0
 39 41  1  0  0  0  0
 39 67  1  1  0  0  0
 40 68  1  0  0  0  0
 41 42  1  0  0  0  0
 41 14  1  0  0  0  0
 41 69  1  6  0  0  0
 42 70  1  0  0  0  0
M  END
>  <IDENTIFIER>
CNP0107431.6

>  <Energy>
532.178

$$$$
