
 OpenBabel09072509153D

 65 67  0  0  0  0  0  0  0  0999 V2000
   -0.8113    1.9288    0.5408 C   0  0  0  0  0  0  0  0  0  0  0  0
    0.0103    0.9102   -0.2078 C   0  0  0  0  0  0  0  0  0  0  0  0
    1.3408    0.8199    0.0035 C   0  0  0  0  0  0  0  0  0  0  0  0
    2.2892   -0.0429   -0.8265 C   0  0  1  0  0  0  0  0  0  0  0  0
    3.0718   -1.0938    0.0117 C   0  0  0  0  0  0  0  0  0  0  0  0
    3.8722   -0.5300    1.0831 N   0  0  0  0  0  0  0  0  0  0  0  0
    3.3599   -0.1502    2.2947 C   0  0  0  0  0  0  0  0  0  0  0  0
    2.1635   -0.2630    2.5127 O   0  0  0  0  0  0  0  0  0  0  0  0
    4.2264    0.3850    3.4218 C   0  0  0  0  0  0  0  0  0  0  0  0
    5.7354    0.5976    3.3031 C   0  0  0  0  0  0  0  0  0  0  0  0
    5.1963   -0.7251    3.8192 C   0  0  0  0  0  0  0  0  0  0  0  0
    1.6117   -0.7486   -2.0670 C   0  0  2  0  0  0  0  0  0  0  0  0
    2.5971   -0.9637   -3.2720 C   0  0  0  0  0  0  0  0  0  0  0  0
    1.9655   -1.8355   -4.3717 C   0  0  0  0  0  0  0  0  0  0  0  0
    3.1157    0.3410   -3.9091 C   0  0  0  0  0  0  0  0  0  0  0  0
    0.2746   -0.0658   -2.4585 C   0  0  0  0  0  0  0  0  0  0  0  0
   -0.6597    0.0252   -1.2318 C   0  0  1  0  0  0  0  0  0  0  0  0
   -0.9700   -1.3695   -0.5977 C   0  0  0  0  0  0  0  0  0  0  0  0
   -1.9798   -1.3069    0.5322 C   0  0  0  0  0  0  0  0  0  0  0  0
   -1.5395   -1.4358    1.6682 O   0  0  0  0  0  0  0  0  0  0  0  0
   -3.3325   -1.1206    0.3409 N   0  0  0  0  0  0  0  0  0  0  0  0
   -3.9343   -1.0612   -0.9883 C   0  0  0  0  0  0  0  0  0  0  0  0
   -4.2364   -1.0272    1.4909 C   0  0  0  0  0  0  0  0  0  0  0  0
   -4.8152    0.3593    1.6008 C   0  0  0  0  0  0  0  0  0  0  0  0
   -4.1683    1.3207    2.3957 C   0  0  0  0  0  0  0  0  0  0  0  0
   -4.6786    2.6174    2.4908 C   0  0  0  0  0  0  0  0  0  0  0  0
   -5.8403    2.9642    1.7961 C   0  0  0  0  0  0  0  0  0  0  0  0
   -6.4944    2.0126    1.0083 C   0  0  0  0  0  0  0  0  0  0  0  0
   -5.9862    0.7130    0.9104 C   0  0  0  0  0  0  0  0  0  0  0  0
   -0.1961    2.5267    1.2471 H   0  0  0  0  0  0  0  0  0  0  0  0
   -1.6093    1.4231    1.1156 H   0  0  0  0  0  0  0  0  0  0  0  0
   -1.2781    2.6287   -0.1843 H   0  0  0  0  0  0  0  0  0  0  0  0
    1.7944    1.4702    0.7452 H   0  0  0  0  0  0  0  0  0  0  0  0
    3.0023    0.7096   -1.2045 H   0  0  0  0  0  0  0  0  0  0  0  0
    3.7716   -1.6042   -0.6846 H   0  0  0  0  0  0  0  0  0  0  0  0
    2.4002   -1.8836    0.4161 H   0  0  0  0  0  0  0  0  0  0  0  0
    4.8883   -0.5124    0.9306 H   0  0  0  0  0  0  0  0  0  0  0  0
    3.7083    0.6560    4.3677 H   0  0  0  0  0  0  0  0  0  0  0  0
    5.9717    1.3947    4.0386 H   0  0  0  0  0  0  0  0  0  0  0  0
    5.9480    0.7872    2.2342 H   0  0  0  0  0  0  0  0  0  0  0  0
    5.5506   -0.7813    4.8696 H   0  0  0  0  0  0  0  0  0  0  0  0
    5.5658   -1.4709    3.0822 H   0  0  0  0  0  0  0  0  0  0  0  0
    1.3303   -1.7726   -1.7535 H   0  0  0  0  0  0  0  0  0  0  0  0
    3.4781   -1.5265   -2.8990 H   0  0  0  0  0  0  0  0  0  0  0  0
    1.1167   -1.3190   -4.8653 H   0  0  0  0  0  0  0  0  0  0  0  0
    1.6107   -2.7986   -3.9480 H   0  0  0  0  0  0  0  0  0  0  0  0
    2.7190   -2.0628   -5.1560 H   0  0  0  0  0  0  0  0  0  0  0  0
    2.2829    0.9447   -4.3239 H   0  0  0  0  0  0  0  0  0  0  0  0
    3.8155    0.1002   -4.7380 H   0  0  0  0  0  0  0  0  0  0  0  0
    3.6891    0.9615   -3.1954 H   0  0  0  0  0  0  0  0  0  0  0  0
   -0.2483   -0.6503   -3.2438 H   0  0  0  0  0  0  0  0  0  0  0  0
    0.4594    0.9578   -2.8529 H   0  0  0  0  0  0  0  0  0  0  0  0
   -1.6157    0.4865   -1.5594 H   0  0  0  0  0  0  0  0  0  0  0  0
   -0.0361   -1.7694   -0.1541 H   0  0  0  0  0  0  0  0  0  0  0  0
   -1.2970   -2.1143   -1.3527 H   0  0  0  0  0  0  0  0  0  0  0  0
   -3.2146   -1.1862   -1.8161 H   0  0  0  0  0  0  0  0  0  0  0  0
   -4.4473   -0.0936   -1.1449 H   0  0  0  0  0  0  0  0  0  0  0  0
   -4.6757   -1.8851   -1.0875 H   0  0  0  0  0  0  0  0  0  0  0  0
   -3.7241   -1.2529    2.4497 H   0  0  0  0  0  0  0  0  0  0  0  0
   -5.0395   -1.7947    1.4199 H   0  0  0  0  0  0  0  0  0  0  0  0
   -3.2644    1.0675    2.9365 H   0  0  0  0  0  0  0  0  0  0  0  0
   -4.1714    3.3535    3.1007 H   0  0  0  0  0  0  0  0  0  0  0  0
   -6.2322    3.9701    1.8685 H   0  0  0  0  0  0  0  0  0  0  0  0
   -7.3938    2.2829    0.4710 H   0  0  0  0  0  0  0  0  0  0  0  0
   -6.5006   -0.0139    0.2942 H   0  0  0  0  0  0  0  0  0  0  0  0
  1  2  1  0  0  0  0
  1 30  1  0  0  0  0
  1 31  1  0  0  0  0
  1 32  1  0  0  0  0
  2  3  2  0  0  0  0
  3  4  1  0  0  0  0
  3 33  1  0  0  0  0
  4  5  1  0  0  0  0
  4 12  1  0  0  0  0
  4 34  1  6  0  0  0
  5  6  1  0  0  0  0
  5 35  1  0  0  0  0
  5 36  1  0  0  0  0
  6  7  1  0  0  0  0
  6 37  1  0  0  0  0
  7  8  2  0  0  0  0
  7  9  1  0  0  0  0
  9 10  1  0  0  0  0
  9 38  1  0  0  0  0
 10 11  1  0  0  0  0
 10 39  1  0  0  0  0
 10 40  1  0  0  0  0
 11  9  1  0  0  0  0
 11 41  1  0  0  0  0
 11 42  1  0  0  0  0
 12 13  1  0  0  0  0
 12 16  1  0  0  0  0
 12 43  1  1  0  0  0
 13 14  1  0  0  0  0
 13 15  1  0  0  0  0
 13 44  1  0  0  0  0
 14 45  1  0  0  0  0
 14 46  1  0  0  0  0
 14 47  1  0  0  0  0
 15 48  1  0  0  0  0
 15 49  1  0  0  0  0
 15 50  1  0  0  0  0
 16 17  1  0  0  0  0
 16 51  1  0  0  0  0
 16 52  1  0  0  0  0
 17 18  1  0  0  0  0
 17  2  1  0  0  0  0
 17 53  1  6  0  0  0
 18 19  1  0  0  0  0
 18 54  1  0  0  0  0
 18 55  1  0  0  0  0
 19 20  2  0  0  0  0
 19 21  1  0  0  0  0
 21 22  1  0  0  0  0
 21 23  1  0  0  0  0
 22 56  1  0  0  0  0
 22 57  1  0  0  0  0
 22 58  1  0  0  0  0
 23 24  1  0  0  0  0
 23 59  1  0  0  0  0
 23 60  1  0  0  0  0
 24 25  2  0  0  0  0
 25 26  1  0  0  0  0
 25 61  1  0  0  0  0
 26 27  2  0  0  0  0
 26 62  1  0  0  0  0
 27 28  1  0  0  0  0
 27 63  1  0  0  0  0
 28 29  2  0  0  0  0
 28 64  1  0  0  0  0
 29 24  1  0  0  0  0
 29 65  1  0  0  0  0
M  END
>  <IDENTIFIER>
CNP0308409.1

>  <Energy>
1664.27

$$$$
