
 OpenBabel09082518413D

147156  0  0  0  0  0  0  0  0999 V2000
    6.4961    2.8564   -0.4038 C   0  0  0  0  0  0  0  0  0  0  0  0
    5.8135    1.5730   -0.8818 C   0  0  0  0  0  0  0  0  0  0  0  0
    4.5756    1.8940   -1.6731 C   0  0  0  0  0  0  0  0  0  0  0  0
    3.6524    0.7795   -2.2553 C   0  0  2  0  0  0  0  0  0  0  0  0
    2.8432   -0.2067   -1.3504 C   0  0  2  0  0  0  0  0  0  0  0  0
    2.6011    0.2469    0.1575 C   0  0  0  0  0  0  0  0  0  0  0  0
    1.5282   -0.5429    1.0072 C   0  0  0  0  0  0  0  0  0  0  0  0
    0.1229   -0.6599    0.2933 C   0  0  1  0  0  0  0  0  0  0  0  0
   -0.3396    0.7458    0.2952 C   0  0  0  0  0  0  0  0  0  0  0  0
   -0.8520    1.8312    0.2224 C   0  0  0  0  0  0  0  0  0  0  0  0
   -1.9139    2.8361    0.1922 C   0  0  0  0  0  0  0  0  0  0  0  0
   -2.9411    2.4487   -0.9251 C   0  0  2  0  0  0  0  0  0  0  0  0
   -4.3430    3.0135   -0.6390 C   0  0  0  0  0  0  0  0  0  0  0  0
   -4.3415    4.5549   -0.5701 C   0  0  0  0  0  0  0  0  0  0  0  0
   -5.7257    5.2070   -0.3723 C   0  0  0  0  0  0  0  0  0  0  0  0
   -6.4552    4.8527    0.9209 C   0  0  0  0  0  0  0  0  0  0  0  0
   -7.8996    5.3226    0.6792 C   0  0  0  0  0  0  0  0  0  0  0  0
   -7.9995    5.5490   -0.8388 C   0  0  0  0  0  0  0  0  0  0  0  0
   -6.7840    4.8428   -1.4153 C   0  0  0  0  0  0  0  0  0  0  0  0
   -2.9755    0.9054   -1.2076 C   0  0  0  0  0  0  0  0  0  0  0  0
   -3.1838    0.0011    0.0237 C   0  0  0  0  0  0  0  0  0  0  0  0
   -2.4668   -1.4688    0.2211 C   0  0  2  0  0  0  0  0  0  0  0  0
   -2.0981   -2.1793   -1.1735 C   0  0  0  0  0  0  0  0  0  0  0  0
   -0.8577   -1.6384   -2.0085 C   0  0  2  0  0  0  0  0  0  0  0  0
   -0.4951   -2.5285   -3.2701 C   0  0  0  0  0  0  0  0  0  0  0  0
    0.9611   -2.3289   -3.8749 C   0  0  0  0  0  0  0  0  0  0  0  0
    1.5264   -0.9306   -3.5849 C   0  0  2  0  0  0  0  0  0  0  0  0
    2.8915   -0.5485   -4.2776 C   0  0  0  0  0  0  0  0  0  0  0  0
    4.1127   -0.2027   -3.3324 C   0  0  1  0  0  0  0  0  0  0  0  0
    5.1482    0.3630   -4.0934 O   0  0  0  0  0  0  0  0  0  0  0  0
    4.5787   -1.3448   -2.6604 O   0  0  0  0  0  0  0  0  0  0  0  0
    3.7636   -1.5028   -1.5212 C   0  0  1  0  0  0  0  0  0  0  0  0
    4.5729   -2.1456   -0.3393 C   0  0  0  0  0  0  0  0  0  0  0  0
    5.8666   -1.4972    0.0878 C   0  0  0  0  0  0  0  0  0  0  0  0
    6.9328   -1.3753   -0.8191 C   0  0  0  0  0  0  0  0  0  0  0  0
    8.1161   -0.7350   -0.4430 C   0  0  0  0  0  0  0  0  0  0  0  0
    8.2709   -0.2286    0.8558 C   0  0  0  0  0  0  0  0  0  0  0  0
    9.5269    0.5257    1.2219 C   0  0  0  0  0  0  0  0  0  0  0  0
   10.4656   -0.2751    2.1293 C   0  0  0  0  0  0  0  0  0  0  0  0
    9.8488   -0.6761    3.3375 O   0  0  0  0  0  0  0  0  0  0  0  0
    9.9546    0.3385    4.3118 C   0  0  0  0  0  0  0  0  0  0  0  0
    7.2311   -0.4031    1.7858 C   0  0  0  0  0  0  0  0  0  0  0  0
    6.0387   -1.0341    1.4064 C   0  0  0  0  0  0  0  0  0  0  0  0
    1.3976   -0.3733   -2.0827 C   0  0  2  0  0  0  0  0  0  0  0  0
    0.7653    1.0962   -2.4091 C   0  0  0  0  0  0  0  0  0  0  0  0
    1.0946    2.1196   -1.5149 O   0  0  0  0  0  0  0  0  0  0  0  0
    0.4170   -1.3440   -1.1567 C   0  0  1  0  0  0  0  0  0  0  0  0
    1.0106   -2.8043   -0.8715 C   0  0  0  0  0  0  0  0  0  0  0  0
   -3.5498   -2.3952    1.0059 C   0  0  2  0  0  0  0  0  0  0  0  0
   -4.8467   -2.5532    0.0856 C   0  0  0  0  0  0  0  0  0  0  0  0
   -6.2098   -2.7304    0.7908 C   0  0  2  0  0  0  0  0  0  0  0  0
   -6.3412   -4.2322    1.1584 C   0  0  0  0  0  0  0  0  0  0  0  0
   -7.3903   -2.4604   -0.1590 C   0  0  0  0  0  0  0  0  0  0  0  0
   -7.2003   -2.1482   -1.3254 O   0  0  0  0  0  0  0  0  0  0  0  0
   -8.6660   -2.5493    0.2799 O   0  0  0  0  0  0  0  0  0  0  0  0
   -6.3481   -1.7134    2.0005 C   0  0  0  0  0  0  0  0  0  0  0  0
   -5.0562   -1.0262    2.5587 C   0  0  0  0  0  0  0  0  0  0  0  0
   -3.8359   -1.9623    2.5409 C   0  0  1  0  0  0  0  0  0  0  0  0
   -4.2227   -3.1530    3.4859 C   0  0  0  0  0  0  0  0  0  0  0  0
   -2.5609   -1.3658    3.2851 C   0  0  0  0  0  0  0  0  0  0  0  0
   -1.4432   -0.6744    2.4722 C   0  0  0  0  0  0  0  0  0  0  0  0
   -1.0907   -1.4204    1.1192 C   0  0  2  0  0  0  0  0  0  0  0  0
   -0.6439   -2.8585    1.6126 C   0  0  0  0  0  0  0  0  0  0  0  0
    7.3992    2.6054    0.1886 H   0  0  0  0  0  0  0  0  0  0  0  0
    5.8058    3.4425    0.2421 H   0  0  0  0  0  0  0  0  0  0  0  0
    6.7988    3.4840   -1.2689 H   0  0  0  0  0  0  0  0  0  0  0  0
    5.5240    1.0154    0.0119 H   0  0  0  0  0  0  0  0  0  0  0  0
    6.5102    1.0219   -1.5365 H   0  0  0  0  0  0  0  0  0  0  0  0
    4.9190    2.5242   -2.5287 H   0  0  0  0  0  0  0  0  0  0  0  0
    3.9331    2.5423   -1.0342 H   0  0  0  0  0  0  0  0  0  0  0  0
    3.0537    1.5118   -2.7924 H   0  0  0  0  0  0  0  0  0  0  0  0
    2.2808    1.2961    0.1870 H   0  0  0  0  0  0  0  0  0  0  0  0
    3.5554    0.2554    0.7136 H   0  0  0  0  0  0  0  0  0  0  0  0
    1.4245   -0.0276    1.9872 H   0  0  0  0  0  0  0  0  0  0  0  0
    1.9454   -1.5120    1.2974 H   0  0  0  0  0  0  0  0  0  0  0  0
   -1.5280    3.8709    0.0767 H   0  0  0  0  0  0  0  0  0  0  0  0
   -2.4018    2.7591    1.1888 H   0  0  0  0  0  0  0  0  0  0  0  0
   -2.5768    2.8915   -1.8813 H   0  0  0  0  0  0  0  0  0  0  0  0
   -4.7219    2.5771    0.3083 H   0  0  0  0  0  0  0  0  0  0  0  0
   -5.0031    2.6907   -1.4699 H   0  0  0  0  0  0  0  0  0  0  0  0
   -3.9208    4.9443   -1.5229 H   0  0  0  0  0  0  0  0  0  0  0  0
   -3.6855    4.8949    0.2596 H   0  0  0  0  0  0  0  0  0  0  0  0
   -5.5712    6.3123   -0.3918 H   0  0  0  0  0  0  0  0  0  0  0  0
   -5.9970    5.2264    1.8612 H   0  0  0  0  0  0  0  0  0  0  0  0
   -6.4957    3.7437    0.9833 H   0  0  0  0  0  0  0  0  0  0  0  0
   -8.1359    6.2814    1.1898 H   0  0  0  0  0  0  0  0  0  0  0  0
   -8.5905    4.5310    1.0434 H   0  0  0  0  0  0  0  0  0  0  0  0
   -7.8269    6.6350   -1.0228 H   0  0  0  0  0  0  0  0  0  0  0  0
   -8.9798    5.2881   -1.2899 H   0  0  0  0  0  0  0  0  0  0  0  0
   -6.5368    5.1689   -2.4481 H   0  0  0  0  0  0  0  0  0  0  0  0
   -6.9773    3.7472   -1.4126 H   0  0  0  0  0  0  0  0  0  0  0  0
   -2.0038    0.7435   -1.5715 H   0  0  0  0  0  0  0  0  0  0  0  0
   -3.6423    0.6193   -2.0498 H   0  0  0  0  0  0  0  0  0  0  0  0
   -4.2719    0.0174    0.0207 H   0  0  0  0  0  0  0  0  0  0  0  0
   -3.0799    0.5896    0.9271 H   0  0  0  0  0  0  0  0  0  0  0  0
   -2.9807   -2.1983   -1.8453 H   0  0  0  0  0  0  0  0  0  0  0  0
   -1.8843   -3.2390   -0.9434 H   0  0  0  0  0  0  0  0  0  0  0  0
   -1.1677   -0.7326   -2.4828 H   0  0  0  0  0  0  0  0  0  0  0  0
   -1.2620   -2.3033   -4.0447 H   0  0  0  0  0  0  0  0  0  0  0  0
   -0.5973   -3.6135   -3.0537 H   0  0  0  0  0  0  0  0  0  0  0  0
    0.9115   -2.5394   -4.9673 H   0  0  0  0  0  0  0  0  0  0  0  0
    1.7081   -3.0733   -3.5692 H   0  0  0  0  0  0  0  0  0  0  0  0
    0.7478   -0.4454   -4.2227 H   0  0  0  0  0  0  0  0  0  0  0  0
    2.6972    0.3990   -4.8279 H   0  0  0  0  0  0  0  0  0  0  0  0
    3.1638   -1.2882   -5.0612 H   0  0  0  0  0  0  0  0  0  0  0  0
    5.5275   -0.3663   -4.6503 H   0  0  0  0  0  0  0  0  0  0  0  0
    3.1284   -2.3172   -1.8103 H   0  0  0  0  0  0  0  0  0  0  0  0
    4.8640   -3.1716   -0.6581 H   0  0  0  0  0  0  0  0  0  0  0  0
    3.9040   -2.2777    0.5309 H   0  0  0  0  0  0  0  0  0  0  0  0
    6.8469   -1.7474   -1.8300 H   0  0  0  0  0  0  0  0  0  0  0  0
    8.9058   -0.6210   -1.1747 H   0  0  0  0  0  0  0  0  0  0  0  0
    9.2519    1.5025    1.6771 H   0  0  0  0  0  0  0  0  0  0  0  0
   10.1049    0.7580    0.3006 H   0  0  0  0  0  0  0  0  0  0  0  0
   11.4096    0.2955    2.2947 H   0  0  0  0  0  0  0  0  0  0  0  0
   10.7737   -1.1928    1.5851 H   0  0  0  0  0  0  0  0  0  0  0  0
    9.6604   -0.0940    5.2893 H   0  0  0  0  0  0  0  0  0  0  0  0
    9.2582    1.1736    4.0879 H   0  0  0  0  0  0  0  0  0  0  0  0
   10.9997    0.7003    4.4389 H   0  0  0  0  0  0  0  0  0  0  0  0
    7.3258   -0.0203    2.7937 H   0  0  0  0  0  0  0  0  0  0  0  0
    5.2413   -1.1336    2.1325 H   0  0  0  0  0  0  0  0  0  0  0  0
   -0.2985    1.1077   -2.6480 H   0  0  0  0  0  0  0  0  0  0  0  0
    1.1319    1.4798   -3.3890 H   0  0  0  0  0  0  0  0  0  0  0  0
    0.7122    2.9617   -1.8778 H   0  0  0  0  0  0  0  0  0  0  0  0
    1.7968   -2.9127   -0.1220 H   0  0  0  0  0  0  0  0  0  0  0  0
    1.4081   -3.3900   -1.6770 H   0  0  0  0  0  0  0  0  0  0  0  0
    0.2562   -3.5530   -0.7167 H   0  0  0  0  0  0  0  0  0  0  0  0
   -3.1293   -3.4159    1.0908 H   0  0  0  0  0  0  0  0  0  0  0  0
   -4.6763   -3.3304   -0.6917 H   0  0  0  0  0  0  0  0  0  0  0  0
   -4.9975   -1.6802   -0.5424 H   0  0  0  0  0  0  0  0  0  0  0  0
   -6.4345   -4.8313    0.2248 H   0  0  0  0  0  0  0  0  0  0  0  0
   -7.2513   -4.4231    1.7658 H   0  0  0  0  0  0  0  0  0  0  0  0
   -5.4556   -4.6716    1.6431 H   0  0  0  0  0  0  0  0  0  0  0  0
   -8.8826   -2.7648    1.1968 H   0  0  0  0  0  0  0  0  0  0  0  0
   -6.8962   -2.2357    2.8136 H   0  0  0  0  0  0  0  0  0  0  0  0
   -7.0119   -0.8594    1.7362 H   0  0  0  0  0  0  0  0  0  0  0  0
   -5.2778   -0.6542    3.5833 H   0  0  0  0  0  0  0  0  0  0  0  0
   -4.8499   -0.1148    1.9952 H   0  0  0  0  0  0  0  0  0  0  0  0
   -4.2916   -2.7966    4.5379 H   0  0  0  0  0  0  0  0  0  0  0  0
   -3.4552   -3.9559    3.4506 H   0  0  0  0  0  0  0  0  0  0  0  0
   -5.2004   -3.6104    3.3407 H   0  0  0  0  0  0  0  0  0  0  0  0
   -2.0252   -2.1815    3.8108 H   0  0  0  0  0  0  0  0  0  0  0  0
   -2.8639   -0.7404    4.1531 H   0  0  0  0  0  0  0  0  0  0  0  0
   -0.5419   -0.6118    3.1207 H   0  0  0  0  0  0  0  0  0  0  0  0
   -1.7217    0.3797    2.3595 H   0  0  0  0  0  0  0  0  0  0  0  0
    0.3356   -2.8343    2.1289 H   0  0  0  0  0  0  0  0  0  0  0  0
   -0.7080   -3.6804    0.9155 H   0  0  0  0  0  0  0  0  0  0  0  0
   -1.3196   -3.3430    2.3241 H   0  0  0  0  0  0  0  0  0  0  0  0
  1  2  1  0  0  0  0
  1 64  1  0  0  0  0
  1 65  1  0  0  0  0
  1 66  1  0  0  0  0
  2  3  1  0  0  0  0
  2 67  1  0  0  0  0
  2 68  1  0  0  0  0
  3 69  1  0  0  0  0
  3 70  1  0  0  0  0
  4  3  1  0  0  0  0
  4  5  1  0  0  0  0
  4 71  1  6  0  0  0
  5  6  1  1  0  0  0
  6  7  1  0  0  0  0
  6 72  1  0  0  0  0
  6 73  1  0  0  0  0
  7 74  1  0  0  0  0
  7 75  1  0  0  0  0
  8  7  1  0  0  0  0
  8  9  1  6  0  0  0
  9 10  3  0  0  0  0
 10 11  1  0  0  0  0
 11 12  1  0  0  0  0
 11 76  1  0  0  0  0
 11 77  1  0  0  0  0
 12 13  1  0  0  0  0
 12 20  1  0  0  0  0
 12 78  1  6  0  0  0
 13 14  1  0  0  0  0
 13 79  1  0  0  0  0
 13 80  1  0  0  0  0
 14 15  1  0  0  0  0
 14 81  1  0  0  0  0
 14 82  1  0  0  0  0
 15 16  1  0  0  0  0
 15 83  1  0  0  0  0
 16 17  1  0  0  0  0
 16 84  1  0  0  0  0
 16 85  1  0  0  0  0
 17 18  1  0  0  0  0
 17 86  1  0  0  0  0
 17 87  1  0  0  0  0
 18 19  1  0  0  0  0
 18 88  1  0  0  0  0
 18 89  1  0  0  0  0
 19 15  1  0  0  0  0
 19 90  1  0  0  0  0
 19 91  1  0  0  0  0
 20 21  1  0  0  0  0
 20 92  1  0  0  0  0
 20 93  1  0  0  0  0
 21 94  1  0  0  0  0
 21 95  1  0  0  0  0
 22 21  1  6  0  0  0
 22 23  1  0  0  0  0
 22 49  1  0  0  0  0
 23 96  1  0  0  0  0
 23 97  1  0  0  0  0
 24 23  1  0  0  0  0
 24 25  1  0  0  0  0
 24 98  1  6  0  0  0
 25 26  1  0  0  0  0
 25 99  1  0  0  0  0
 25100  1  0  0  0  0
 26101  1  0  0  0  0
 26102  1  0  0  0  0
 27 26  1  0  0  0  0
 27 28  1  0  0  0  0
 27 44  1  0  0  0  0
 27103  1  6  0  0  0
 28 29  1  0  0  0  0
 28104  1  0  0  0  0
 28105  1  0  0  0  0
 29 30  1  6  0  0  0
 29 31  1  0  0  0  0
 29  4  1  0  0  0  0
 30106  1  0  0  0  0
 31 32  1  0  0  0  0
 32 33  1  0  0  0  0
 32  5  1  0  0  0  0
 32107  1  6  0  0  0
 33 34  1  0  0  0  0
 33108  1  0  0  0  0
 33109  1  0  0  0  0
 34 35  2  0  0  0  0
 35 36  1  0  0  0  0
 35110  1  0  0  0  0
 36 37  2  0  0  0  0
 36111  1  0  0  0  0
 37 38  1  0  0  0  0
 37 42  1  0  0  0  0
 38 39  1  0  0  0  0
 38112  1  0  0  0  0
 38113  1  0  0  0  0
 39 40  1  0  0  0  0
 39114  1  0  0  0  0
 39115  1  0  0  0  0
 40 41  1  0  0  0  0
 41116  1  0  0  0  0
 41117  1  0  0  0  0
 41118  1  0  0  0  0
 42 43  2  0  0  0  0
 42119  1  0  0  0  0
 43 34  1  0  0  0  0
 43120  1  0  0  0  0
 44 45  1  6  0  0  0
 44 47  1  0  0  0  0
 44  5  1  0  0  0  0
 45 46  1  0  0  0  0
 45121  1  0  0  0  0
 45122  1  0  0  0  0
 46123  1  0  0  0  0
 47 48  1  1  0  0  0
 47  8  1  0  0  0  0
 47 24  1  0  0  0  0
 48124  1  0  0  0  0
 48125  1  0  0  0  0
 48126  1  0  0  0  0
 49 50  1  0  0  0  0
 49127  1  1  0  0  0
 50 51  1  0  0  0  0
 50128  1  0  0  0  0
 50129  1  0  0  0  0
 51 52  1  0  0  0  0
 51 53  1  6  0  0  0
 51 56  1  0  0  0  0
 52130  1  0  0  0  0
 52131  1  0  0  0  0
 52132  1  0  0  0  0
 53 54  2  0  0  0  0
 53 55  1  0  0  0  0
 55133  1  0  0  0  0
 56 57  1  0  0  0  0
 56134  1  0  0  0  0
 56135  1  0  0  0  0
 57 58  1  0  0  0  0
 57136  1  0  0  0  0
 57137  1  0  0  0  0
 58 59  1  1  0  0  0
 58 60  1  0  0  0  0
 58 49  1  0  0  0  0
 59138  1  0  0  0  0
 59139  1  0  0  0  0
 59140  1  0  0  0  0
 60 61  1  0  0  0  0
 60141  1  0  0  0  0
 60142  1  0  0  0  0
 61 62  1  0  0  0  0
 61143  1  0  0  0  0
 61144  1  0  0  0  0
 62 63  1  1  0  0  0
 62  8  1  0  0  0  0
 62 22  1  0  0  0  0
 63145  1  0  0  0  0
 63146  1  0  0  0  0
 63147  1  0  0  0  0
M  END
>  <IDENTIFIER>
CNP0302599.1

>  <Energy>
2959.26

$$$$
