
 OpenBabel09062520303D

 66 69  0  0  0  0  0  0  0  0999 V2000
    6.1414   -0.1835    1.2179 C   0  0  0  0  0  0  0  0  0  0  0  0
    4.9709   -0.3941    0.6086 C   0  0  0  0  0  0  0  0  0  0  0  0
    3.8609   -1.2279    1.0960 C   0  0  0  0  0  0  0  0  0  0  0  0
    3.8083   -1.7271    2.2109 O   0  0  0  0  0  0  0  0  0  0  0  0
    2.6926   -1.0951    0.1379 C   0  0  2  0  0  0  0  0  0  0  0  0
    3.5028   -0.7880   -1.1447 C   0  0  0  0  0  0  0  0  0  0  0  0
    4.5119    0.2492   -0.6648 C   0  0  1  0  0  0  0  0  0  0  0  0
    3.7404    1.5680   -0.3902 C   0  0  0  0  0  0  0  0  0  0  0  0
    2.6589    1.4202    0.7293 C   0  0  2  0  0  0  0  0  0  0  0  0
    3.3312    1.3725    1.9651 O   0  0  0  0  0  0  0  0  0  0  0  0
    1.7634    0.1158    0.5754 C   0  0  1  0  0  0  0  0  0  0  0  0
    0.3734    0.2590   -0.2341 C   0  0  1  0  0  0  0  0  0  0  0  0
    0.6078    0.9198   -1.6275 C   0  0  0  0  0  0  0  0  0  0  0  0
   -0.3157   -1.1866   -0.2746 C   0  0  2  0  0  0  0  0  0  0  0  0
    0.6437   -2.2912   -0.8356 C   0  0  1  0  0  0  0  0  0  0  0  0
    0.9808   -2.0556   -2.1762 O   0  0  0  0  0  0  0  0  0  0  0  0
    1.8998   -2.4043    0.0427 C   0  0  0  0  0  0  0  0  0  0  0  0
   -1.8091   -1.2609   -0.8391 C   0  0  0  0  0  0  0  0  0  0  0  0
   -2.4361   -2.6507   -0.5068 C   0  0  0  0  0  0  0  0  0  0  0  0
   -1.9151   -1.1373   -2.3831 C   0  0  0  0  0  0  0  0  0  0  0  0
   -2.7127   -0.1693   -0.1491 C   0  0  1  0  0  0  0  0  0  0  0  0
   -3.1232   -0.5666    1.1227 O   0  0  0  0  0  0  0  0  0  0  0  0
   -4.4349   -0.7386    1.4754 C   0  0  0  0  0  0  0  0  0  0  0  0
   -4.8087   -1.0694    2.8801 C   0  0  0  0  0  0  0  0  0  0  0  0
   -5.3342   -0.6084    0.6540 O   0  0  0  0  0  0  0  0  0  0  0  0
   -2.0650    1.2233   -0.0391 C   0  0  1  0  0  0  0  0  0  0  0  0
   -2.8515    2.0037    0.8016 O   0  0  0  0  0  0  0  0  0  0  0  0
   -3.4631    3.1733    0.5023 C   0  0  0  0  0  0  0  0  0  0  0  0
   -4.1902    3.9033    1.5896 C   0  0  0  0  0  0  0  0  0  0  0  0
   -3.4195    3.6461   -0.6222 O   0  0  0  0  0  0  0  0  0  0  0  0
   -0.6385    1.1694    0.5771 C   0  0  2  0  0  0  0  0  0  0  0  0
   -0.1675    2.4791    0.7697 O   0  0  0  0  0  0  0  0  0  0  0  0
    6.3714   -0.6724    2.1588 H   0  0  0  0  0  0  0  0  0  0  0  0
    6.8750    0.4837    0.7764 H   0  0  0  0  0  0  0  0  0  0  0  0
    2.9744   -0.4863   -2.0526 H   0  0  0  0  0  0  0  0  0  0  0  0
    4.0724   -1.7026   -1.4414 H   0  0  0  0  0  0  0  0  0  0  0  0
    5.3137    0.3824   -1.4237 H   0  0  0  0  0  0  0  0  0  0  0  0
    3.2883    1.8886   -1.3487 H   0  0  0  0  0  0  0  0  0  0  0  0
    4.4492    2.3719   -0.0941 H   0  0  0  0  0  0  0  0  0  0  0  0
    2.0864    2.3612    0.7429 H   0  0  0  0  0  0  0  0  0  0  0  0
    2.6547    1.5292    2.6749 H   0  0  0  0  0  0  0  0  0  0  0  0
    1.4080   -0.1447    1.5987 H   0  0  0  0  0  0  0  0  0  0  0  0
    1.1412    0.3045   -2.3515 H   0  0  0  0  0  0  0  0  0  0  0  0
    1.1353    1.8822   -1.5181 H   0  0  0  0  0  0  0  0  0  0  0  0
   -0.3017    1.2183   -2.1474 H   0  0  0  0  0  0  0  0  0  0  0  0
   -0.4471   -1.4602    0.7990 H   0  0  0  0  0  0  0  0  0  0  0  0
    0.1513   -3.2810   -0.7613 H   0  0  0  0  0  0  0  0  0  0  0  0
    1.4153   -2.8805   -2.5173 H   0  0  0  0  0  0  0  0  0  0  0  0
    2.5526   -3.2299   -0.3193 H   0  0  0  0  0  0  0  0  0  0  0  0
    1.5623   -2.6841    1.0662 H   0  0  0  0  0  0  0  0  0  0  0  0
   -1.9468   -3.4859   -1.0437 H   0  0  0  0  0  0  0  0  0  0  0  0
   -3.5084   -2.6784   -0.7982 H   0  0  0  0  0  0  0  0  0  0  0  0
   -2.3766   -2.8696    0.5826 H   0  0  0  0  0  0  0  0  0  0  0  0
   -1.3447   -1.9429   -2.8894 H   0  0  0  0  0  0  0  0  0  0  0  0
   -1.6100   -0.1773   -2.8003 H   0  0  0  0  0  0  0  0  0  0  0  0
   -2.9733   -1.2652   -2.6995 H   0  0  0  0  0  0  0  0  0  0  0  0
   -3.6188   -0.0387   -0.7817 H   0  0  0  0  0  0  0  0  0  0  0  0
   -3.9047   -1.1503    3.5151 H   0  0  0  0  0  0  0  0  0  0  0  0
   -5.3621   -2.0314    2.8957 H   0  0  0  0  0  0  0  0  0  0  0  0
   -5.4680   -0.2689    3.2798 H   0  0  0  0  0  0  0  0  0  0  0  0
   -2.0208    1.6742   -1.0488 H   0  0  0  0  0  0  0  0  0  0  0  0
   -4.1183    3.3387    2.5425 H   0  0  0  0  0  0  0  0  0  0  0  0
   -5.2597    4.0185    1.3201 H   0  0  0  0  0  0  0  0  0  0  0  0
   -3.7350    4.9055    1.7366 H   0  0  0  0  0  0  0  0  0  0  0  0
   -0.7574    0.7282    1.5919 H   0  0  0  0  0  0  0  0  0  0  0  0
   -0.2819    2.9843   -0.0764 H   0  0  0  0  0  0  0  0  0  0  0  0
  1  2  2  0  0  0  0
  1 33  1  0  0  0  0
  1 34  1  0  0  0  0
  2  3  1  0  0  0  0
  3  4  2  0  0  0  0
  5  3  1  1  0  0  0
  5  6  1  0  0  0  0
  5 17  1  0  0  0  0
  6  7  1  0  0  0  0
  6 35  1  0  0  0  0
  6 36  1  0  0  0  0
  7  8  1  0  0  0  0
  7  2  1  0  0  0  0
  7 37  1  6  0  0  0
  8  9  1  0  0  0  0
  8 38  1  0  0  0  0
  8 39  1  0  0  0  0
  9 10  1  0  0  0  0
  9 40  1  6  0  0  0
 10 41  1  0  0  0  0
 11  9  1  0  0  0  0
 11 12  1  0  0  0  0
 11  5  1  0  0  0  0
 11 42  1  1  0  0  0
 12 13  1  6  0  0  0
 12 14  1  0  0  0  0
 13 43  1  0  0  0  0
 13 44  1  0  0  0  0
 13 45  1  0  0  0  0
 14 15  1  0  0  0  0
 14 18  1  0  0  0  0
 14 46  1  1  0  0  0
 15 16  1  0  0  0  0
 15 17  1  0  0  0  0
 15 47  1  1  0  0  0
 16 48  1  0  0  0  0
 17 49  1  0  0  0  0
 17 50  1  0  0  0  0
 18 19  1  0  0  0  0
 18 20  1  0  0  0  0
 18 21  1  0  0  0  0
 19 51  1  0  0  0  0
 19 52  1  0  0  0  0
 19 53  1  0  0  0  0
 20 54  1  0  0  0  0
 20 55  1  0  0  0  0
 20 56  1  0  0  0  0
 21 22  1  0  0  0  0
 21 26  1  0  0  0  0
 21 57  1  6  0  0  0
 22 23  1  0  0  0  0
 23 24  1  0  0  0  0
 23 25  2  0  0  0  0
 24 58  1  0  0  0  0
 24 59  1  0  0  0  0
 24 60  1  0  0  0  0
 26 27  1  0  0  0  0
 26 31  1  0  0  0  0
 26 61  1  6  0  0  0
 27 28  1  0  0  0  0
 28 29  1  0  0  0  0
 28 30  2  0  0  0  0
 29 62  1  0  0  0  0
 29 63  1  0  0  0  0
 29 64  1  0  0  0  0
 31 32  1  0  0  0  0
 31 12  1  0  0  0  0
 31 65  1  1  0  0  0
 32 66  1  0  0  0  0
M  END
>  <IDENTIFIER>
CNP0376978.1

>  <Energy>
724.86

$$$$
