
 OpenBabel09092515233D

 47 50  0  0  0  0  0  0  0  0999 V2000
    1.1012    4.7285   -0.8847 C   0  0  0  0  0  0  0  0  0  0  0  0
    1.1100    3.3512   -0.9111 O   0  0  0  0  0  0  0  0  0  0  0  0
    1.3718    2.6076   -2.0166 C   0  0  0  0  0  0  0  0  0  0  0  0
    1.6157    3.1485   -3.0869 O   0  0  0  0  0  0  0  0  0  0  0  0
    1.3896    1.0957   -1.9409 C   0  0  0  0  0  0  0  0  0  0  0  0
    1.0949    0.5601   -0.5139 C   0  0  1  0  0  0  0  0  0  0  0  0
   -0.2591    0.9523    0.0758 C   0  0  0  0  0  0  0  0  0  0  0  0
   -0.3917    0.9795    1.4923 C   0  0  0  0  0  0  0  0  0  0  0  0
   -1.6103    1.3684    2.1043 C   0  0  0  0  0  0  0  0  0  0  0  0
   -1.7784    1.4630    3.4478 O   0  0  0  0  0  0  0  0  0  0  0  0
   -0.7732    1.3567    4.3861 C   0  0  0  0  0  0  0  0  0  0  0  0
   -2.6719    1.6831    1.2626 C   0  0  0  0  0  0  0  0  0  0  0  0
   -3.9125    2.0521    1.5936 O   0  0  0  0  0  0  0  0  0  0  0  0
   -4.6180    2.2625    0.4117 C   0  0  0  0  0  0  0  0  0  0  0  0
   -3.7239    2.0170   -0.6268 O   0  0  0  0  0  0  0  0  0  0  0  0
   -2.5579    1.6656   -0.0789 C   0  0  0  0  0  0  0  0  0  0  0  0
   -1.3721    1.3308   -0.7207 C   0  0  0  0  0  0  0  0  0  0  0  0
    1.3533   -0.9549   -0.3981 C   0  0  0  0  0  0  0  0  0  0  0  0
    0.6021   -1.9442   -1.1026 C   0  0  0  0  0  0  0  0  0  0  0  0
   -0.4273   -1.6423   -1.9226 O   0  0  0  0  0  0  0  0  0  0  0  0
    0.9347   -3.3027   -0.9534 C   0  0  0  0  0  0  0  0  0  0  0  0
    0.2354   -4.3192   -1.6364 C   0  0  0  0  0  0  0  0  0  0  0  0
    0.5982   -5.6583   -1.4679 C   0  0  0  0  0  0  0  0  0  0  0  0
    1.6539   -5.9976   -0.6198 C   0  0  0  0  0  0  0  0  0  0  0  0
    2.3526   -4.9978    0.0626 C   0  0  0  0  0  0  0  0  0  0  0  0
    1.9987   -3.6533   -0.1014 C   0  0  0  0  0  0  0  0  0  0  0  0
    2.6717   -2.7146    0.5464 O   0  0  0  0  0  0  0  0  0  0  0  0
    2.4041   -1.4186    0.4355 C   0  0  0  0  0  0  0  0  0  0  0  0
    3.0879   -0.6321    1.0690 O   0  0  0  0  0  0  0  0  0  0  0  0
    0.8630    5.0688    0.1445 H   0  0  0  0  0  0  0  0  0  0  0  0
    0.3285    5.1200   -1.5795 H   0  0  0  0  0  0  0  0  0  0  0  0
    2.1005    5.1225   -1.1680 H   0  0  0  0  0  0  0  0  0  0  0  0
    2.4103    0.7651   -2.2333 H   0  0  0  0  0  0  0  0  0  0  0  0
    0.6880    0.6919   -2.6927 H   0  0  0  0  0  0  0  0  0  0  0  0
    1.8438    1.1018    0.1045 H   0  0  0  0  0  0  0  0  0  0  0  0
    0.4630    0.7196    2.1033 H   0  0  0  0  0  0  0  0  0  0  0  0
   -1.2038    1.5090    5.3970 H   0  0  0  0  0  0  0  0  0  0  0  0
   -0.0068    2.1432    4.2106 H   0  0  0  0  0  0  0  0  0  0  0  0
   -0.3049    0.3517    4.3435 H   0  0  0  0  0  0  0  0  0  0  0  0
   -4.9790    3.3111    0.3631 H   0  0  0  0  0  0  0  0  0  0  0  0
   -5.4769    1.5600    0.3508 H   0  0  0  0  0  0  0  0  0  0  0  0
   -1.3370    1.3549   -1.7996 H   0  0  0  0  0  0  0  0  0  0  0  0
   -0.7677   -0.7636   -2.0893 H   0  0  0  0  0  0  0  0  0  0  0  0
   -0.5866   -4.0858   -2.3015 H   0  0  0  0  0  0  0  0  0  0  0  0
    0.0593   -6.4342   -1.9972 H   0  0  0  0  0  0  0  0  0  0  0  0
    1.9316   -7.0360   -0.4925 H   0  0  0  0  0  0  0  0  0  0  0  0
    3.1709   -5.2691    0.7178 H   0  0  0  0  0  0  0  0  0  0  0  0
  1  2  1  0  0  0  0
  1 30  1  0  0  0  0
  1 31  1  0  0  0  0
  1 32  1  0  0  0  0
  2  3  1  0  0  0  0
  3  4  2  0  0  0  0
  3  5  1  0  0  0  0
  5 33  1  0  0  0  0
  5 34  1  0  0  0  0
  6  5  1  0  0  0  0
  6  7  1  0  0  0  0
  6 18  1  0  0  0  0
  6 35  1  1  0  0  0
  7  8  2  0  0  0  0
  8  9  1  0  0  0  0
  8 36  1  0  0  0  0
  9 10  1  0  0  0  0
  9 12  2  0  0  0  0
 10 11  1  0  0  0  0
 11 37  1  0  0  0  0
 11 38  1  0  0  0  0
 11 39  1  0  0  0  0
 12 13  1  0  0  0  0
 13 14  1  0  0  0  0
 14 15  1  0  0  0  0
 14 40  1  0  0  0  0
 14 41  1  0  0  0  0
 15 16  1  0  0  0  0
 16 17  2  0  0  0  0
 16 12  1  0  0  0  0
 17  7  1  0  0  0  0
 17 42  1  0  0  0  0
 18 19  2  0  0  0  0
 19 20  1  0  0  0  0
 19 21  1  0  0  0  0
 20 43  1  0  0  0  0
 21 22  2  0  0  0  0
 22 23  1  0  0  0  0
 22 44  1  0  0  0  0
 23 24  2  0  0  0  0
 23 45  1  0  0  0  0
 24 25  1  0  0  0  0
 24 46  1  0  0  0  0
 25 26  2  0  0  0  0
 25 47  1  0  0  0  0
 26 27  1  0  0  0  0
 26 21  1  0  0  0  0
 27 28  1  0  0  0  0
 28 29  2  0  0  0  0
 28 18  1  0  0  0  0
M  END
>  <IDENTIFIER>
CNP0361502.0

>  <Energy>
388.406

$$$$
