
 OpenBabel09072514513D

 99111  0  0  0  0  0  0  0  0999 V2000
    3.5709   -4.2928    1.0902 C   0  0  0  0  0  0  0  0  0  0  0  0
    4.0171   -3.0854    0.2514 C   0  0  0  0  0  0  0  0  0  0  0  0
    4.0649   -1.6812    0.9682 C   0  0  1  0  0  0  0  0  0  0  0  0
    2.6093   -1.2560    1.4009 C   0  0  0  0  0  0  0  0  0  0  0  0
    1.8837   -0.3804    0.3622 C   0  0  1  0  0  0  0  0  0  0  0  0
    0.4110   -0.0400    0.7441 C   0  0  0  0  0  0  0  0  0  0  0  0
   -0.3191    0.9115   -0.3024 C   0  0  1  0  0  0  0  0  0  0  0  0
   -0.7814    0.0851   -1.5630 C   0  0  0  0  0  0  0  0  0  0  0  0
   -2.2463   -0.1632   -1.6885 N   0  0  2  0  0  0  0  0  0  0  0  0
   -2.9719    0.8096   -2.5169 C   0  0  0  0  0  0  0  0  0  0  0  0
   -4.4614    0.5625   -2.2621 C   0  0  0  0  0  0  0  0  0  0  0  0
   -4.4980   -0.3350   -0.9997 C   0  0  2  0  0  0  0  0  0  0  0  0
   -5.5130    0.0725    0.0608 C   0  0  0  0  0  0  0  0  0  0  0  0
   -5.3257    1.1661    0.8293 C   0  0  0  0  0  0  0  0  0  0  0  0
   -6.2237    1.6105    1.9421 C   0  0  0  0  0  0  0  0  0  0  0  0
   -7.2651    1.0149    2.1833 O   0  0  0  0  0  0  0  0  0  0  0  0
   -5.8664    2.6885    2.6858 O   0  0  0  0  0  0  0  0  0  0  0  0
   -6.6157    3.1910    3.7324 C   0  0  0  0  0  0  0  0  0  0  0  0
   -4.0377    1.9142    0.5637 C   0  0  0  0  0  0  0  0  0  0  0  0
   -2.8304    0.8908    0.5668 C   0  0  2  0  0  0  0  0  0  0  0  0
   -2.5960    0.4001    1.9841 C   0  0  0  0  0  0  0  0  0  0  0  0
   -1.9064    1.6031    2.6025 C   0  0  0  0  0  0  0  0  0  0  0  0
   -1.1582    2.2495    1.5830 O   0  0  0  0  0  0  0  0  0  0  0  0
   -1.5341    1.6722    0.3355 C   0  0  1  0  0  0  0  0  0  0  0  0
   -3.0452   -0.3090   -0.4591 C   0  0  2  0  0  0  0  0  0  0  0  0
   -6.5539   -0.8831    0.1728 N   0  0  0  0  0  0  0  0  0  0  0  0
   -6.2290   -1.9319   -0.6928 C   0  0  0  0  0  0  0  0  0  0  0  0
   -6.9692   -3.0964   -0.8880 C   0  0  0  0  0  0  0  0  0  0  0  0
   -6.4905   -4.0398   -1.8104 C   0  0  0  0  0  0  0  0  0  0  0  0
   -5.2901   -3.8051   -2.5104 C   0  0  0  0  0  0  0  0  0  0  0  0
   -4.5601   -2.6233   -2.2959 C   0  0  0  0  0  0  0  0  0  0  0  0
   -5.0497   -1.6937   -1.3730 C   0  0  0  0  0  0  0  0  0  0  0  0
    0.6558    2.0652   -0.7584 C   0  0  0  0  0  0  0  0  0  0  0  0
    2.0210    1.6093   -0.8977 N   0  0  0  0  0  0  0  0  0  0  0  0
    2.8972    1.7450   -1.9821 C   0  0  0  0  0  0  0  0  0  0  0  0
    2.6081    2.2722   -3.2454 C   0  0  0  0  0  0  0  0  0  0  0  0
    3.6338    2.3092   -4.2012 C   0  0  0  0  0  0  0  0  0  0  0  0
    4.9138    1.8265   -3.8855 C   0  0  0  0  0  0  0  0  0  0  0  0
    5.1801    1.3047   -2.6112 C   0  0  0  0  0  0  0  0  0  0  0  0
    4.1512    1.2765   -1.6537 C   0  0  0  0  0  0  0  0  0  0  0  0
    4.1582    0.7700   -0.2045 C   0  0  2  0  0  0  0  0  0  0  0  0
    5.1352    1.5485    0.6743 C   0  0  0  0  0  0  0  0  0  0  0  0
    6.4708    0.9065    0.3793 C   0  0  0  0  0  0  0  0  0  0  0  0
    6.1918   -0.5016    0.0113 N   0  0  1  0  0  0  0  0  0  0  0  0
    6.9532   -1.4816    0.8076 C   0  0  0  0  0  0  0  0  0  0  0  0
    6.3562   -1.7655    2.1877 C   0  0  1  0  0  0  0  0  0  0  0  0
    5.5792   -0.7106    2.7105 O   0  0  0  0  0  0  0  0  0  0  0  0
    4.8923   -1.8614    2.2715 C   0  0  1  0  0  0  0  0  0  0  0  0
    4.7155   -0.6744   -0.1013 C   0  0  1  0  0  0  0  0  0  0  0  0
    2.6543    0.9540    0.2069 C   0  0  2  0  0  0  0  0  0  0  0  0
    2.5264    1.8162    1.3271 O   0  0  0  0  0  0  0  0  0  0  0  0
    3.6191   -5.2039    0.4562 H   0  0  0  0  0  0  0  0  0  0  0  0
    2.5301   -4.2005    1.4513 H   0  0  0  0  0  0  0  0  0  0  0  0
    4.2501   -4.4543    1.9523 H   0  0  0  0  0  0  0  0  0  0  0  0
    3.3484   -3.0247   -0.6354 H   0  0  0  0  0  0  0  0  0  0  0  0
    5.0298   -3.3387   -0.1222 H   0  0  0  0  0  0  0  0  0  0  0  0
    2.6561   -0.6927    2.3502 H   0  0  0  0  0  0  0  0  0  0  0  0
    1.9953   -2.1350    1.6662 H   0  0  0  0  0  0  0  0  0  0  0  0
    1.8809   -0.9392   -0.5995 H   0  0  0  0  0  0  0  0  0  0  0  0
    0.4687    0.4593    1.7311 H   0  0  0  0  0  0  0  0  0  0  0  0
   -0.1534   -0.9863    0.8711 H   0  0  0  0  0  0  0  0  0  0  0  0
   -0.2597   -0.8943   -1.5806 H   0  0  0  0  0  0  0  0  0  0  0  0
   -0.4329    0.5658   -2.5038 H   0  0  0  0  0  0  0  0  0  0  0  0
   -2.7130    0.7290   -3.5943 H   0  0  0  0  0  0  0  0  0  0  0  0
   -2.7216    1.8377   -2.1963 H   0  0  0  0  0  0  0  0  0  0  0  0
   -4.9028    0.0253   -3.1316 H   0  0  0  0  0  0  0  0  0  0  0  0
   -5.0174    1.5210   -2.1926 H   0  0  0  0  0  0  0  0  0  0  0  0
   -6.0876    4.0627    4.1676 H   0  0  0  0  0  0  0  0  0  0  0  0
   -6.7425    2.4168    4.5199 H   0  0  0  0  0  0  0  0  0  0  0  0
   -7.6107    3.5232    3.3651 H   0  0  0  0  0  0  0  0  0  0  0  0
   -3.9000    2.7544    1.2692 H   0  0  0  0  0  0  0  0  0  0  0  0
   -4.1110    2.4110   -0.4200 H   0  0  0  0  0  0  0  0  0  0  0  0
   -1.8694   -0.4282    1.9765 H   0  0  0  0  0  0  0  0  0  0  0  0
   -3.4812    0.0251    2.5404 H   0  0  0  0  0  0  0  0  0  0  0  0
   -1.2659    1.2888    3.4543 H   0  0  0  0  0  0  0  0  0  0  0  0
   -2.6545    2.3246    2.9880 H   0  0  0  0  0  0  0  0  0  0  0  0
   -1.7847    2.4877   -0.3753 H   0  0  0  0  0  0  0  0  0  0  0  0
   -2.7800   -1.2670    0.0414 H   0  0  0  0  0  0  0  0  0  0  0  0
   -7.3683   -0.8714    0.8020 H   0  0  0  0  0  0  0  0  0  0  0  0
   -7.8922   -3.2659   -0.3485 H   0  0  0  0  0  0  0  0  0  0  0  0
   -7.0495   -4.9500   -1.9861 H   0  0  0  0  0  0  0  0  0  0  0  0
   -4.9332   -4.5357   -3.2240 H   0  0  0  0  0  0  0  0  0  0  0  0
   -3.6452   -2.4336   -2.8416 H   0  0  0  0  0  0  0  0  0  0  0  0
    0.6908    2.8422    0.0348 H   0  0  0  0  0  0  0  0  0  0  0  0
    0.2826    2.5860   -1.6645 H   0  0  0  0  0  0  0  0  0  0  0  0
    1.6229    2.6353   -3.4983 H   0  0  0  0  0  0  0  0  0  0  0  0
    3.4377    2.7071   -5.1879 H   0  0  0  0  0  0  0  0  0  0  0  0
    5.6988    1.8531   -4.6290 H   0  0  0  0  0  0  0  0  0  0  0  0
    6.1664    0.9252   -2.4064 H   0  0  0  0  0  0  0  0  0  0  0  0
    4.9178    1.3098    1.7302 H   0  0  0  0  0  0  0  0  0  0  0  0
    5.1084    2.6549    0.5796 H   0  0  0  0  0  0  0  0  0  0  0  0
    7.1732    1.0409    1.2333 H   0  0  0  0  0  0  0  0  0  0  0  0
    6.9416    1.4067   -0.4861 H   0  0  0  0  0  0  0  0  0  0  0  0
    7.9972   -1.1216    0.9404 H   0  0  0  0  0  0  0  0  0  0  0  0
    7.0349   -2.4345    0.2501 H   0  0  0  0  0  0  0  0  0  0  0  0
    6.9143   -2.3291    2.9635 H   0  0  0  0  0  0  0  0  0  0  0  0
    4.4915   -2.4395    3.1314 H   0  0  0  0  0  0  0  0  0  0  0  0
    4.4728   -1.1103   -1.0964 H   0  0  0  0  0  0  0  0  0  0  0  0
    2.7783    1.3511    2.1584 H   0  0  0  0  0  0  0  0  0  0  0  0
  1  2  1  0  0  0  0
  1 52  1  0  0  0  0
  1 53  1  0  0  0  0
  1 54  1  0  0  0  0
  2 55  1  0  0  0  0
  2 56  1  0  0  0  0
  3  2  1  6  0  0  0
  3  4  1  0  0  0  0
  4 57  1  0  0  0  0
  4 58  1  0  0  0  0
  5  4  1  0  0  0  0
  5  6  1  0  0  0  0
  5 59  1  6  0  0  0
  6 60  1  0  0  0  0
  6 61  1  0  0  0  0
  7  6  1  1  0  0  0
  7  8  1  0  0  0  0
  7 33  1  0  0  0  0
  8 62  1  0  0  0  0
  8 63  1  0  0  0  0
  9  8  1  1  0  0  0
  9 10  1  0  0  0  0
 10 11  1  0  0  0  0
 10 64  1  0  0  0  0
 10 65  1  0  0  0  0
 11 66  1  0  0  0  0
 11 67  1  0  0  0  0
 12 11  1  0  0  0  0
 12 13  1  1  0  0  0
 13 14  2  0  0  0  0
 13 26  1  0  0  0  0
 14 15  1  0  0  0  0
 14 19  1  0  0  0  0
 15 16  2  0  0  0  0
 15 17  1  0  0  0  0
 17 18  1  0  0  0  0
 18 68  1  0  0  0  0
 18 69  1  0  0  0  0
 18 70  1  0  0  0  0
 19 71  1  0  0  0  0
 19 72  1  0  0  0  0
 20 19  1  6  0  0  0
 20 21  1  0  0  0  0
 20 25  1  0  0  0  0
 21 22  1  0  0  0  0
 21 73  1  0  0  0  0
 21 74  1  0  0  0  0
 22 23  1  0  0  0  0
 22 75  1  0  0  0  0
 22 76  1  0  0  0  0
 24 23  1  0  0  0  0
 24  7  1  0  0  0  0
 24 20  1  0  0  0  0
 24 77  1  6  0  0  0
 25  9  1  0  0  0  0
 25 12  1  0  0  0  0
 25 78  1  1  0  0  0
 26 27  1  0  0  0  0
 26 79  1  0  0  0  0
 27 28  2  0  0  0  0
 28 29  1  0  0  0  0
 28 80  1  0  0  0  0
 29 30  2  0  0  0  0
 29 81  1  0  0  0  0
 30 31  1  0  0  0  0
 30 82  1  0  0  0  0
 31 32  2  0  0  0  0
 31 83  1  0  0  0  0
 32 27  1  0  0  0  0
 32 12  1  0  0  0  0
 33 34  1  0  0  0  0
 33 84  1  0  0  0  0
 33 85  1  0  0  0  0
 34 35  1  0  0  0  0
 35 36  2  0  0  0  0
 36 37  1  0  0  0  0
 36 86  1  0  0  0  0
 37 38  2  0  0  0  0
 37 87  1  0  0  0  0
 38 39  1  0  0  0  0
 38 88  1  0  0  0  0
 39 40  2  0  0  0  0
 39 89  1  0  0  0  0
 40 35  1  0  0  0  0
 41 40  1  6  0  0  0
 41 42  1  0  0  0  0
 41 50  1  0  0  0  0
 42 43  1  0  0  0  0
 42 90  1  0  0  0  0
 42 91  1  0  0  0  0
 43 92  1  0  0  0  0
 43 93  1  0  0  0  0
 44 43  1  1  0  0  0
 44 45  1  0  0  0  0
 45 94  1  0  0  0  0
 45 95  1  0  0  0  0
 46 45  1  0  0  0  0
 46 47  1  0  0  0  0
 46 96  1  1  0  0  0
 48 47  1  0  0  0  0
 48  3  1  0  0  0  0
 48 46  1  0  0  0  0
 48 97  1  1  0  0  0
 49 44  1  0  0  0  0
 49  3  1  0  0  0  0
 49 41  1  0  0  0  0
 49 98  1  6  0  0  0
 50 51  1  1  0  0  0
 50  5  1  0  0  0  0
 50 34  1  0  0  0  0
 51 99  1  0  0  0  0
M  END
>  <IDENTIFIER>
CNP0231278.1

>  <Energy>
3284.38

$$$$
