
 OpenBabel09082523362D

171170  0  0  0  0  0  0  0  0999 V2000
   -3.7500   -6.4952    0.0000 C   0  0  0  0  0  0  0  0  0  0  0  0
   -3.0000   -5.1962    0.0000 C   0  0  0  0  0  0  0  0  0  0  0  0
   -3.3942   -3.7212   -0.1455 C   0  0  0  0  0  0  0  0  0  0  0  0
   -2.0634   -2.8386   -0.1593 C   0  0  0  0  0  0  0  0  0  0  0  0
   -2.3943   -1.3525   -0.3033 C   0  0  0  0  0  0  0  0  0  0  0  0
   -1.3925   -0.1867   -0.4177 C   0  0  0  0  0  0  0  0  0  0  0  0
   -0.0665    0.1888   -0.4370 C   0  0  0  0  0  0  0  0  0  0  0  0
    1.3988   -0.2741   -0.3435 C   0  0  0  0  0  0  0  0  0  0  0  0
    1.8890   -1.6643   -0.0606 C   0  0  0  0  0  0  0  0  0  0  0  0
    3.2297   -1.9595    0.0045 C   0  0  0  0  0  0  0  0  0  0  0  0
    4.4313   -0.9993   -0.2131 C   0  0  0  0  0  0  0  0  0  0  0  0
    5.3656   -0.9486    0.9970 C   0  0  0  0  0  0  0  0  0  0  0  0
    6.5594   -0.2857    1.1323 C   0  0  0  0  0  0  0  0  0  0  0  0
    7.3247    0.5663    0.1158 C   0  0  0  0  0  0  0  0  0  0  0  0
    8.7449    0.0282   -0.0719 C   0  0  0  0  0  0  0  0  0  0  0  0
    9.9480    0.6661    0.0961 C   0  0  0  0  0  0  0  0  0  0  0  0
   10.2183    2.1226    0.4850 C   0  0  0  0  0  0  0  0  0  0  0  0
   11.7580    2.4080    0.6040 C   0  0  0  0  0  2  0  0  0  0  0  0
   12.1727    3.9116    0.7173 C   0  0  0  0  0  0  0  0  0  0  0  0
   13.6527    4.1771    1.0537 C   0  0  0  0  0  0  0  0  0  0  0  0
   14.4130    3.2403    1.2578 O   0  0  0  0  0  0  0  0  0  0  0  0
   14.1112    5.4731    1.1498 O   0  0  0  0  0  0  0  0  0  0  0  0
   15.3201    5.9450    1.6992 C   0  0  0  0  0  0  0  0  0  0  0  0
   16.1560    6.8152    0.6974 C   0  0  2  0  0  0  0  0  0  0  0  0
   15.2657    7.8246   -0.0368 C   0  0  0  0  0  0  0  0  0  0  0  0
   14.5037    8.6187    0.8110 O   0  0  0  0  0  0  0  0  0  0  0  0
   13.7499    9.6391    0.2948 C   0  0  0  0  0  0  0  0  0  0  0  0
   14.0639   10.1335   -0.7814 O   0  0  0  0  0  0  0  0  0  0  0  0
   12.4557   10.1096    0.9363 C   0  0  0  0  0  0  0  0  0  0  0  0
   11.3038    9.6962    0.0000 C   0  0  0  0  0  0  0  0  0  0  0  0
   10.0048   10.4462    0.0000 C   0  0  0  0  0  0  0  0  0  0  0  0
    8.7058   11.1962    0.0000 C   0  0  0  0  0  0  0  0  0  0  0  0
    8.6024   12.3477    1.0210 C   0  0  0  0  0  0  0  0  0  0  0  0
    8.5004   13.6850    0.7341 C   0  0  0  0  0  0  0  0  0  0  0  0
    8.5786   14.2272   -0.6773 C   0  0  0  0  0  0  0  0  0  0  0  0
    8.4624   15.7151   -1.0438 C   0  0  0  0  0  0  0  0  0  0  0  0
    8.1139   16.8792   -0.4231 C   0  0  0  0  0  0  0  0  0  0  0  0
    7.6225   17.1242    0.9935 C   0  0  0  0  0  0  0  0  0  0  0  0
    7.4195   18.5685    1.5511 C   0  0  0  0  0  0  0  0  0  0  0  0
    7.8419   19.8261    1.1837 C   0  0  0  0  0  0  0  0  0  0  0  0
    8.7058   20.1962    0.0000 C   0  0  0  0  0  0  0  0  0  0  0  0
   10.0048   20.9462    0.0000 C   0  0  0  0  0  0  0  0  0  0  0  0
   11.3038   21.6962    0.0000 C   0  0  0  0  0  0  0  0  0  0  0  0
   12.6029   22.4462    0.0000 C   0  0  0  0  0  0  0  0  0  0  0  0
   13.9019   23.1962    0.0000 C   0  0  0  0  0  0  0  0  0  0  0  0
   17.2074    7.5315    1.3068 O   0  0  0  0  0  0  0  0  0  0  0  0
   18.5571    7.4332    1.0164 C   0  0  0  0  0  0  0  0  0  0  0  0
   18.9890    6.4206    0.4874 O   0  0  0  0  0  0  0  0  0  0  0  0
   19.5359    8.5965    1.3059 C   0  0  0  0  0  0  0  0  0  0  0  0
   20.2500    9.0933    0.0000 C   0  0  0  0  0  0  0  0  0  0  0  0
   21.0000   10.3923    0.0000 C   0  0  0  0  0  0  0  0  0  0  0  0
   21.7500   11.6913    0.0000 C   0  0  0  0  0  0  0  0  0  0  0  0
   22.1152   13.3125   -0.2450 C   0  0  0  0  0  0  0  0  0  0  0  0
   23.6096   13.9702    0.2327 C   0  0  0  0  0  0  0  0  0  0  0  0
   24.0000   15.5885    0.0000 C   0  0  0  0  0  0  0  0  0  0  0  0
   24.7500   16.8875    0.0000 C   0  0  0  0  0  2  0  0  0  0  0  0
   25.5000   18.1865    0.0000 C   0  0  0  0  0  0  0  0  0  0  0  0
   26.2500   19.4856    0.0000 C   0  0  0  0  0  0  0  0  0  0  0  0
   27.0000   20.7846    0.0000 C   0  0  0  0  0  2  0  0  0  0  0  0
   27.7500   22.0836    0.0000 C   0  0  0  0  0  0  0  0  0  0  0  0
   28.3275   23.5986    0.4452 C   0  0  0  0  0  0  0  0  0  0  0  0
   29.4658   24.4624   -0.4814 C   0  0  0  0  0  0  0  0  0  0  0  0
   30.0000   25.9808    0.0000 C   0  0  0  0  0  0  0  0  0  0  0  0
   30.7500   27.2798    0.0000 C   0  0  0  0  0  0  0  0  0  0  0  0
   31.5000   28.5788    0.0000 C   0  0  0  0  0  0  0  0  0  0  0  0
   31.8311   30.2265   -0.0115 C   0  0  0  0  0  0  0  0  0  0  0  0
   33.4252   30.8269    0.0175 C   0  0  0  0  0  0  0  0  0  0  0  0
   33.7500   32.4760    0.0000 C   0  0  0  0  0  0  0  0  0  0  0  0
   34.5000   33.7750    0.0000 C   0  0  0  0  0  0  0  0  0  0  0  0
   -4.3351   -6.2807    0.9210 H   0  0  0  0  0  0  0  0  0  0  0  0
   -2.8817   -7.1642    0.2086 H   0  0  0  0  0  0  0  0  0  0  0  0
   -4.2850   -7.4218    0.0000 H   0  0  0  0  0  0  0  0  0  0  0  0
   -2.2862   -5.3444   -0.8438 H   0  0  0  0  0  0  0  0  0  0  0  0
   -2.3886   -5.2091    0.9371 H   0  0  0  0  0  0  0  0  0  0  0  0
   -4.0472   -3.4259    0.7041 H   0  0  0  0  0  0  0  0  0  0  0  0
   -3.9505   -3.5805   -1.0975 H   0  0  0  0  0  0  0  0  0  0  0  0
   -1.4922   -2.9870    0.7827 H   0  0  0  0  0  0  0  0  0  0  0  0
   -1.4225   -3.1411   -1.0157 H   0  0  0  0  0  0  0  0  0  0  0  0
   -3.0146   -1.2781   -1.2236 H   0  0  0  0  0  0  0  0  0  0  0  0
   -3.0497   -1.0988    0.5585 H   0  0  0  0  0  0  0  0  0  0  0  0
   -2.0147    0.7013   -0.5400 H   0  0  0  0  0  0  0  0  0  0  0  0
   -0.0040    1.2685   -0.5823 H   0  0  0  0  0  0  0  0  0  0  0  0
    1.8451    0.3516    0.4606 H   0  0  0  0  0  0  0  0  0  0  0  0
    1.8612    0.0286   -1.3080 H   0  0  0  0  0  0  0  0  0  0  0  0
    1.1622   -2.4538    0.1024 H   0  0  0  0  0  0  0  0  0  0  0  0
    3.4893   -2.9936    0.2155 H   0  0  0  0  0  0  0  0  0  0  0  0
    5.0093   -1.3828   -1.0808 H   0  0  0  0  0  0  0  0  0  0  0  0
    4.0962    0.0310   -0.4467 H   0  0  0  0  0  0  0  0  0  0  0  0
    5.0383   -1.5092    1.8690 H   0  0  0  0  0  0  0  0  0  0  0  0
    7.0441   -0.3740    2.1011 H   0  0  0  0  0  0  0  0  0  0  0  0
    6.7930    0.5524   -0.8585 H   0  0  0  0  0  0  0  0  0  0  0  0
    7.3746    1.6137    0.4789 H   0  0  0  0  0  0  0  0  0  0  0  0
    8.7982   -1.0129   -0.3824 H   0  0  0  0  0  0  0  0  0  0  0  0
   10.8295    0.0559   -0.0865 H   0  0  0  0  0  0  0  0  0  0  0  0
    9.7779    2.7793   -0.2938 H   0  0  0  0  0  0  0  0  0  0  0  0
    9.7413    2.3418    1.4620 H   0  0  0  0  0  0  0  0  0  0  0  0
   11.9347    4.4026   -0.2473 H   0  0  0  0  0  0  0  0  0  0  0  0
   11.5560    4.3857    1.5127 H   0  0  0  0  0  0  0  0  0  0  0  0
   15.9473    5.1198    2.0960 H   0  0  0  0  0  0  0  0  0  0  0  0
   15.0470    6.5976    2.5563 H   0  0  0  0  0  0  0  0  0  0  0  0
   16.5677    6.1372   -0.0843 H   0  0  0  0  0  0  0  0  0  0  0  0
   14.5617    7.2667   -0.7034 H   0  0  0  0  0  0  0  0  0  0  0  0
   15.9191    8.4479   -0.6845 H   0  0  0  0  0  0  0  0  0  0  0  0
   12.5088   11.2187    1.0177 H   0  0  0  0  0  0  0  0  0  0  0  0
   12.2850    9.6811    1.9510 H   0  0  0  0  0  0  0  0  0  0  0  0
   11.6706    9.8972   -1.0358 H   0  0  0  0  0  0  0  0  0  0  0  0
   11.1757    8.5865    0.0784 H   0  0  0  0  0  0  0  0  0  0  0  0
    9.5938    9.7518   -0.7798 H   0  0  0  0  0  0  0  0  0  0  0  0
    9.7985   10.0653    1.0283 H   0  0  0  0  0  0  0  0  0  0  0  0
    7.8246   10.5250    0.1563 H   0  0  0  0  0  0  0  0  0  0  0  0
    8.5979   11.6287   -1.0179 H   0  0  0  0  0  0  0  0  0  0  0  0
    8.5757   12.0600    2.0679 H   0  0  0  0  0  0  0  0  0  0  0  0
    8.3923   14.3746    1.5603 H   0  0  0  0  0  0  0  0  0  0  0  0
    9.5841   13.9135   -1.0367 H   0  0  0  0  0  0  0  0  0  0  0  0
    7.8144   13.7178   -1.2961 H   0  0  0  0  0  0  0  0  0  0  0  0
    8.7223   15.8551   -2.0921 H   0  0  0  0  0  0  0  0  0  0  0  0
    8.1332   17.7158   -1.0964 H   0  0  0  0  0  0  0  0  0  0  0  0
    6.6258   16.6289    1.0156 H   0  0  0  0  0  0  0  0  0  0  0  0
    8.2691   16.6074    1.7236 H   0  0  0  0  0  0  0  0  0  0  0  0
    6.8056   18.5676    2.4482 H   0  0  0  0  0  0  0  0  0  0  0  0
    7.4872   20.6639    1.7783 H   0  0  0  0  0  0  0  0  0  0  0  0
    8.0414   20.5266   -0.8378 H   0  0  0  0  0  0  0  0  0  0  0  0
    9.1125   19.2525   -0.3573 H   0  0  0  0  0  0  0  0  0  0  0  0
   10.2917   20.4744    0.9751 H   0  0  0  0  0  0  0  0  0  0  0  0
    9.3198   21.8464    0.1017 H   0  0  0  0  0  0  0  0  0  0  0  0
   10.9898   22.4413    0.8093 H   0  0  0  0  0  0  0  0  0  0  0  0
   11.0299   22.1336   -1.0019 H   0  0  0  0  0  0  0  0  0  0  0  0
   12.9975   21.7941   -0.8283 H   0  0  0  0  0  0  0  0  0  0  0  0
   12.8669   21.9194    0.9740 H   0  0  0  0  0  0  0  0  0  0  0  0
   14.6554   22.3892    0.2347 H   0  0  0  0  0  0  0  0  0  0  0  0
   13.6713   23.8564    0.8694 H   0  0  0  0  0  0  0  0  0  0  0  0
   14.8285   23.7312    0.0000 H   0  0  0  0  0  0  0  0  0  0  0  0
   18.9384    9.4272    1.7414 H   0  0  0  0  0  0  0  0  0  0  0  0
   20.3016    8.2897    2.0488 H   0  0  0  0  0  0  0  0  0  0  0  0
   20.8982    8.2826   -0.4031 H   0  0  0  0  0  0  0  0  0  0  0  0
   19.3916    9.1950   -0.7185 H   0  0  0  0  0  0  0  0  0  0  0  0
   20.1021   10.9406    0.3754 H   0  0  0  0  0  0  0  0  0  0  0  0
   21.0063   10.4062   -1.1220 H   0  0  0  0  0  0  0  0  0  0  0  0
   21.9730   11.7032    1.0931 H   0  0  0  0  0  0  0  0  0  0  0  0
   22.7061   11.3199   -0.4479 H   0  0  0  0  0  0  0  0  0  0  0  0
   22.0175   13.5022   -1.3345 H   0  0  0  0  0  0  0  0  0  0  0  0
   21.3239   13.9020    0.2640 H   0  0  0  0  0  0  0  0  0  0  0  0
   24.3948   13.3779   -0.2827 H   0  0  0  0  0  0  0  0  0  0  0  0
   23.7112   13.7720    1.3203 H   0  0  0  0  0  0  0  0  0  0  0  0
   23.0990   15.9959    0.5044 H   0  0  0  0  0  0  0  0  0  0  0  0
   23.7718   15.6064   -1.0861 H   0  0  0  0  0  0  0  0  0  0  0  0
   26.0557   17.8174   -0.8959 H   0  0  0  0  0  0  0  0  0  0  0  0
   26.0556   17.8175    0.8960 H   0  0  0  0  0  0  0  0  0  0  0  0
   25.6942   19.8548    0.8958 H   0  0  0  0  0  0  0  0  0  0  0  0
   25.6945   19.8546   -0.8961 H   0  0  0  0  0  0  0  0  0  0  0  0
   27.4308   22.3802   -1.0209 H   0  0  0  0  0  0  0  0  0  0  0  0
   28.7494   21.6157   -0.1193 H   0  0  0  0  0  0  0  0  0  0  0  0
   28.7669   23.4849    1.4585 H   0  0  0  0  0  0  0  0  0  0  0  0
   27.4384   24.2559    0.5468 H   0  0  0  0  0  0  0  0  0  0  0  0
   30.3626   23.8155   -0.5835 H   0  0  0  0  0  0  0  0  0  0  0  0
   29.0289   24.5796   -1.4958 H   0  0  0  0  0  0  0  0  0  0  0  0
   28.9374   26.3401    0.1081 H   0  0  0  0  0  0  0  0  0  0  0  0
   30.3469   25.6198    0.9984 H   0  0  0  0  0  0  0  0  0  0  0  0
   30.2420   27.5745   -0.9542 H   0  0  0  0  0  0  0  0  0  0  0  0
   30.1935   27.6891    0.8929 H   0  0  0  0  0  0  0  0  0  0  0  0
   32.1722   28.3493   -0.8629 H   0  0  0  0  0  0  0  0  0  0  0  0
   32.1431   28.3693    0.8915 H   0  0  0  0  0  0  0  0  0  0  0  0
   31.3097   30.6634    0.8659 H   0  0  0  0  0  0  0  0  0  0  0  0
   31.3484   30.6428   -0.9206 H   0  0  0  0  0  0  0  0  0  0  0  0
   33.9099   30.4113    0.9261 H   0  0  0  0  0  0  0  0  0  0  0  0
   33.9456   30.3885   -0.8601 H   0  0  0  0  0  0  0  0  0  0  0  0
   33.1146   32.6406   -0.9079 H   0  0  0  0  0  0  0  0  0  0  0  0
   33.1259   32.6890    0.8987 H   0  0  0  0  0  0  0  0  0  0  0  0
   35.0439   33.5947   -0.9546 H   0  0  0  0  0  0  0  0  0  0  0  0
   33.6398   34.4818   -0.1228 H   0  0  0  0  0  0  0  0  0  0  0  0
   35.0350   34.7016    0.0000 H   0  0  0  0  0  0  0  0  0  0  0  0
  1  2  1  0  0  0  0
  1 70  1  0  0  0  0
  1 71  1  0  0  0  0
  1 72  1  0  0  0  0
  2  3  1  0  0  0  0
  2 73  1  0  0  0  0
  2 74  1  0  0  0  0
  3  4  1  0  0  0  0
  3 75  1  0  0  0  0
  3 76  1  0  0  0  0
  4  5  1  0  0  0  0
  4 77  1  0  0  0  0
  4 78  1  0  0  0  0
  5  6  1  0  0  0  0
  5 79  1  0  0  0  0
  5 80  1  0  0  0  0
  6  7  2  0  0  0  0
  6 81  1  0  0  0  0
  7  8  1  0  0  0  0
  7 82  1  0  0  0  0
  8  9  1  0  0  0  0
  8 83  1  0  0  0  0
  8 84  1  0  0  0  0
  9 10  2  0  0  0  0
  9 85  1  0  0  0  0
 10 11  1  0  0  0  0
 10 86  1  0  0  0  0
 11 12  1  0  0  0  0
 11 87  1  0  0  0  0
 11 88  1  0  0  0  0
 12 13  2  0  0  0  0
 12 89  1  0  0  0  0
 13 14  1  0  0  0  0
 13 90  1  0  0  0  0
 14 15  1  0  0  0  0
 14 91  1  0  0  0  0
 14 92  1  0  0  0  0
 15 16  2  0  0  0  0
 15 93  1  0  0  0  0
 16 17  1  0  0  0  0
 16 94  1  0  0  0  0
 17 18  1  0  0  0  0
 17 95  1  0  0  0  0
 17 96  1  0  0  0  0
 18 19  1  0  0  0  0
 19 20  1  0  0  0  0
 19 97  1  0  0  0  0
 19 98  1  0  0  0  0
 20 21  2  0  0  0  0
 20 22  1  0  0  0  0
 22 23  1  0  0  0  0
 23 99  1  0  0  0  0
 23100  1  0  0  0  0
 24 23  1  0  0  0  0
 24 25  1  0  0  0  0
 24 46  1  0  0  0  0
 24101  1  1  0  0  0
 25 26  1  0  0  0  0
 25102  1  0  0  0  0
 25103  1  0  0  0  0
 26 27  1  0  0  0  0
 27 28  2  0  0  0  0
 27 29  1  0  0  0  0
 29 30  1  0  0  0  0
 29104  1  0  0  0  0
 29105  1  0  0  0  0
 30 31  1  0  0  0  0
 30106  1  0  0  0  0
 30107  1  0  0  0  0
 31 32  1  0  0  0  0
 31108  1  0  0  0  0
 31109  1  0  0  0  0
 32 33  1  0  0  0  0
 32110  1  0  0  0  0
 32111  1  0  0  0  0
 33 34  2  0  0  0  0
 33112  1  0  0  0  0
 34 35  1  0  0  0  0
 34113  1  0  0  0  0
 35 36  1  0  0  0  0
 35114  1  0  0  0  0
 35115  1  0  0  0  0
 36 37  2  0  0  0  0
 36116  1  0  0  0  0
 37 38  1  0  0  0  0
 37117  1  0  0  0  0
 38 39  1  0  0  0  0
 38118  1  0  0  0  0
 38119  1  0  0  0  0
 39 40  2  0  0  0  0
 39120  1  0  0  0  0
 40 41  1  0  0  0  0
 40121  1  0  0  0  0
 41 42  1  0  0  0  0
 41122  1  0  0  0  0
 41123  1  0  0  0  0
 42 43  1  0  0  0  0
 42124  1  0  0  0  0
 42125  1  0  0  0  0
 43 44  1  0  0  0  0
 43126  1  0  0  0  0
 43127  1  0  0  0  0
 44 45  1  0  0  0  0
 44128  1  0  0  0  0
 44129  1  0  0  0  0
 45130  1  0  0  0  0
 45131  1  0  0  0  0
 45132  1  0  0  0  0
 46 47  1  0  0  0  0
 47 48  2  0  0  0  0
 47 49  1  0  0  0  0
 49 50  1  0  0  0  0
 49133  1  0  0  0  0
 49134  1  0  0  0  0
 50 51  1  0  0  0  0
 50135  1  0  0  0  0
 50136  1  0  0  0  0
 51 52  1  0  0  0  0
 51137  1  0  0  0  0
 51138  1  0  0  0  0
 52 53  1  0  0  0  0
 52139  1  0  0  0  0
 52140  1  0  0  0  0
 53 54  1  0  0  0  0
 53141  1  0  0  0  0
 53142  1  0  0  0  0
 54 55  1  0  0  0  0
 54143  1  0  0  0  0
 54144  1  0  0  0  0
 55 56  1  0  0  0  0
 55145  1  0  0  0  0
 55146  1  0  0  0  0
 56 57  1  0  0  0  0
 57 58  1  0  0  0  0
 57147  1  0  0  0  0
 57148  1  0  0  0  0
 58 59  1  0  0  0  0
 58149  1  0  0  0  0
 58150  1  0  0  0  0
 59 60  1  0  0  0  0
 60 61  1  0  0  0  0
 60151  1  0  0  0  0
 60152  1  0  0  0  0
 61 62  1  0  0  0  0
 61153  1  0  0  0  0
 61154  1  0  0  0  0
 62 63  1  0  0  0  0
 62155  1  0  0  0  0
 62156  1  0  0  0  0
 63 64  1  0  0  0  0
 63157  1  0  0  0  0
 63158  1  0  0  0  0
 64 65  1  0  0  0  0
 64159  1  0  0  0  0
 64160  1  0  0  0  0
 65 66  1  0  0  0  0
 65161  1  0  0  0  0
 65162  1  0  0  0  0
 66 67  1  0  0  0  0
 66163  1  0  0  0  0
 66164  1  0  0  0  0
 67 68  1  0  0  0  0
 67165  1  0  0  0  0
 67166  1  0  0  0  0
 68 69  1  0  0  0  0
 68167  1  0  0  0  0
 68168  1  0  0  0  0
 69169  1  0  0  0  0
 69170  1  0  0  0  0
 69171  1  0  0  0  0
M  END
>  <IDENTIFIER>
CNP0530823.1

>  <Energy>
7778.85

$$$$
