
 OpenBabel09082500033D

119125  0  0  0  0  0  0  0  0999 V2000
    8.8102   -3.4052    0.7342 C   0  0  0  0  0  0  0  0  0  0  0  0
    8.6921   -2.5550    1.8154 O   0  0  0  0  0  0  0  0  0  0  0  0
    7.6897   -1.6579    2.0175 C   0  0  0  0  0  0  0  0  0  0  0  0
    6.6153   -1.5236    1.1219 C   0  0  0  0  0  0  0  0  0  0  0  0
    5.5960   -0.5852    1.3422 C   0  0  0  0  0  0  0  0  0  0  0  0
    4.5024   -0.5183    0.3325 C   0  0  0  0  0  0  0  0  0  0  0  0
    3.4921    0.3750    0.3056 C   0  0  0  0  0  0  0  0  0  0  0  0
    2.4781    0.3332   -0.7785 C   0  0  0  0  0  0  0  0  0  0  0  0
    2.5163   -0.5640   -1.6109 O   0  0  0  0  0  0  0  0  0  0  0  0
    1.5462    1.3209   -0.8776 O   0  0  0  0  0  0  0  0  0  0  0  0
    0.5980    1.3857   -1.8913 C   0  0  2  0  0  0  0  0  0  0  0  0
    1.0849    2.3720   -2.9807 C   0  0  1  0  0  0  0  0  0  0  0  0
    2.2921    1.9463   -3.5606 O   0  0  0  0  0  0  0  0  0  0  0  0
   -0.0081    2.5733   -4.0508 C   0  0  2  0  0  0  0  0  0  0  0  0
    0.3860    3.5431   -4.9899 O   0  0  0  0  0  0  0  0  0  0  0  0
   -1.3502    2.9556   -3.3651 C   0  0  1  0  0  0  0  0  0  0  0  0
   -2.4831    3.1267   -4.3890 C   0  0  0  0  0  0  0  0  0  0  0  0
   -2.7074    1.9474   -5.1113 O   0  0  0  0  0  0  0  0  0  0  0  0
   -1.7162    1.9676   -2.4025 O   0  0  0  0  0  0  0  0  0  0  0  0
   -0.7499    1.9214   -1.3590 C   0  0  1  0  0  0  0  0  0  0  0  0
   -1.3115    1.1801   -0.1314 C   0  0  0  0  0  0  0  0  0  0  0  0
   -1.6228   -0.2159   -0.1171 C   0  0  0  0  0  0  0  0  0  0  0  0
   -1.3982   -0.9802   -1.2381 O   0  0  0  0  0  0  0  0  0  0  0  0
   -2.3653   -1.3924   -2.1649 C   0  0  2  0  0  0  0  0  0  0  0  0
   -2.5515   -2.8102   -2.0196 O   0  0  0  0  0  0  0  0  0  0  0  0
   -2.9184   -3.4684   -3.2106 C   0  0  2  0  0  0  0  0  0  0  0  0
   -3.3867   -4.8920   -2.8831 C   0  0  0  0  0  0  0  0  0  0  0  0
   -3.8167   -5.5618   -4.0376 O   0  0  0  0  0  0  0  0  0  0  0  0
   -1.7194   -3.4604   -4.2037 C   0  0  1  0  0  0  0  0  0  0  0  0
   -2.1682   -3.7538   -5.5047 O   0  0  0  0  0  0  0  0  0  0  0  0
   -0.9595   -2.0945   -4.1465 C   0  0  2  0  0  0  0  0  0  0  0  0
    0.1905   -2.1701   -3.3311 O   0  0  0  0  0  0  0  0  0  0  0  0
   -1.9012   -0.9964   -3.6149 C   0  0  1  0  0  0  0  0  0  0  0  0
   -2.9971   -0.8808   -4.4866 O   0  0  0  0  0  0  0  0  0  0  0  0
   -2.1094   -0.8205    1.1020 C   0  0  0  0  0  0  0  0  0  0  0  0
   -2.3677   -2.3341    1.1752 C   0  0  2  0  0  0  0  0  0  0  0  0
   -3.6480   -2.6380    1.7267 O   0  0  0  0  0  0  0  0  0  0  0  0
   -3.8528   -4.0402    1.7285 C   0  0  2  0  0  0  0  0  0  0  0  0
   -5.3443   -4.3342    1.9397 C   0  0  0  0  0  0  0  0  0  0  0  0
   -5.5984   -5.7130    1.9152 O   0  0  0  0  0  0  0  0  0  0  0  0
   -2.9708   -4.7190    2.8170 C   0  0  1  0  0  0  0  0  0  0  0  0
   -2.7765   -6.0792    2.5170 O   0  0  0  0  0  0  0  0  0  0  0  0
   -1.6265   -3.9660    3.0512 C   0  0  2  0  0  0  0  0  0  0  0  0
   -1.7842   -3.0594    4.1104 O   0  0  0  0  0  0  0  0  0  0  0  0
   -1.1837   -3.1616    1.8094 C   0  0  1  0  0  0  0  0  0  0  0  0
   -0.5897   -4.0135    0.8550 O   0  0  0  0  0  0  0  0  0  0  0  0
   -2.3185   -0.0023    2.2522 C   0  0  0  0  0  0  0  0  0  0  0  0
   -2.8248   -0.4931    3.4065 O   0  0  0  0  0  0  0  0  0  0  0  0
   -2.0291    1.3747    2.2173 C   0  0  0  0  0  0  0  0  0  0  0  0
   -1.5266    1.9521    1.0395 C   0  0  0  0  0  0  0  0  0  0  0  0
   -1.2632    3.2582    1.0179 O   0  0  0  0  0  0  0  0  0  0  0  0
   -1.4385    4.0948    2.0336 C   0  0  0  0  0  0  0  0  0  0  0  0
   -1.1029    5.5362    1.8216 C   0  0  0  0  0  0  0  0  0  0  0  0
   -0.5966    5.9413    0.5699 C   0  0  0  0  0  0  0  0  0  0  0  0
   -0.2737    7.2762    0.3232 C   0  0  0  0  0  0  0  0  0  0  0  0
   -0.4494    8.2425    1.3197 C   0  0  0  0  0  0  0  0  0  0  0  0
   -0.1378    9.5332    1.0783 O   0  0  0  0  0  0  0  0  0  0  0  0
   -0.9537    7.8605    2.5744 C   0  0  0  0  0  0  0  0  0  0  0  0
   -1.1379    8.7667    3.5581 O   0  0  0  0  0  0  0  0  0  0  0  0
   -1.2759    6.5194    2.8201 C   0  0  0  0  0  0  0  0  0  0  0  0
   -1.9348    3.5863    3.2387 C   0  0  0  0  0  0  0  0  0  0  0  0
   -2.2299    2.2285    3.3348 C   0  0  0  0  0  0  0  0  0  0  0  0
   -2.6615    1.8061    4.3933 O   0  0  0  0  0  0  0  0  0  0  0  0
    5.6577    0.2311    2.4873 C   0  0  0  0  0  0  0  0  0  0  0  0
    6.7266    0.1031    3.4031 C   0  0  0  0  0  0  0  0  0  0  0  0
    6.8160    0.8661    4.5254 O   0  0  0  0  0  0  0  0  0  0  0  0
    5.9152    1.8262    4.9340 C   0  0  0  0  0  0  0  0  0  0  0  0
    7.7396   -0.8453    3.1570 C   0  0  0  0  0  0  0  0  0  0  0  0
    8.7765   -0.9904    4.0119 O   0  0  0  0  0  0  0  0  0  0  0  0
    9.7309   -4.0128    0.8479 H   0  0  0  0  0  0  0  0  0  0  0  0
    8.8876   -2.8194   -0.2070 H   0  0  0  0  0  0  0  0  0  0  0  0
    7.9373   -4.0907    0.6858 H   0  0  0  0  0  0  0  0  0  0  0  0
    6.5695   -2.1490    0.2398 H   0  0  0  0  0  0  0  0  0  0  0  0
    4.5458   -1.2574   -0.4631 H   0  0  0  0  0  0  0  0  0  0  0  0
    3.4066    1.1543    1.0532 H   0  0  0  0  0  0  0  0  0  0  0  0
    0.4371    0.3864   -2.3424 H   0  0  0  0  0  0  0  0  0  0  0  0
    1.2739    3.3554   -2.4926 H   0  0  0  0  0  0  0  0  0  0  0  0
    2.1227    1.0684   -3.9915 H   0  0  0  0  0  0  0  0  0  0  0  0
   -0.1429    1.6120   -4.5889 H   0  0  0  0  0  0  0  0  0  0  0  0
    0.4642    4.4096   -4.5107 H   0  0  0  0  0  0  0  0  0  0  0  0
   -1.2532    3.9487   -2.8659 H   0  0  0  0  0  0  0  0  0  0  0  0
   -2.2578    3.9711   -5.0820 H   0  0  0  0  0  0  0  0  0  0  0  0
   -3.4211    3.3993   -3.8600 H   0  0  0  0  0  0  0  0  0  0  0  0
   -2.1460    1.9942   -5.9291 H   0  0  0  0  0  0  0  0  0  0  0  0
   -0.5309    2.9611   -1.0471 H   0  0  0  0  0  0  0  0  0  0  0  0
   -3.3158   -0.8675   -1.9193 H   0  0  0  0  0  0  0  0  0  0  0  0
   -3.8034   -2.9452   -3.6365 H   0  0  0  0  0  0  0  0  0  0  0  0
   -4.2102   -4.8620   -2.1326 H   0  0  0  0  0  0  0  0  0  0  0  0
   -2.5556   -5.4681   -2.4233 H   0  0  0  0  0  0  0  0  0  0  0  0
   -4.7218   -5.2114   -4.2478 H   0  0  0  0  0  0  0  0  0  0  0  0
   -0.9795   -4.2483   -3.9405 H   0  0  0  0  0  0  0  0  0  0  0  0
   -2.7630   -3.0166   -5.7978 H   0  0  0  0  0  0  0  0  0  0  0  0
   -0.5906   -1.8515   -5.1667 H   0  0  0  0  0  0  0  0  0  0  0  0
   -0.0062   -2.7278   -2.5343 H   0  0  0  0  0  0  0  0  0  0  0  0
   -1.3785   -0.0316   -3.6207 H   0  0  0  0  0  0  0  0  0  0  0  0
   -3.5960   -0.1852   -4.1109 H   0  0  0  0  0  0  0  0  0  0  0  0
   -2.3993   -2.6589    0.1514 H   0  0  0  0  0  0  0  0  0  0  0  0
   -3.5951   -4.4461    0.7216 H   0  0  0  0  0  0  0  0  0  0  0  0
   -5.9537   -3.8174    1.1629 H   0  0  0  0  0  0  0  0  0  0  0  0
   -5.6720   -3.9298    2.9217 H   0  0  0  0  0  0  0  0  0  0  0  0
   -5.6347   -5.9778    0.9594 H   0  0  0  0  0  0  0  0  0  0  0  0
   -3.4963   -4.6943    3.7977 H   0  0  0  0  0  0  0  0  0  0  0  0
   -2.2157   -6.1378    1.7033 H   0  0  0  0  0  0  0  0  0  0  0  0
   -0.8154   -4.6716    3.3525 H   0  0  0  0  0  0  0  0  0  0  0  0
   -1.7292   -3.5777    4.9562 H   0  0  0  0  0  0  0  0  0  0  0  0
   -0.3709   -2.4694    2.1222 H   0  0  0  0  0  0  0  0  0  0  0  0
   -1.2932   -4.5665    0.4335 H   0  0  0  0  0  0  0  0  0  0  0  0
   -3.2058   -1.3598    3.5451 H   0  0  0  0  0  0  0  0  0  0  0  0
   -0.4467    5.2273   -0.2287 H   0  0  0  0  0  0  0  0  0  0  0  0
    0.1138    7.5580   -0.6481 H   0  0  0  0  0  0  0  0  0  0  0  0
    0.2108    9.8282    0.2248 H   0  0  0  0  0  0  0  0  0  0  0  0
   -0.9367    9.7066    3.4482 H   0  0  0  0  0  0  0  0  0  0  0  0
   -1.6615    6.2735    3.7967 H   0  0  0  0  0  0  0  0  0  0  0  0
   -2.1005    4.2115    4.1029 H   0  0  0  0  0  0  0  0  0  0  0  0
    4.8814    0.9561    2.6752 H   0  0  0  0  0  0  0  0  0  0  0  0
    6.2670    2.2658    5.8901 H   0  0  0  0  0  0  0  0  0  0  0  0
    4.9172    1.3684    5.1020 H   0  0  0  0  0  0  0  0  0  0  0  0
    5.8460    2.6351    4.1764 H   0  0  0  0  0  0  0  0  0  0  0  0
    8.8746   -0.4653    4.8182 H   0  0  0  0  0  0  0  0  0  0  0  0
  1  2  1  0  0  0  0
  1 70  1  0  0  0  0
  1 71  1  0  0  0  0
  1 72  1  0  0  0  0
  2  3  1  0  0  0  0
  3  4  2  0  0  0  0
  4  5  1  0  0  0  0
  4 73  1  0  0  0  0
  5  6  1  0  0  0  0
  5 64  2  0  0  0  0
  6  7  2  0  0  0  0
  6 74  1  0  0  0  0
  7  8  1  0  0  0  0
  7 75  1  0  0  0  0
  8  9  2  0  0  0  0
  8 10  1  0  0  0  0
 11 10  1  0  0  0  0
 11 12  1  0  0  0  0
 11 76  1  6  0  0  0
 12 13  1  0  0  0  0
 12 14  1  0  0  0  0
 12 77  1  1  0  0  0
 13 78  1  0  0  0  0
 14 15  1  0  0  0  0
 14 16  1  0  0  0  0
 14 79  1  6  0  0  0
 15 80  1  0  0  0  0
 16 17  1  0  0  0  0
 16 19  1  0  0  0  0
 16 81  1  1  0  0  0
 17 18  1  0  0  0  0
 17 82  1  0  0  0  0
 17 83  1  0  0  0  0
 18 84  1  0  0  0  0
 19 20  1  0  0  0  0
 20 21  1  0  0  0  0
 20 11  1  0  0  0  0
 20 85  1  1  0  0  0
 21 22  2  0  0  0  0
 22 23  1  0  0  0  0
 22 35  1  0  0  0  0
 24 23  1  0  0  0  0
 24 25  1  0  0  0  0
 24 86  1  1  0  0  0
 25 26  1  0  0  0  0
 26 27  1  0  0  0  0
 26 29  1  0  0  0  0
 26 87  1  6  0  0  0
 27 28  1  0  0  0  0
 27 88  1  0  0  0  0
 27 89  1  0  0  0  0
 28 90  1  0  0  0  0
 29 30  1  0  0  0  0
 29 31  1  0  0  0  0
 29 91  1  1  0  0  0
 30 92  1  0  0  0  0
 31 32  1  0  0  0  0
 31 33  1  0  0  0  0
 31 93  1  6  0  0  0
 32 94  1  0  0  0  0
 33 34  1  0  0  0  0
 33 24  1  0  0  0  0
 33 95  1  1  0  0  0
 34 96  1  0  0  0  0
 35 47  2  0  0  0  0
 36 35  1  0  0  0  0
 36 37  1  0  0  0  0
 36 97  1  6  0  0  0
 37 38  1  0  0  0  0
 38 39  1  0  0  0  0
 38 41  1  0  0  0  0
 38 98  1  6  0  0  0
 39 40  1  0  0  0  0
 39 99  1  0  0  0  0
 39100  1  0  0  0  0
 40101  1  0  0  0  0
 41 42  1  0  0  0  0
 41 43  1  0  0  0  0
 41102  1  1  0  0  0
 42103  1  0  0  0  0
 43 44  1  0  0  0  0
 43 45  1  0  0  0  0
 43104  1  1  0  0  0
 44105  1  0  0  0  0
 45 46  1  0  0  0  0
 45 36  1  0  0  0  0
 45106  1  1  0  0  0
 46107  1  0  0  0  0
 47 48  1  0  0  0  0
 47 49  1  0  0  0  0
 48108  1  0  0  0  0
 49 50  2  0  0  0  0
 50 51  1  0  0  0  0
 50 21  1  0  0  0  0
 51 52  1  0  0  0  0
 52 53  1  0  0  0  0
 52 61  2  0  0  0  0
 53 54  2  0  0  0  0
 54 55  1  0  0  0  0
 54109  1  0  0  0  0
 55 56  2  0  0  0  0
 55110  1  0  0  0  0
 56 57  1  0  0  0  0
 56 58  1  0  0  0  0
 57111  1  0  0  0  0
 58 59  1  0  0  0  0
 58 60  2  0  0  0  0
 59112  1  0  0  0  0
 60 53  1  0  0  0  0
 60113  1  0  0  0  0
 61 62  1  0  0  0  0
 61114  1  0  0  0  0
 62 63  2  0  0  0  0
 62 49  1  0  0  0  0
 64 65  1  0  0  0  0
 64115  1  0  0  0  0
 65 66  1  0  0  0  0
 65 68  2  0  0  0  0
 66 67  1  0  0  0  0
 67116  1  0  0  0  0
 67117  1  0  0  0  0
 67118  1  0  0  0  0
 68 69  1  0  0  0  0
 68  3  1  0  0  0  0
 69119  1  0  0  0  0
M  END
>  <IDENTIFIER>
CNP0577458.1

>  <Energy>
1366.73

$$$$
