
 OpenBabel09122517353D

 58 60  0  0  0  0  0  0  0  0999 V2000
   -2.9581   -3.5853   -0.8958 C   0  0  0  0  0  0  0  0  0  0  0  0
   -1.9150   -2.4992   -0.7928 C   0  0  0  0  0  0  0  0  0  0  0  0
   -0.6092   -2.8161   -0.7891 C   0  0  0  0  0  0  0  0  0  0  0  0
    0.5021   -1.7858   -0.7706 C   0  0  1  0  0  0  0  0  0  0  0  0
    1.2652   -2.0027   -2.0982 C   0  0  0  0  0  0  0  0  0  0  0  0
   -0.0116   -0.2960   -0.5534 C   0  0  2  0  0  0  0  0  0  0  0  0
    1.0897    0.7196   -0.9949 C   0  0  0  0  0  0  0  0  0  0  0  0
    2.2707    0.4435   -0.3306 O   0  0  0  0  0  0  0  0  0  0  0  0
    3.4503    1.0800   -0.5390 C   0  0  0  0  0  0  0  0  0  0  0  0
    3.5333    1.9724   -1.3738 O   0  0  0  0  0  0  0  0  0  0  0  0
    4.5365    0.6982    0.1841 N   0  0  0  0  0  0  0  0  0  0  0  0
    5.8606    1.2822    0.0308 C   0  0  0  0  0  0  0  0  0  0  0  0
    6.2922    1.9256    1.3498 C   0  0  0  0  0  0  0  0  0  0  0  0
    6.8521    0.1927   -0.3864 C   0  0  0  0  0  0  0  0  0  0  0  0
   -0.3031   -0.0211    0.9562 C   0  0  0  0  0  0  0  0  0  0  0  0
   -1.3119   -0.8350    1.5427 O   0  0  0  0  0  0  0  0  0  0  0  0
   -2.5615   -0.7951    0.8583 C   0  0  1  0  0  0  0  0  0  0  0  0
   -3.4794    0.3682    1.2547 C   0  0  0  0  0  0  0  0  0  0  0  0
   -3.0589    1.4118    2.1092 C   0  0  0  0  0  0  0  0  0  0  0  0
   -3.9342    2.4401    2.4697 C   0  0  0  0  0  0  0  0  0  0  0  0
   -5.2474    2.4410    2.0056 C   0  0  0  0  0  0  0  0  0  0  0  0
   -5.6959    1.4078    1.1865 C   0  0  0  0  0  0  0  0  0  0  0  0
   -4.8287    0.3709    0.8116 C   0  0  0  0  0  0  0  0  0  0  0  0
   -5.3011   -0.6376    0.0489 O   0  0  0  0  0  0  0  0  0  0  0  0
   -2.3746   -1.0592   -0.6725 C   0  0  1  0  0  0  0  0  0  0  0  0
   -1.3458   -0.1026   -1.3331 C   0  0  1  0  0  0  0  0  0  0  0  0
   -1.8691    1.3488   -1.4000 C   0  0  0  0  0  0  0  0  0  0  0  0
   -2.5050   -4.5961   -0.9748 H   0  0  0  0  0  0  0  0  0  0  0  0
   -3.5782   -3.4127   -1.8008 H   0  0  0  0  0  0  0  0  0  0  0  0
   -3.6172   -3.5700   -0.0040 H   0  0  0  0  0  0  0  0  0  0  0  0
   -0.3173   -3.8608   -0.8703 H   0  0  0  0  0  0  0  0  0  0  0  0
    1.2163   -2.0302    0.0459 H   0  0  0  0  0  0  0  0  0  0  0  0
    0.6244   -1.7687   -2.9744 H   0  0  0  0  0  0  0  0  0  0  0  0
    1.5987   -3.0601   -2.1818 H   0  0  0  0  0  0  0  0  0  0  0  0
    2.1893   -1.3936   -2.1503 H   0  0  0  0  0  0  0  0  0  0  0  0
    0.7855    1.7652   -0.7730 H   0  0  0  0  0  0  0  0  0  0  0  0
    1.2501    0.6538   -2.0925 H   0  0  0  0  0  0  0  0  0  0  0  0
    4.4168   -0.0571    0.8783 H   0  0  0  0  0  0  0  0  0  0  0  0
    5.8641    2.0707   -0.7538 H   0  0  0  0  0  0  0  0  0  0  0  0
    6.3207    1.1698    2.1640 H   0  0  0  0  0  0  0  0  0  0  0  0
    5.5751    2.7262    1.6299 H   0  0  0  0  0  0  0  0  0  0  0  0
    7.3015    2.3788    1.2444 H   0  0  0  0  0  0  0  0  0  0  0  0
    6.8969   -0.6106    0.3806 H   0  0  0  0  0  0  0  0  0  0  0  0
    7.8682    0.6235   -0.5137 H   0  0  0  0  0  0  0  0  0  0  0  0
    6.5365   -0.2552   -1.3527 H   0  0  0  0  0  0  0  0  0  0  0  0
   -0.5337    1.0493    1.1038 H   0  0  0  0  0  0  0  0  0  0  0  0
    0.6281   -0.1908    1.5371 H   0  0  0  0  0  0  0  0  0  0  0  0
   -3.1330   -1.6620    1.2560 H   0  0  0  0  0  0  0  0  0  0  0  0
   -2.0640    1.4464    2.5197 H   0  0  0  0  0  0  0  0  0  0  0  0
   -3.5948    3.2357    3.1203 H   0  0  0  0  0  0  0  0  0  0  0  0
   -5.9243    3.2353    2.2932 H   0  0  0  0  0  0  0  0  0  0  0  0
   -6.7246    1.4074    0.8493 H   0  0  0  0  0  0  0  0  0  0  0  0
   -6.2208   -0.6788   -0.2495 H   0  0  0  0  0  0  0  0  0  0  0  0
   -3.3316   -0.9797   -1.2250 H   0  0  0  0  0  0  0  0  0  0  0  0
   -1.2037   -0.4043   -2.3946 H   0  0  0  0  0  0  0  0  0  0  0  0
   -2.0240    1.8034   -0.4067 H   0  0  0  0  0  0  0  0  0  0  0  0
   -2.8349    1.3725   -1.9480 H   0  0  0  0  0  0  0  0  0  0  0  0
   -1.1609    1.9906   -1.9630 H   0  0  0  0  0  0  0  0  0  0  0  0
  1  2  1  0  0  0  0
  1 28  1  0  0  0  0
  1 29  1  0  0  0  0
  1 30  1  0  0  0  0
  2  3  2  0  0  0  0
  3  4  1  0  0  0  0
  3 31  1  0  0  0  0
  4  5  1  0  0  0  0
  4  6  1  0  0  0  0
  4 32  1  1  0  0  0
  5 33  1  0  0  0  0
  5 34  1  0  0  0  0
  5 35  1  0  0  0  0
  6  7  1  6  0  0  0
  6 15  1  0  0  0  0
  7  8  1  0  0  0  0
  7 36  1  0  0  0  0
  7 37  1  0  0  0  0
  8  9  1  0  0  0  0
  9 10  2  0  0  0  0
  9 11  1  0  0  0  0
 11 12  1  0  0  0  0
 11 38  1  0  0  0  0
 12 13  1  0  0  0  0
 12 14  1  0  0  0  0
 12 39  1  0  0  0  0
 13 40  1  0  0  0  0
 13 41  1  0  0  0  0
 13 42  1  0  0  0  0
 14 43  1  0  0  0  0
 14 44  1  0  0  0  0
 14 45  1  0  0  0  0
 15 16  1  0  0  0  0
 15 46  1  0  0  0  0
 15 47  1  0  0  0  0
 16 17  1  0  0  0  0
 17 18  1  0  0  0  0
 17 25  1  0  0  0  0
 17 48  1  1  0  0  0
 18 19  2  0  0  0  0
 19 20  1  0  0  0  0
 19 49  1  0  0  0  0
 20 21  2  0  0  0  0
 20 50  1  0  0  0  0
 21 22  1  0  0  0  0
 21 51  1  0  0  0  0
 22 23  2  0  0  0  0
 22 52  1  0  0  0  0
 23 24  1  0  0  0  0
 23 18  1  0  0  0  0
 24 53  1  0  0  0  0
 25 26  1  0  0  0  0
 25  2  1  0  0  0  0
 25 54  1  6  0  0  0
 26 27  1  0  0  0  0
 26  6  1  0  0  0  0
 26 55  1  6  0  0  0
 27 56  1  0  0  0  0
 27 57  1  0  0  0  0
 27 58  1  0  0  0  0
M  END
>  <IDENTIFIER>
CNP0102364.3

>  <Energy>
396.794

$$$$
