
 OpenBabel09052518083D

107110  0  0  0  0  0  0  0  0999 V2000
    7.9830    3.1435    0.1691 C   0  0  0  0  0  0  0  0  0  0  0  0
    9.2086    2.2464   -0.0240 C   0  0  0  0  0  0  0  0  0  0  0  0
    9.0263    0.7644    0.3653 C   0  0  0  0  0  0  0  0  0  0  0  0
    8.2522   -0.1551   -0.6060 C   0  0  0  0  0  0  0  0  0  0  0  0
    6.7527    0.1337   -0.7198 C   0  0  0  0  0  0  0  0  0  0  0  0
    6.0204   -0.9530   -1.5306 C   0  0  0  0  0  0  0  0  0  0  0  0
    4.5005   -0.6877   -1.6032 C   0  0  0  0  0  0  0  0  0  0  0  0
    3.8020   -0.8240   -0.2713 C   0  0  0  0  0  0  0  0  0  0  0  0
    4.4316   -1.1899    0.7133 O   0  0  0  0  0  0  0  0  0  0  0  0
    2.4633   -0.5761   -0.1800 O   0  0  0  0  0  0  0  0  0  0  0  0
    1.7270   -0.7619    0.9858 C   0  0  1  0  0  0  0  0  0  0  0  0
    1.1416    0.5730    1.4963 C   0  0  0  0  0  0  0  0  0  0  0  0
   -0.3999    0.5429    1.6990 C   0  0  2  0  0  0  0  0  0  0  0  0
   -0.7205   -0.2651    2.7813 O   0  0  0  0  0  0  0  0  0  0  0  0
   -0.3740   -0.0197    4.0722 C   0  0  0  0  0  0  0  0  0  0  0  0
   -0.5922   -1.0749    5.1051 C   0  0  0  0  0  0  0  0  0  0  0  0
    0.1157    1.0515    4.4025 O   0  0  0  0  0  0  0  0  0  0  0  0
   -1.1504    0.0507    0.3901 C   0  0  1  0  0  0  0  0  0  0  0  0
   -0.6583    1.0282   -0.7332 C   0  0  0  0  0  0  0  0  0  0  0  0
   -0.7007   -1.4683    0.1107 C   0  0  2  0  0  0  0  0  0  0  0  0
    0.6803   -1.8863    0.8169 C   0  0  1  0  0  0  0  0  0  0  0  0
    1.3910   -3.1756    0.3345 C   0  0  0  0  0  0  0  0  0  0  0  0
   -0.9920   -2.1072   -1.3058 C   0  0  2  0  0  0  0  0  0  0  0  0
   -1.1112   -1.1902   -2.3288 O   0  0  0  0  0  0  0  0  0  0  0  0
   -0.2973   -1.0435   -3.4116 C   0  0  0  0  0  0  0  0  0  0  0  0
   -0.6362   -0.0234   -4.4505 C   0  0  0  0  0  0  0  0  0  0  0  0
    0.7042   -1.7316   -3.5538 O   0  0  0  0  0  0  0  0  0  0  0  0
   -2.1868   -3.1447   -1.3775 C   0  0  1  0  0  0  0  0  0  0  0  0
   -1.4662   -4.3719   -1.6063 O   0  0  0  0  0  0  0  0  0  0  0  0
   -2.4822   -4.4332   -0.6850 C   0  0  1  0  0  0  0  0  0  0  0  0
   -2.1085   -4.7910    0.7501 C   0  0  0  0  0  0  0  0  0  0  0  0
   -3.5956   -5.0341   -1.4095 C   0  0  0  0  0  0  0  0  0  0  0  0
   -4.1086   -6.1117   -1.1557 O   0  0  0  0  0  0  0  0  0  0  0  0
   -3.9431   -4.2739   -2.4612 O   0  0  0  0  0  0  0  0  0  0  0  0
   -3.4220   -2.9859   -2.3551 C   0  0  1  0  0  0  0  0  0  0  0  0
   -4.6311   -2.2012   -1.8151 C   0  0  0  0  0  0  0  0  0  0  0  0
   -4.8892   -0.9003   -1.5282 C   0  0  0  0  0  0  0  0  0  0  0  0
   -6.2943   -0.5707   -1.0271 C   0  0  0  0  0  0  0  0  0  0  0  0
   -3.9388    0.2674   -1.7073 C   0  0  0  0  0  0  0  0  0  0  0  0
   -3.6339    0.9724   -0.3600 C   0  0  2  0  0  0  0  0  0  0  0  0
   -3.1157    2.2427   -0.5565 O   0  0  0  0  0  0  0  0  0  0  0  0
   -3.6639    3.4045   -0.1026 C   0  0  0  0  0  0  0  0  0  0  0  0
   -4.6699    3.3904    0.5942 O   0  0  0  0  0  0  0  0  0  0  0  0
   -2.9795    4.7063   -0.4373 C   0  0  0  0  0  0  0  0  0  0  0  0
   -3.6585    5.9619    0.1427 C   0  0  0  0  0  0  0  0  0  0  0  0
   -5.0341    6.2412   -0.4695 C   0  0  0  0  0  0  0  0  0  0  0  0
   -2.7508    0.1350    0.6154 C   0  0  2  0  0  0  0  0  0  0  0  0
   -3.0421    0.6041    1.8929 O   0  0  0  0  0  0  0  0  0  0  0  0
   -3.7342   -0.0807    2.8478 C   0  0  0  0  0  0  0  0  0  0  0  0
   -3.9555    0.5394    4.1867 C   0  0  0  0  0  0  0  0  0  0  0  0
   -4.1819   -1.1983    2.6295 O   0  0  0  0  0  0  0  0  0  0  0  0
    8.2768    4.1977   -0.0186 H   0  0  0  0  0  0  0  0  0  0  0  0
    7.6079    3.0652    1.2116 H   0  0  0  0  0  0  0  0  0  0  0  0
    7.1653    2.9277   -0.5314 H   0  0  0  0  0  0  0  0  0  0  0  0
    9.9815    2.6559    0.6632 H   0  0  0  0  0  0  0  0  0  0  0  0
    9.5996    2.3290   -1.0604 H   0  0  0  0  0  0  0  0  0  0  0  0
    8.5997    0.6942    1.3903 H   0  0  0  0  0  0  0  0  0  0  0  0
   10.0520    0.3363    0.4113 H   0  0  0  0  0  0  0  0  0  0  0  0
    8.3580   -1.1842   -0.1950 H   0  0  0  0  0  0  0  0  0  0  0  0
    8.7249   -0.1395   -1.6117 H   0  0  0  0  0  0  0  0  0  0  0  0
    6.5831    1.0860   -1.2441 H   0  0  0  0  0  0  0  0  0  0  0  0
    6.3417    0.1961    0.3071 H   0  0  0  0  0  0  0  0  0  0  0  0
    6.1965   -1.9592   -1.0881 H   0  0  0  0  0  0  0  0  0  0  0  0
    6.4333   -0.9565   -2.5629 H   0  0  0  0  0  0  0  0  0  0  0  0
    4.0395   -1.4229   -2.2971 H   0  0  0  0  0  0  0  0  0  0  0  0
    4.3299    0.3311   -2.0119 H   0  0  0  0  0  0  0  0  0  0  0  0
    2.3927   -1.1252    1.8028 H   0  0  0  0  0  0  0  0  0  0  0  0
    1.4189    1.3850    0.7927 H   0  0  0  0  0  0  0  0  0  0  0  0
    1.6613    0.8826    2.4272 H   0  0  0  0  0  0  0  0  0  0  0  0
   -0.7253    1.5831    1.9324 H   0  0  0  0  0  0  0  0  0  0  0  0
   -1.0396   -1.9791    4.6397 H   0  0  0  0  0  0  0  0  0  0  0  0
   -1.2741   -0.6950    5.8933 H   0  0  0  0  0  0  0  0  0  0  0  0
    0.3804   -1.3497    5.5634 H   0  0  0  0  0  0  0  0  0  0  0  0
    0.3913    0.8342   -1.0257 H   0  0  0  0  0  0  0  0  0  0  0  0
   -0.7257    2.0857   -0.4007 H   0  0  0  0  0  0  0  0  0  0  0  0
   -1.2268    0.9868   -1.6683 H   0  0  0  0  0  0  0  0  0  0  0  0
   -1.3697   -2.0719    0.7550 H   0  0  0  0  0  0  0  0  0  0  0  0
    0.3972   -2.1222    1.8687 H   0  0  0  0  0  0  0  0  0  0  0  0
    1.8457   -3.0379   -0.6690 H   0  0  0  0  0  0  0  0  0  0  0  0
    0.7178   -4.0463    0.2923 H   0  0  0  0  0  0  0  0  0  0  0  0
    2.2204   -3.4327    1.0279 H   0  0  0  0  0  0  0  0  0  0  0  0
   -0.0843   -2.6760   -1.5475 H   0  0  0  0  0  0  0  0  0  0  0  0
   -1.5711    0.5118   -4.1800 H   0  0  0  0  0  0  0  0  0  0  0  0
   -0.7840   -0.5220   -5.4312 H   0  0  0  0  0  0  0  0  0  0  0  0
    0.1876    0.7158   -4.5343 H   0  0  0  0  0  0  0  0  0  0  0  0
   -1.9210   -5.8815    0.8278 H   0  0  0  0  0  0  0  0  0  0  0  0
   -2.9560   -4.5243    1.4154 H   0  0  0  0  0  0  0  0  0  0  0  0
   -1.2238   -4.2531    1.1163 H   0  0  0  0  0  0  0  0  0  0  0  0
   -3.1001   -2.6353   -3.3577 H   0  0  0  0  0  0  0  0  0  0  0  0
   -5.4844   -2.8544   -1.6361 H   0  0  0  0  0  0  0  0  0  0  0  0
   -6.9703   -1.4510   -0.9904 H   0  0  0  0  0  0  0  0  0  0  0  0
   -6.7629    0.1714   -1.7067 H   0  0  0  0  0  0  0  0  0  0  0  0
   -6.2879   -0.1682    0.0030 H   0  0  0  0  0  0  0  0  0  0  0  0
   -4.4584    0.9893   -2.3742 H   0  0  0  0  0  0  0  0  0  0  0  0
   -3.0383   -0.0282   -2.2367 H   0  0  0  0  0  0  0  0  0  0  0  0
   -4.6145    1.0844    0.1348 H   0  0  0  0  0  0  0  0  0  0  0  0
   -2.9067    4.8086   -1.5416 H   0  0  0  0  0  0  0  0  0  0  0  0
   -1.9485    4.6507   -0.0262 H   0  0  0  0  0  0  0  0  0  0  0  0
   -3.0111    6.8382   -0.0767 H   0  0  0  0  0  0  0  0  0  0  0  0
   -3.7464    5.8679    1.2472 H   0  0  0  0  0  0  0  0  0  0  0  0
   -4.9443    6.3744   -1.5682 H   0  0  0  0  0  0  0  0  0  0  0  0
   -5.4480    7.1747   -0.0327 H   0  0  0  0  0  0  0  0  0  0  0  0
   -5.7513    5.4220   -0.2643 H   0  0  0  0  0  0  0  0  0  0  0  0
   -3.1607   -0.8915    0.5338 H   0  0  0  0  0  0  0  0  0  0  0  0
   -3.4840    1.5436    4.2290 H   0  0  0  0  0  0  0  0  0  0  0  0
   -3.5090   -0.1044    4.9720 H   0  0  0  0  0  0  0  0  0  0  0  0
   -5.0447    0.6392    4.3744 H   0  0  0  0  0  0  0  0  0  0  0  0
  1  2  1  0  0  0  0
  1 52  1  0  0  0  0
  1 53  1  0  0  0  0
  1 54  1  0  0  0  0
  2  3  1  0  0  0  0
  2 55  1  0  0  0  0
  2 56  1  0  0  0  0
  3  4  1  0  0  0  0
  3 57  1  0  0  0  0
  3 58  1  0  0  0  0
  4  5  1  0  0  0  0
  4 59  1  0  0  0  0
  4 60  1  0  0  0  0
  5  6  1  0  0  0  0
  5 61  1  0  0  0  0
  5 62  1  0  0  0  0
  6  7  1  0  0  0  0
  6 63  1  0  0  0  0
  6 64  1  0  0  0  0
  7  8  1  0  0  0  0
  7 65  1  0  0  0  0
  7 66  1  0  0  0  0
  8  9  2  0  0  0  0
  8 10  1  0  0  0  0
 11 10  1  0  0  0  0
 11 12  1  0  0  0  0
 11 67  1  1  0  0  0
 12 13  1  0  0  0  0
 12 68  1  0  0  0  0
 12 69  1  0  0  0  0
 13 14  1  0  0  0  0
 13 18  1  0  0  0  0
 13 70  1  1  0  0  0
 14 15  1  0  0  0  0
 15 16  1  0  0  0  0
 15 17  2  0  0  0  0
 16 71  1  0  0  0  0
 16 72  1  0  0  0  0
 16 73  1  0  0  0  0
 18 19  1  6  0  0  0
 18 20  1  0  0  0  0
 19 74  1  0  0  0  0
 19 75  1  0  0  0  0
 19 76  1  0  0  0  0
 20 21  1  0  0  0  0
 20 23  1  0  0  0  0
 20 77  1  1  0  0  0
 21 22  1  0  0  0  0
 21 11  1  0  0  0  0
 21 78  1  1  0  0  0
 22 79  1  0  0  0  0
 22 80  1  0  0  0  0
 22 81  1  0  0  0  0
 23 24  1  0  0  0  0
 23 28  1  0  0  0  0
 23 82  1  6  0  0  0
 24 25  1  0  0  0  0
 25 26  1  0  0  0  0
 25 27  2  0  0  0  0
 26 83  1  0  0  0  0
 26 84  1  0  0  0  0
 26 85  1  0  0  0  0
 28 29  1  6  0  0  0
 29 30  1  0  0  0  0
 30 31  1  1  0  0  0
 30 32  1  0  0  0  0
 30 28  1  0  0  0  0
 31 86  1  0  0  0  0
 31 87  1  0  0  0  0
 31 88  1  0  0  0  0
 32 33  2  0  0  0  0
 32 34  1  0  0  0  0
 35 34  1  0  0  0  0
 35 36  1  0  0  0  0
 35 28  1  0  0  0  0
 35 89  1  6  0  0  0
 36 37  2  0  0  0  0
 36 90  1  0  0  0  0
 37 38  1  0  0  0  0
 37 39  1  0  0  0  0
 38 91  1  0  0  0  0
 38 92  1  0  0  0  0
 38 93  1  0  0  0  0
 39 40  1  0  0  0  0
 39 94  1  0  0  0  0
 39 95  1  0  0  0  0
 40 41  1  0  0  0  0
 40 47  1  0  0  0  0
 40 96  1  1  0  0  0
 41 42  1  0  0  0  0
 42 43  2  0  0  0  0
 42 44  1  0  0  0  0
 44 45  1  0  0  0  0
 44 97  1  0  0  0  0
 44 98  1  0  0  0  0
 45 46  1  0  0  0  0
 45 99  1  0  0  0  0
 45100  1  0  0  0  0
 46101  1  0  0  0  0
 46102  1  0  0  0  0
 46103  1  0  0  0  0
 47 48  1  0  0  0  0
 47 18  1  0  0  0  0
 47104  1  6  0  0  0
 48 49  1  0  0  0  0
 49 50  1  0  0  0  0
 49 51  2  0  0  0  0
 50105  1  0  0  0  0
 50106  1  0  0  0  0
 50107  1  0  0  0  0
M  END
>  <IDENTIFIER>
CNP0289346.1

>  <Energy>
2776.95

$$$$
