
 OpenBabel09112508013D

 52 58  0  0  0  0  0  0  0  0999 V2000
    4.9772    0.4281    0.6544 C   0  0  0  0  0  0  0  0  0  0  0  0
    3.6770    0.2412    0.3931 C   0  0  0  0  0  0  0  0  0  0  0  0
    2.8342   -0.6713    1.2456 C   0  0  0  0  0  0  0  0  0  0  0  0
    1.3947   -0.6704    0.6760 C   0  0  1  0  0  0  0  0  0  0  0  0
    0.4788   -1.6009    1.5005 C   0  0  0  0  0  0  0  0  0  0  0  0
   -0.9303   -1.6286    0.8725 C   0  0  1  0  0  0  0  0  0  0  0  0
   -1.5743   -0.2768    0.7293 C   0  0  2  0  0  0  0  0  0  0  0  0
   -2.8540   -0.6614   -0.1116 C   0  0  1  0  0  0  0  0  0  0  0  0
   -4.0062   -1.0816    0.8333 C   0  0  0  0  0  0  0  0  0  0  0  0
   -3.3504    0.4587   -1.0841 C   0  0  0  0  0  0  0  0  0  0  0  0
   -2.7751    1.7900   -0.6601 C   0  0  2  0  0  0  0  0  0  0  0  0
   -3.3003    2.8575   -1.4095 O   0  0  0  0  0  0  0  0  0  0  0  0
   -1.2350    1.7398   -0.7748 C   0  0  0  0  0  0  0  0  0  0  0  0
   -0.5512    0.4506   -0.1892 C   0  0  1  0  0  0  0  0  0  0  0  0
    0.7739    0.7640    0.5981 C   0  0  2  0  0  0  0  0  0  0  0  0
    1.8332    1.7438   -0.0900 C   0  0  2  0  0  0  0  0  0  0  0  0
    1.2750    2.6655   -0.9848 O   0  0  0  0  0  0  0  0  0  0  0  0
    2.9641    0.9388   -0.7540 C   0  0  2  0  0  0  0  0  0  0  0  0
    2.3818   -0.1771   -1.6493 C   0  0  2  0  0  0  0  0  0  0  0  0
    1.8883    0.2693   -2.8875 O   0  0  0  0  0  0  0  0  0  0  0  0
    1.3475   -1.0557   -0.8452 C   0  0  1  0  0  0  0  0  0  0  0  0
    1.6561   -2.4135   -1.0604 O   0  0  0  0  0  0  0  0  0  0  0  0
   -0.1652   -0.7689   -1.1222 C   0  0  1  0  0  0  0  0  0  0  0  0
   -0.8901   -1.9495   -0.5550 N   0  0  2  0  0  0  0  0  0  0  0  0
   -2.3139   -1.8664   -0.9178 C   0  0  0  0  0  0  0  0  0  0  0  0
    5.4510   -0.0821    1.4874 H   0  0  0  0  0  0  0  0  0  0  0  0
    5.5796    1.0922    0.0424 H   0  0  0  0  0  0  0  0  0  0  0  0
    2.8282   -0.3089    2.2955 H   0  0  0  0  0  0  0  0  0  0  0  0
    3.2525   -1.7008    1.2148 H   0  0  0  0  0  0  0  0  0  0  0  0
    0.4154   -1.2519    2.5544 H   0  0  0  0  0  0  0  0  0  0  0  0
    0.8915   -2.6333    1.4969 H   0  0  0  0  0  0  0  0  0  0  0  0
   -1.5399   -2.3568    1.4551 H   0  0  0  0  0  0  0  0  0  0  0  0
   -1.7964    0.3036    1.6525 H   0  0  0  0  0  0  0  0  0  0  0  0
   -4.3320   -0.2166    1.4484 H   0  0  0  0  0  0  0  0  0  0  0  0
   -3.7099   -1.8988    1.5222 H   0  0  0  0  0  0  0  0  0  0  0  0
   -4.8745   -1.4446    0.2424 H   0  0  0  0  0  0  0  0  0  0  0  0
   -4.4620    0.4873   -1.1289 H   0  0  0  0  0  0  0  0  0  0  0  0
   -2.9980    0.2996   -2.1266 H   0  0  0  0  0  0  0  0  0  0  0  0
   -3.0688    1.9537    0.4011 H   0  0  0  0  0  0  0  0  0  0  0  0
   -3.0906    2.6866   -2.3653 H   0  0  0  0  0  0  0  0  0  0  0  0
   -0.9304    2.6376   -0.1963 H   0  0  0  0  0  0  0  0  0  0  0  0
   -0.9055    1.8525   -1.8301 H   0  0  0  0  0  0  0  0  0  0  0  0
    0.5111    1.2246    1.5769 H   0  0  0  0  0  0  0  0  0  0  0  0
    2.3118    2.3318    0.7310 H   0  0  0  0  0  0  0  0  0  0  0  0
    1.9782    3.3354   -1.1934 H   0  0  0  0  0  0  0  0  0  0  0  0
    3.6755    1.5901   -1.3095 H   0  0  0  0  0  0  0  0  0  0  0  0
    3.2672   -0.8078   -1.8885 H   0  0  0  0  0  0  0  0  0  0  0  0
    1.2199    0.9778   -2.7195 H   0  0  0  0  0  0  0  0  0  0  0  0
    1.4460   -2.6099   -2.0090 H   0  0  0  0  0  0  0  0  0  0  0  0
   -0.3923   -0.6637   -2.2069 H   0  0  0  0  0  0  0  0  0  0  0  0
   -2.8067   -2.8129   -0.6012 H   0  0  0  0  0  0  0  0  0  0  0  0
   -2.4543   -1.8093   -2.0200 H   0  0  0  0  0  0  0  0  0  0  0  0
  1  2  2  0  0  0  0
  1 26  1  0  0  0  0
  1 27  1  0  0  0  0
  2  3  1  0  0  0  0
  3 28  1  0  0  0  0
  3 29  1  0  0  0  0
  4  3  1  1  0  0  0
  4  5  1  0  0  0  0
  5 30  1  0  0  0  0
  5 31  1  0  0  0  0
  6  5  1  0  0  0  0
  6  7  1  0  0  0  0
  6 32  1  1  0  0  0
  7  8  1  0  0  0  0
  7 33  1  1  0  0  0
  8  9  1  1  0  0  0
  8 10  1  0  0  0  0
  9 34  1  0  0  0  0
  9 35  1  0  0  0  0
  9 36  1  0  0  0  0
 10 11  1  0  0  0  0
 10 37  1  0  0  0  0
 10 38  1  0  0  0  0
 11 12  1  0  0  0  0
 11 13  1  0  0  0  0
 11 39  1  1  0  0  0
 12 40  1  0  0  0  0
 13 41  1  0  0  0  0
 13 42  1  0  0  0  0
 14 13  1  6  0  0  0
 14 15  1  0  0  0  0
 14  7  1  0  0  0  0
 15 16  1  0  0  0  0
 15  4  1  0  0  0  0
 15 43  1  1  0  0  0
 16 17  1  0  0  0  0
 16 18  1  0  0  0  0
 16 44  1  1  0  0  0
 17 45  1  0  0  0  0
 18 19  1  0  0  0  0
 18  2  1  0  0  0  0
 18 46  1  6  0  0  0
 19 20  1  0  0  0  0
 19 21  1  0  0  0  0
 19 47  1  6  0  0  0
 20 48  1  0  0  0  0
 21 22  1  6  0  0  0
 21 23  1  0  0  0  0
 21  4  1  0  0  0  0
 22 49  1  0  0  0  0
 23 24  1  0  0  0  0
 23 14  1  0  0  0  0
 23 50  1  6  0  0  0
 24 25  1  6  0  0  0
 24  6  1  0  0  0  0
 25  8  1  0  0  0  0
 25 51  1  0  0  0  0
 25 52  1  0  0  0  0
M  END
>  <IDENTIFIER>
CNP0227922.3

>  <Energy>
1151.83

$$$$
