
 OpenBabel09102516592D

185198  0  0  0  0  0  0  0  0999 V2000
    3.1060   -7.1532    0.0000 C   0  0  0  0  0  0  0  0  0  0  0  0
    2.2410   -5.9277    0.0000 C   0  0  0  0  0  0  0  0  0  0  0  0
    1.0155   -6.7926    0.0000 C   0  0  0  0  0  0  0  0  0  0  0  0
    2.7090   -5.0079    1.3891 C   0  0  0  0  0  0  0  0  0  0  0  0
    4.2025   -4.3809    2.0493 C   0  0  2  0  0  0  0  0  0  0  0  0
    5.3735   -5.3195    1.7846 C   0  0  0  0  0  0  0  0  0  0  0  0
    6.4725   -5.2591    2.8866 C   0  0  0  0  0  0  0  0  0  0  0  0
    6.8023   -3.8665    3.5094 C   0  0  0  0  0  0  0  0  0  0  0  0
    6.6670   -2.7247    2.4941 C   0  0  2  0  0  0  0  0  0  0  0  0
    7.8511   -1.4553    2.9055 C   0  0  0  0  0  0  0  0  0  0  0  0
    8.6385   -0.1769    2.5809 C   0  0  0  0  0  0  0  0  0  0  0  0
    8.9502    1.1046    1.4487 C   0  0  2  0  0  0  0  0  0  0  0  0
   10.2006    2.2150    1.5372 C   0  0  0  0  0  0  0  0  0  0  0  0
   10.7251    2.8808    0.0000 C   0  0  2  0  0  0  0  0  0  0  0  0
   11.9571    2.0251    0.0000 C   0  0  0  0  0  0  0  0  0  0  0  0
   10.7254    4.3728   -0.3688 C   0  0  0  0  0  0  0  0  0  0  0  0
   10.7345    5.6585   -3.4061 C   0  0  0  0  0  0  0  0  0  0  0  0
   10.9629    7.2385   -3.7166 C   0  0  0  0  0  0  0  0  0  0  0  0
   12.2061    7.8842   -3.0694 C   0  0  0  0  0  0  0  0  0  0  0  0
   13.4991    7.3498   -3.2498 C   0  0  0  0  0  0  0  0  0  0  0  0
   14.6005    7.9021   -2.5835 C   0  0  0  0  0  0  0  0  0  0  0  0
   14.4359    8.9997   -1.7363 C   0  0  0  0  0  0  0  0  0  0  0  0
   13.1713    9.5595   -1.5631 C   0  0  0  0  0  0  0  0  0  0  0  0
   12.0685    9.0131   -2.2253 C   0  0  0  0  0  0  0  0  0  0  0  0
    7.8225    2.1967    1.1512 C   0  0  2  0  0  0  0  0  0  0  0  0
    7.3736    2.7052    2.3997 O   0  0  0  0  0  0  0  0  0  0  0  0
    6.6510    2.1033    0.0181 C   0  0  2  0  0  0  0  0  0  0  0  0
    6.7454    3.4320   -0.8404 C   0  0  1  0  0  0  0  0  0  0  0  0
    5.9933    3.4205   -2.0385 O   0  0  0  0  0  0  0  0  0  0  0  0
    6.3831    4.6016    0.0342 C   0  0  0  0  0  0  0  0  0  0  0  0
    4.9252    4.5068    0.1647 C   0  0  0  0  0  0  0  0  0  0  0  0
    4.2654    2.9908    0.0000 C   0  0  1  0  0  0  0  0  0  0  0  0
    2.9462    3.7048    0.0000 C   0  0  0  0  0  0  0  0  0  0  0  0
    2.9132    1.9213   -0.1953 C   0  0  2  0  0  0  0  0  0  0  0  0
    2.0181    1.6843   -1.5370 C   0  0  0  0  0  0  0  0  0  0  0  0
    0.4973    1.2964   -1.3522 C   0  0  0  0  0  0  0  0  0  0  0  0
    0.1249    0.5787    0.0178 C   0  0  2  0  0  0  0  0  0  0  0  0
    0.7442   -0.8288    0.0155 C   0  0  0  0  0  0  0  0  0  0  0  0
   -0.3297   -1.6653   -0.6861 C   0  0  0  0  0  0  0  0  0  0  0  0
   -1.5651   -1.2301    0.0847 C   0  0  2  0  0  0  0  0  0  0  0  0
   -2.9026   -1.7830   -0.3592 C   0  0  0  0  0  0  0  0  0  0  0  0
   -4.1391   -1.1153    0.3323 C   0  0  2  0  0  0  0  0  0  0  0  0
   -3.8853   -0.8219    1.8503 C   0  0  0  0  0  0  0  0  0  0  0  0
   -3.4084   -1.8470    2.7010 C   0  0  0  0  0  0  0  0  0  0  0  0
   -3.1163   -1.5952    4.0479 C   0  0  0  0  0  0  0  0  0  0  0  0
   -3.3063   -0.3231    4.5850 C   0  0  0  0  0  0  0  0  0  0  0  0
   -3.8026    0.6976    3.7830 C   0  0  0  0  0  0  0  0  0  0  0  0
   -4.0948    0.4566    2.4401 C   0  0  0  0  0  0  0  0  0  0  0  0
   -5.3378   -2.1140    0.2827 C   0  0  0  0  0  0  0  0  0  0  0  0
   -5.7882   -2.4475   -1.1445 C   0  0  0  0  0  0  0  0  0  0  0  0
   -6.2105   -1.1705   -1.8717 C   0  0  0  0  0  0  0  0  0  0  0  0
   -5.0645   -0.1449   -1.9244 C   0  0  0  0  0  0  0  0  0  0  0  0
   -4.5567    0.1733   -0.4893 C   0  0  2  0  0  0  0  0  0  0  0  0
   -3.6257    1.4067   -0.4402 C   0  0  0  0  0  0  0  0  0  0  0  0
   -4.2898    2.6254   -0.6839 C   0  0  0  0  0  0  0  0  0  0  0  0
   -3.7039    3.8496   -0.4039 C   0  0  0  0  0  0  0  0  0  0  0  0
   -2.4380    3.9105    0.1738 C   0  0  0  0  0  0  0  0  0  0  0  0
   -1.9291    5.1479    0.5796 C   0  0  0  0  0  0  0  0  0  0  0  0
   -0.7108    5.2200    1.2446 C   0  0  0  0  0  0  0  0  0  0  0  0
    0.0466    4.0707    1.4633 C   0  0  0  0  0  0  0  0  0  0  0  0
   -0.3706    2.8217    0.9821 C   0  0  0  0  0  0  0  0  0  0  0  0
   -1.6883    2.7275    0.3769 C   0  0  0  0  0  0  0  0  0  0  0  0
   -2.2650    1.4587    0.0135 C   0  0  0  0  0  0  0  0  0  0  0  0
   -1.3781    0.2783    0.3192 C   0  0  2  0  0  0  0  0  0  0  0  0
    0.5232    1.5530    1.1330 C   0  0  2  0  0  0  0  0  0  0  0  0
    2.0608    1.6121    1.1813 C   0  0  0  0  0  0  0  0  0  0  0  0
    5.1932    2.0282    0.7736 C   0  0  2  0  0  0  0  0  0  0  0  0
    4.7931    0.5602    1.4183 C   0  0  1  0  0  0  0  0  0  0  0  0
    6.0438   -0.0008    1.4740 C   0  0  0  0  0  0  0  0  0  0  0  0
    6.6370   -0.4266    0.0000 C   0  0  1  0  0  0  0  0  0  0  0  0
    6.3237   -1.8935    0.0000 C   0  0  0  0  0  0  0  0  0  0  0  0
    6.8534    0.9000   -0.9939 C   0  0  1  0  0  0  0  0  0  0  0  0
    5.7544    0.9087   -1.8696 O   0  0  0  0  0  0  0  0  0  0  0  0
    8.2543    1.1260   -1.9400 C   0  0  0  0  0  0  0  0  0  0  0  0
    8.9110    2.4417   -2.8354 C   0  0  0  0  0  0  0  0  0  0  0  0
    9.7697    3.7975   -2.3903 C   0  0  0  0  0  0  0  0  0  0  0  0
    9.1406    5.2164   -1.8269 C   0  0  0  0  0  0  0  0  0  0  0  0
   10.5179    6.3855   -1.2906 C   0  0  0  0  0  0  0  0  0  0  0  0
   10.4080    7.4186   -0.6520 O   0  0  0  0  0  0  0  0  0  0  0  0
   11.9449    5.5783   -1.6487 O   0  0  0  0  0  0  0  0  0  0  0  0
   11.7753    3.9918   -2.3241 C   0  0  0  0  0  0  0  0  0  0  0  0
    4.0672   -0.5163    0.8504 O   0  0  0  0  0  0  0  0  0  0  0  0
    3.9824   -1.8910    1.1587 C   0  0  0  0  0  0  0  0  0  0  0  0
    3.2393   -2.5097    0.4190 O   0  0  0  0  0  0  0  0  0  0  0  0
    4.8531   -2.7930    2.1928 C   0  0  1  0  0  0  0  0  0  0  0  0
    2.8950   -7.6245   -1.0025 H   0  0  0  0  0  0  0  0  0  0  0  0
    2.9359   -7.6398    0.9990 H   0  0  0  0  0  0  0  0  0  0  0  0
    3.7230   -8.0274    0.0000 H   0  0  0  0  0  0  0  0  0  0  0  0
    2.3930   -5.3603   -0.9454 H   0  0  0  0  0  0  0  0  0  0  0  0
    0.3139   -5.9544   -0.2010 H   0  0  0  0  0  0  0  0  0  0  0  0
    0.9268   -6.9878    1.0968 H   0  0  0  0  0  0  0  0  0  0  0  0
    0.1413   -7.4096    0.0000 H   0  0  0  0  0  0  0  0  0  0  0  0
    2.4603   -5.7467    2.1819 H   0  0  0  0  0  0  0  0  0  0  0  0
    1.9316   -4.2325    1.5474 H   0  0  0  0  0  0  0  0  0  0  0  0
    3.9883   -4.5682    3.1271 H   0  0  0  0  0  0  0  0  0  0  0  0
    5.0550   -6.3788    1.7066 H   0  0  0  0  0  0  0  0  0  0  0  0
    5.7931   -5.0332    0.7988 H   0  0  0  0  0  0  0  0  0  0  0  0
    6.2076   -5.9259    3.7352 H   0  0  0  0  0  0  0  0  0  0  0  0
    7.3854   -5.6849    2.4140 H   0  0  0  0  0  0  0  0  0  0  0  0
    7.8241   -3.9543    3.9387 H   0  0  0  0  0  0  0  0  0  0  0  0
    6.1139   -3.6388    4.3516 H   0  0  0  0  0  0  0  0  0  0  0  0
    7.2400   -3.1943    1.6783 H   0  0  0  0  0  0  0  0  0  0  0  0
    8.2057   -1.7473    3.8895 H   0  0  0  0  0  0  0  0  0  0  0  0
    9.3054    0.0338    3.4128 H   0  0  0  0  0  0  0  0  0  0  0  0
    9.3157    0.5563    0.5865 H   0  0  0  0  0  0  0  0  0  0  0  0
   10.9937    1.6706    2.1069 H   0  0  0  0  0  0  0  0  0  0  0  0
   10.0205    3.0364    2.2610 H   0  0  0  0  0  0  0  0  0  0  0  0
   10.0286    2.3777   -0.6258 H   0  0  0  0  0  0  0  0  0  0  0  0
   11.5478    0.9862    0.0732 H   0  0  0  0  0  0  0  0  0  0  0  0
   12.5217    2.5266    0.8219 H   0  0  0  0  0  0  0  0  0  0  0  0
   12.8359    1.4147    0.0000 H   0  0  0  0  0  0  0  0  0  0  0  0
   11.5625    4.7225    0.3000 H   0  0  0  0  0  0  0  0  0  0  0  0
    9.8710    4.7148    0.2866 H   0  0  0  0  0  0  0  0  0  0  0  0
   11.5178    5.3515   -4.1380 H   0  0  0  0  0  0  0  0  0  0  0  0
    9.8430    5.4371   -4.0598 H   0  0  0  0  0  0  0  0  0  0  0  0
   11.0404    7.3846   -4.8164 H   0  0  0  0  0  0  0  0  0  0  0  0
   10.0579    7.8036   -3.4009 H   0  0  0  0  0  0  0  0  0  0  0  0
   13.6477    6.4860   -3.8850 H   0  0  0  0  0  0  0  0  0  0  0  0
   15.5853    7.4709   -2.7095 H   0  0  0  0  0  0  0  0  0  0  0  0
   15.2878    9.4163   -1.2091 H   0  0  0  0  0  0  0  0  0  0  0  0
   13.0450   10.4100   -0.9032 H   0  0  0  0  0  0  0  0  0  0  0  0
   11.0952    9.4608   -2.0586 H   0  0  0  0  0  0  0  0  0  0  0  0
    8.3517    3.0387    0.7209 H   0  0  0  0  0  0  0  0  0  0  0  0
    7.9308    3.4749    2.6879 H   0  0  0  0  0  0  0  0  0  0  0  0
    7.7521    3.4990   -1.1011 H   0  0  0  0  0  0  0  0  0  0  0  0
    6.2645    4.2159   -2.5669 H   0  0  0  0  0  0  0  0  0  0  0  0
    6.8692    4.5716    1.0193 H   0  0  0  0  0  0  0  0  0  0  0  0
    6.6358    5.6141   -0.3412 H   0  0  0  0  0  0  0  0  0  0  0  0
    4.6164    5.2022   -0.6657 H   0  0  0  0  0  0  0  0  0  0  0  0
    4.7031    5.0477    1.1218 H   0  0  0  0  0  0  0  0  0  0  0  0
    2.8534    4.1661    1.0226 H   0  0  0  0  0  0  0  0  0  0  0  0
    2.8948    4.2254   -1.0048 H   0  0  0  0  0  0  0  0  0  0  0  0
    2.0052    4.2141   -0.0000 H   0  0  0  0  0  0  0  0  0  0  0  0
    3.4082    1.0040   -0.4456 H   0  0  0  0  0  0  0  0  0  0  0  0
    2.0619    2.5562   -2.2233 H   0  0  0  0  0  0  0  0  0  0  0  0
    2.4672    0.8872   -2.1861 H   0  0  0  0  0  0  0  0  0  0  0  0
   -0.0424    2.2560   -1.4296 H   0  0  0  0  0  0  0  0  0  0  0  0
    0.1444    0.7420   -2.2463 H   0  0  0  0  0  0  0  0  0  0  0  0
    1.7321   -0.8743   -0.4781 H   0  0  0  0  0  0  0  0  0  0  0  0
    0.8409   -1.2045    1.0610 H   0  0  0  0  0  0  0  0  0  0  0  0
   -0.4246   -1.3709   -1.7525 H   0  0  0  0  0  0  0  0  0  0  0  0
   -0.1371   -2.7591   -0.6322 H   0  0  0  0  0  0  0  0  0  0  0  0
   -1.3913   -1.7126    1.0805 H   0  0  0  0  0  0  0  0  0  0  0  0
   -2.9755   -1.7437   -1.4573 H   0  0  0  0  0  0  0  0  0  0  0  0
   -2.8624   -2.8693   -0.1152 H   0  0  0  0  0  0  0  0  0  0  0  0
   -3.2331   -2.8425    2.3177 H   0  0  0  0  0  0  0  0  0  0  0  0
   -2.7319   -2.3868    4.6772 H   0  0  0  0  0  0  0  0  0  0  0  0
   -3.0729   -0.1261    5.6239 H   0  0  0  0  0  0  0  0  0  0  0  0
   -3.9576    1.6860    4.1994 H   0  0  0  0  0  0  0  0  0  0  0  0
   -4.4771    1.2990    1.8929 H   0  0  0  0  0  0  0  0  0  0  0  0
   -6.2040   -1.6717    0.8266 H   0  0  0  0  0  0  0  0  0  0  0  0
   -5.0794   -3.0616    0.8042 H   0  0  0  0  0  0  0  0  0  0  0  0
   -4.9743   -2.9569   -1.7008 H   0  0  0  0  0  0  0  0  0  0  0  0
   -6.6524   -3.1455   -1.0949 H   0  0  0  0  0  0  0  0  0  0  0  0
   -6.5473   -1.4185   -2.9004 H   0  0  0  0  0  0  0  0  0  0  0  0
   -7.0737   -0.7243   -1.3281 H   0  0  0  0  0  0  0  0  0  0  0  0
   -5.4655    0.7696   -2.4084 H   0  0  0  0  0  0  0  0  0  0  0  0
   -4.2498   -0.5088   -2.5782 H   0  0  0  0  0  0  0  0  0  0  0  0
   -5.4726    0.5124    0.0503 H   0  0  0  0  0  0  0  0  0  0  0  0
   -5.3175    2.6356   -1.0275 H   0  0  0  0  0  0  0  0  0  0  0  0
   -4.2817    4.7519   -0.5695 H   0  0  0  0  0  0  0  0  0  0  0  0
   -2.4991    6.0572    0.4256 H   0  0  0  0  0  0  0  0  0  0  0  0
   -0.3498    6.1782    1.5948 H   0  0  0  0  0  0  0  0  0  0  0  0
    0.9722    4.1719    1.9995 H   0  0  0  0  0  0  0  0  0  0  0  0
   -1.5152    0.2815    1.4262 H   0  0  0  0  0  0  0  0  0  0  0  0
    0.2629    1.1530    2.1416 H   0  0  0  0  0  0  0  0  0  0  0  0
    2.3811    2.2595    2.0246 H   0  0  0  0  0  0  0  0  0  0  0  0
    2.2979    0.6136    1.5562 H   0  0  0  0  0  0  0  0  0  0  0  0
    5.2727    2.6229    1.7029 H   0  0  0  0  0  0  0  0  0  0  0  0
    4.3495    0.7562    2.4307 H   0  0  0  0  0  0  0  0  0  0  0  0
    5.8455   -0.6890    2.2245 H   0  0  0  0  0  0  0  0  0  0  0  0
    6.5454    0.6316    2.1662 H   0  0  0  0  0  0  0  0  0  0  0  0
    7.6655   -0.5782    0.2951 H   0  0  0  0  0  0  0  0  0  0  0  0
    7.1385   -2.2371   -0.6871 H   0  0  0  0  0  0  0  0  0  0  0  0
    5.4908   -1.7857   -0.7253 H   0  0  0  0  0  0  0  0  0  0  0  0
    6.1002   -2.9399    0.0000 H   0  0  0  0  0  0  0  0  0  0  0  0
    5.8073    0.0776   -2.4084 H   0  0  0  0  0  0  0  0  0  0  0  0
    8.1124    0.3509   -2.7223 H   0  0  0  0  0  0  0  0  0  0  0  0
    9.1039    0.6956   -1.4104 H   0  0  0  0  0  0  0  0  0  0  0  0
    9.6819    1.9203   -3.4406 H   0  0  0  0  0  0  0  0  0  0  0  0
    8.1533    2.7686   -3.5766 H   0  0  0  0  0  0  0  0  0  0  0  0
    8.1145    5.4782   -1.7581 H   0  0  0  0  0  0  0  0  0  0  0  0
   12.3054    3.8022   -3.2839 H   0  0  0  0  0  0  0  0  0  0  0  0
   12.4206    3.3024   -1.7950 H   0  0  0  0  0  0  0  0  0  0  0  0
    4.4416   -2.3976    3.1477 H   0  0  0  0  0  0  0  0  0  0  0  0
  1  2  1  0  0  0  0
  1 86  1  0  0  0  0
  1 87  1  0  0  0  0
  1 88  1  0  0  0  0
  2  3  1  0  0  0  0
  2  4  1  0  0  0  0
  2 89  1  0  0  0  0
  3 90  1  0  0  0  0
  3 91  1  0  0  0  0
  3 92  1  0  0  0  0
  4 93  1  0  0  0  0
  4 94  1  0  0  0  0
  5  4  1  0  0  0  0
  5  6  1  0  0  0  0
  5 95  1  6  0  0  0
  6  7  1  0  0  0  0
  6 96  1  0  0  0  0
  6 97  1  0  0  0  0
  7  8  1  0  0  0  0
  7 98  1  0  0  0  0
  7 99  1  0  0  0  0
  8100  1  0  0  0  0
  8101  1  0  0  0  0
  9  8  1  0  0  0  0
  9 10  1  0  0  0  0
  9102  1  6  0  0  0
 10 11  2  0  0  0  0
 10103  1  0  0  0  0
 11 12  1  0  0  0  0
 11104  1  0  0  0  0
 12 13  1  0  0  0  0
 12 25  1  0  0  0  0
 12105  1  6  0  0  0
 13 14  1  0  0  0  0
 13106  1  0  0  0  0
 13107  1  0  0  0  0
 14 15  1  0  0  0  0
 14 16  1  0  0  0  0
 14108  1  6  0  0  0
 15109  1  0  0  0  0
 15110  1  0  0  0  0
 15111  1  0  0  0  0
 16 17  1  0  0  0  0
 16112  1  0  0  0  0
 16113  1  0  0  0  0
 17 18  1  0  0  0  0
 17114  1  0  0  0  0
 17115  1  0  0  0  0
 18 19  1  0  0  0  0
 18116  1  0  0  0  0
 18117  1  0  0  0  0
 19 20  2  0  0  0  0
 20 21  1  0  0  0  0
 20118  1  0  0  0  0
 21 22  2  0  0  0  0
 21119  1  0  0  0  0
 22 23  1  0  0  0  0
 22120  1  0  0  0  0
 23 24  2  0  0  0  0
 23121  1  0  0  0  0
 24 19  1  0  0  0  0
 24122  1  0  0  0  0
 25 26  1  0  0  0  0
 25 27  1  0  0  0  0
 25123  1  6  0  0  0
 26124  1  0  0  0  0
 27 28  1  0  0  0  0
 27 72  1  0  0  0  0
 28 29  1  0  0  0  0
 28 30  1  0  0  0  0
 28125  1  0  0  0  0
 29126  1  0  0  0  0
 30 31  1  0  0  0  0
 30127  1  0  0  0  0
 30128  1  0  0  0  0
 31 32  1  0  0  0  0
 31129  1  0  0  0  0
 31130  1  0  0  0  0
 32 33  1  0  0  0  0
 32 34  1  0  0  0  0
 32 67  1  0  0  0  0
 33131  1  0  0  0  0
 33132  1  0  0  0  0
 33133  1  0  0  0  0
 34 35  1  0  0  0  0
 34134  1  0  0  0  0
 35 36  1  0  0  0  0
 35135  1  0  0  0  0
 35136  1  0  0  0  0
 36137  1  0  0  0  0
 36138  1  0  0  0  0
 37 36  1  0  0  0  0
 37 38  1  0  0  0  0
 38 39  1  0  0  0  0
 38139  1  0  0  0  0
 38140  1  0  0  0  0
 39141  1  0  0  0  0
 39142  1  0  0  0  0
 40 39  1  0  0  0  0
 40 41  1  0  0  0  0
 40143  1  0  0  0  0
 41 42  1  0  0  0  0
 41144  1  0  0  0  0
 41145  1  0  0  0  0
 42 43  1  0  0  0  0
 42 49  1  0  0  0  0
 43 44  2  0  0  0  0
 44 45  1  0  0  0  0
 44146  1  0  0  0  0
 45 46  2  0  0  0  0
 45147  1  0  0  0  0
 46 47  1  0  0  0  0
 46148  1  0  0  0  0
 47 48  2  0  0  0  0
 47149  1  0  0  0  0
 48 43  1  0  0  0  0
 48150  1  0  0  0  0
 49 50  1  0  0  0  0
 49151  1  0  0  0  0
 49152  1  0  0  0  0
 50 51  1  0  0  0  0
 50153  1  0  0  0  0
 50154  1  0  0  0  0
 51 52  1  0  0  0  0
 51155  1  0  0  0  0
 51156  1  0  0  0  0
 52157  1  0  0  0  0
 52158  1  0  0  0  0
 53 52  1  0  0  0  0
 53 54  1  0  0  0  0
 53 42  1  0  0  0  0
 53159  1  0  0  0  0
 54 55  2  0  0  0  0
 55 56  1  0  0  0  0
 55160  1  0  0  0  0
 56 57  2  0  0  0  0
 56161  1  0  0  0  0
 57 58  1  0  0  0  0
 58 59  2  0  0  0  0
 58162  1  0  0  0  0
 59 60  1  0  0  0  0
 59163  1  0  0  0  0
 60 61  2  0  0  0  0
 60164  1  0  0  0  0
 61 62  1  0  0  0  0
 61 65  1  0  0  0  0
 62 63  2  0  0  0  0
 62 57  1  0  0  0  0
 63 54  1  0  0  0  0
 64 63  1  0  0  0  0
 64 37  1  0  0  0  0
 64 40  1  0  0  0  0
 64165  1  0  0  0  0
 65 66  1  0  0  0  0
 65 37  1  0  0  0  0
 65166  1  0  0  0  0
 66 34  1  0  0  0  0
 66167  1  0  0  0  0
 66168  1  0  0  0  0
 67 68  1  0  0  0  0
 67 27  1  0  0  0  0
 67169  1  0  0  0  0
 68 69  1  0  0  0  0
 68 82  1  0  0  0  0
 68170  1  0  0  0  0
 69 70  1  0  0  0  0
 69171  1  0  0  0  0
 69172  1  0  0  0  0
 70 71  1  0  0  0  0
 70 72  1  0  0  0  0
 70173  1  0  0  0  0
 71174  1  0  0  0  0
 71175  1  0  0  0  0
 71176  1  0  0  0  0
 72 73  1  0  0  0  0
 72 74  1  0  0  0  0
 73177  1  0  0  0  0
 74 75  1  0  0  0  0
 74178  1  0  0  0  0
 74179  1  0  0  0  0
 75 76  1  0  0  0  0
 75180  1  0  0  0  0
 75181  1  0  0  0  0
 76 77  2  0  0  0  0
 77 78  1  0  0  0  0
 77182  1  0  0  0  0
 78 79  2  0  0  0  0
 78 80  1  0  0  0  0
 80 81  1  0  0  0  0
 81 76  1  0  0  0  0
 81183  1  0  0  0  0
 81184  1  0  0  0  0
 82 83  1  0  0  0  0
 83 84  2  0  0  0  0
 85 83  1  0  0  0  0
 85  5  1  0  0  0  0
 85  9  1  0  0  0  0
 85185  1  0  0  0  0
M  END
>  <IDENTIFIER>
CNP0235490.1

>  <Energy>
17447.2

$$$$
