
 OpenBabel09092504313D

 62 63  0  0  0  0  0  0  0  0999 V2000
   -1.8650   -3.6013    0.6206 C   0  0  0  0  0  0  0  0  0  0  0  0
   -1.5297   -2.3065    0.7315 C   0  0  0  0  0  0  0  0  0  0  0  0
   -1.7740   -1.5441    2.0094 C   0  0  0  0  0  0  0  0  0  0  0  0
   -2.6734   -0.3305    1.7246 C   0  0  0  0  0  0  0  0  0  0  0  0
   -2.0926    0.5494    0.5757 C   0  0  2  0  0  0  0  0  0  0  0  0
   -2.8186    1.9501    0.3977 C   0  0  0  0  0  0  0  0  0  0  0  0
   -2.6095    2.8114    1.6735 C   0  0  0  0  0  0  0  0  0  0  0  0
   -4.3515    1.8787    0.1786 C   0  0  0  0  0  0  0  0  0  0  0  0
   -2.1421    2.7092   -0.7786 C   0  0  0  0  0  0  0  0  0  0  0  0
   -2.1020    1.8908   -2.0781 C   0  0  0  0  0  0  0  0  0  0  0  0
   -1.2877    0.6063   -1.8565 C   0  0  0  0  0  0  0  0  0  0  0  0
   -1.8921   -0.3128   -0.7509 C   0  0  2  0  0  0  0  0  0  0  0  0
   -3.2072   -0.9440   -1.3143 C   0  0  0  0  0  0  0  0  0  0  0  0
   -0.9301   -1.5376   -0.4371 C   0  0  1  0  0  0  0  0  0  0  0  0
    0.5463   -1.1451   -0.1330 C   0  0  0  0  0  0  0  0  0  0  0  0
    1.4720   -2.3508    0.1148 C   0  0  0  0  0  0  0  0  0  0  0  0
    2.9462   -2.0044    0.3316 C   0  0  0  0  0  0  0  0  0  0  0  0
    3.8829   -3.1721    0.5273 C   0  0  0  0  0  0  0  0  0  0  0  0
    3.4098   -0.7232    0.3458 C   0  0  0  0  0  0  0  0  0  0  0  0
    4.8577   -0.3130    0.5458 C   0  0  0  0  0  0  0  0  0  0  0  0
    5.3998    0.4475   -0.6765 C   0  0  0  0  0  0  0  0  0  0  0  0
    4.8233    1.8236   -0.9635 C   0  0  0  0  0  0  0  0  0  0  0  0
    3.8514    2.5635   -0.0802 C   0  0  0  0  0  0  0  0  0  0  0  0
    5.1982    2.3907   -1.9788 O   0  0  0  0  0  0  0  0  0  0  0  0
   -2.3068   -4.1373    1.4549 H   0  0  0  0  0  0  0  0  0  0  0  0
   -1.7012   -4.1424   -0.3058 H   0  0  0  0  0  0  0  0  0  0  0  0
   -0.8010   -1.1906    2.4095 H   0  0  0  0  0  0  0  0  0  0  0  0
   -2.2442   -2.1792    2.7920 H   0  0  0  0  0  0  0  0  0  0  0  0
   -2.7523    0.2360    2.6721 H   0  0  0  0  0  0  0  0  0  0  0  0
   -3.6941   -0.6757    1.4606 H   0  0  0  0  0  0  0  0  0  0  0  0
   -1.0723    0.8435    0.8942 H   0  0  0  0  0  0  0  0  0  0  0  0
   -3.1183    2.3795    2.5582 H   0  0  0  0  0  0  0  0  0  0  0  0
   -3.0251    3.8327    1.5316 H   0  0  0  0  0  0  0  0  0  0  0  0
   -1.5288    2.9199    1.9100 H   0  0  0  0  0  0  0  0  0  0  0  0
   -4.8492    1.3513    1.0182 H   0  0  0  0  0  0  0  0  0  0  0  0
   -4.6646    1.4165   -0.7606 H   0  0  0  0  0  0  0  0  0  0  0  0
   -4.7727    2.9070    0.1365 H   0  0  0  0  0  0  0  0  0  0  0  0
   -1.0878    2.9454   -0.5056 H   0  0  0  0  0  0  0  0  0  0  0  0
   -2.6561    3.6783   -0.9610 H   0  0  0  0  0  0  0  0  0  0  0  0
   -1.5958    2.4963   -2.8611 H   0  0  0  0  0  0  0  0  0  0  0  0
   -3.1219    1.6751   -2.4477 H   0  0  0  0  0  0  0  0  0  0  0  0
   -0.2813    0.9624   -1.5630 H   0  0  0  0  0  0  0  0  0  0  0  0
   -1.1840    0.0462   -2.8115 H   0  0  0  0  0  0  0  0  0  0  0  0
   -2.9682   -1.5792   -2.1944 H   0  0  0  0  0  0  0  0  0  0  0  0
   -3.9423   -0.2315   -1.6934 H   0  0  0  0  0  0  0  0  0  0  0  0
   -3.7186   -1.5968   -0.5801 H   0  0  0  0  0  0  0  0  0  0  0  0
   -0.8736   -2.1879   -1.3406 H   0  0  0  0  0  0  0  0  0  0  0  0
    0.6088   -0.4760    0.7457 H   0  0  0  0  0  0  0  0  0  0  0  0
    0.9639   -0.6357   -1.0221 H   0  0  0  0  0  0  0  0  0  0  0  0
    1.4079   -3.0205   -0.7704 H   0  0  0  0  0  0  0  0  0  0  0  0
    1.1147   -2.9106    1.0054 H   0  0  0  0  0  0  0  0  0  0  0  0
    3.3356   -4.1374    0.4822 H   0  0  0  0  0  0  0  0  0  0  0  0
    4.3760   -3.1041    1.5197 H   0  0  0  0  0  0  0  0  0  0  0  0
    4.6511   -3.1792   -0.2753 H   0  0  0  0  0  0  0  0  0  0  0  0
    2.7207    0.0926    0.2035 H   0  0  0  0  0  0  0  0  0  0  0  0
    5.5035   -1.2016    0.6897 H   0  0  0  0  0  0  0  0  0  0  0  0
    4.9621    0.3052    1.4614 H   0  0  0  0  0  0  0  0  0  0  0  0
    5.2442   -0.1981   -1.5690 H   0  0  0  0  0  0  0  0  0  0  0  0
    6.4953    0.5823   -0.5449 H   0  0  0  0  0  0  0  0  0  0  0  0
    3.6009    2.0281    0.8532 H   0  0  0  0  0  0  0  0  0  0  0  0
    2.9144    2.7588   -0.6422 H   0  0  0  0  0  0  0  0  0  0  0  0
    4.2992    3.5353    0.2158 H   0  0  0  0  0  0  0  0  0  0  0  0
  1  2  2  0  0  0  0
  1 25  1  0  0  0  0
  1 26  1  0  0  0  0
  2  3  1  0  0  0  0
  3  4  1  0  0  0  0
  3 27  1  0  0  0  0
  3 28  1  0  0  0  0
  4 29  1  0  0  0  0
  4 30  1  0  0  0  0
  5  4  1  0  0  0  0
  5  6  1  0  0  0  0
  5 31  1  1  0  0  0
  6  7  1  0  0  0  0
  6  8  1  0  0  0  0
  6  9  1  0  0  0  0
  7 32  1  0  0  0  0
  7 33  1  0  0  0  0
  7 34  1  0  0  0  0
  8 35  1  0  0  0  0
  8 36  1  0  0  0  0
  8 37  1  0  0  0  0
  9 10  1  0  0  0  0
  9 38  1  0  0  0  0
  9 39  1  0  0  0  0
 10 11  1  0  0  0  0
 10 40  1  0  0  0  0
 10 41  1  0  0  0  0
 11 12  1  0  0  0  0
 11 42  1  0  0  0  0
 11 43  1  0  0  0  0
 12 13  1  6  0  0  0
 12 14  1  0  0  0  0
 12  5  1  0  0  0  0
 13 44  1  0  0  0  0
 13 45  1  0  0  0  0
 13 46  1  0  0  0  0
 14 15  1  0  0  0  0
 14  2  1  0  0  0  0
 14 47  1  6  0  0  0
 15 16  1  0  0  0  0
 15 48  1  0  0  0  0
 15 49  1  0  0  0  0
 16 17  1  0  0  0  0
 16 50  1  0  0  0  0
 16 51  1  0  0  0  0
 17 18  1  0  0  0  0
 17 19  2  0  0  0  0
 18 52  1  0  0  0  0
 18 53  1  0  0  0  0
 18 54  1  0  0  0  0
 19 20  1  0  0  0  0
 19 55  1  0  0  0  0
 20 21  1  0  0  0  0
 20 56  1  0  0  0  0
 20 57  1  0  0  0  0
 21 22  1  0  0  0  0
 21 58  1  0  0  0  0
 21 59  1  0  0  0  0
 22 23  1  0  0  0  0
 22 24  2  0  0  0  0
 23 60  1  0  0  0  0
 23 61  1  0  0  0  0
 23 62  1  0  0  0  0
M  END
>  <IDENTIFIER>
CNP0182079.1

>  <Energy>
319.918

$$$$
