
 OpenBabel09102518153D

 40 40  0  0  0  0  0  0  0  0999 V2000
    0.4837   -2.8895    0.0231 C   0  0  0  0  0  0  0  0  0  0  0  0
    0.3448   -1.5498    0.1514 C   0  0  0  0  0  0  0  0  0  0  0  0
   -0.9959   -0.7995    0.0520 C   0  0  0  0  0  0  0  0  0  0  0  0
   -2.2920   -1.4993   -0.3448 C   0  0  0  0  0  0  0  0  0  0  0  0
   -2.2836   -2.6635   -0.7043 O   0  0  0  0  0  0  0  0  0  0  0  0
   -3.6567   -0.8275   -0.3098 C   0  0  0  0  0  0  0  0  0  0  0  0
   -3.7715    0.6430    0.1772 C   0  0  0  0  0  0  0  0  0  0  0  0
   -3.2220    1.6683   -0.8318 C   0  0  0  0  0  0  0  0  0  0  0  0
   -5.2554    0.9693    0.4189 C   0  0  0  0  0  0  0  0  0  0  0  0
    1.5688   -0.6669    0.4412 C   0  0  1  0  0  0  0  0  0  0  0  0
    2.9081   -1.3919    0.7518 C   0  0  0  0  0  0  0  0  0  0  0  0
    3.9088   -0.3188    1.1308 C   0  0  0  0  0  0  0  0  0  0  0  0
    4.0598    0.7368    0.3060 C   0  0  0  0  0  0  0  0  0  0  0  0
    4.9636    1.8887    0.6382 C   0  0  0  0  0  0  0  0  0  0  0  0
    3.2631    0.7257   -0.9711 C   0  0  0  0  0  0  0  0  0  0  0  0
    1.7762    0.4043   -0.6894 C   0  0  0  0  0  0  0  0  0  0  0  0
   -0.3231   -3.5757   -0.1553 H   0  0  0  0  0  0  0  0  0  0  0  0
    1.4460   -3.3773    0.1053 H   0  0  0  0  0  0  0  0  0  0  0  0
   -0.8450   -0.0150   -0.7013 H   0  0  0  0  0  0  0  0  0  0  0  0
   -1.1544   -0.3289    1.0443 H   0  0  0  0  0  0  0  0  0  0  0  0
   -4.2538   -1.4532    0.3899 H   0  0  0  0  0  0  0  0  0  0  0  0
   -4.1262   -0.9079   -1.3152 H   0  0  0  0  0  0  0  0  0  0  0  0
   -3.2486    0.7528    1.1516 H   0  0  0  0  0  0  0  0  0  0  0  0
   -3.7518    1.5802   -1.8043 H   0  0  0  0  0  0  0  0  0  0  0  0
   -2.1446    1.5668   -1.0165 H   0  0  0  0  0  0  0  0  0  0  0  0
   -3.3730    2.6975   -0.4409 H   0  0  0  0  0  0  0  0  0  0  0  0
   -5.8387    0.8750   -0.5231 H   0  0  0  0  0  0  0  0  0  0  0  0
   -5.3671    2.0052    0.8050 H   0  0  0  0  0  0  0  0  0  0  0  0
   -5.6878    0.2788    1.1742 H   0  0  0  0  0  0  0  0  0  0  0  0
    1.3484   -0.1195    1.3874 H   0  0  0  0  0  0  0  0  0  0  0  0
    3.2627   -1.9421   -0.1469 H   0  0  0  0  0  0  0  0  0  0  0  0
    2.8023   -2.1069    1.5959 H   0  0  0  0  0  0  0  0  0  0  0  0
    4.4316   -0.3701    2.0814 H   0  0  0  0  0  0  0  0  0  0  0  0
    5.4723    1.7414    1.6147 H   0  0  0  0  0  0  0  0  0  0  0  0
    4.3679    2.8241    0.6857 H   0  0  0  0  0  0  0  0  0  0  0  0
    5.7367    1.9901   -0.1519 H   0  0  0  0  0  0  0  0  0  0  0  0
    3.6737   -0.1137   -1.5752 H   0  0  0  0  0  0  0  0  0  0  0  0
    3.3785    1.6482   -1.5795 H   0  0  0  0  0  0  0  0  0  0  0  0
    1.3601    0.0576   -1.6613 H   0  0  0  0  0  0  0  0  0  0  0  0
    1.2200    1.3204   -0.3921 H   0  0  0  0  0  0  0  0  0  0  0  0
  1  2  2  0  0  0  0
  1 17  1  0  0  0  0
  1 18  1  0  0  0  0
  2  3  1  0  0  0  0
  3  4  1  0  0  0  0
  3 19  1  0  0  0  0
  3 20  1  0  0  0  0
  4  5  2  0  0  0  0
  4  6  1  0  0  0  0
  6  7  1  0  0  0  0
  6 21  1  0  0  0  0
  6 22  1  0  0  0  0
  7  8  1  0  0  0  0
  7  9  1  0  0  0  0
  7 23  1  0  0  0  0
  8 24  1  0  0  0  0
  8 25  1  0  0  0  0
  8 26  1  0  0  0  0
  9 27  1  0  0  0  0
  9 28  1  0  0  0  0
  9 29  1  0  0  0  0
 10  2  1  0  0  0  0
 10 11  1  0  0  0  0
 10 30  1  1  0  0  0
 11 12  1  0  0  0  0
 11 31  1  0  0  0  0
 11 32  1  0  0  0  0
 12 13  2  0  0  0  0
 12 33  1  0  0  0  0
 13 14  1  0  0  0  0
 13 15  1  0  0  0  0
 14 34  1  0  0  0  0
 14 35  1  0  0  0  0
 14 36  1  0  0  0  0
 15 16  1  0  0  0  0
 15 37  1  0  0  0  0
 15 38  1  0  0  0  0
 16 10  1  0  0  0  0
 16 39  1  0  0  0  0
 16 40  1  0  0  0  0
M  END
>  <IDENTIFIER>
CNP0425926.1

>  <Energy>
297.956

$$$$
