
 OpenBabel09072502582D

159158  0  0  0  0  0  0  0  0999 V2000
   -3.7500   -6.4952    0.0000 C   0  0  0  0  0  0  0  0  0  0  0  0
   -3.0000   -5.1962    0.0000 C   0  0  0  0  0  0  0  0  0  0  0  0
   -3.1779   -3.6759    0.0626 C   0  0  0  0  0  0  0  0  0  0  0  0
   -1.7165   -3.0201    0.0534 C   0  0  0  0  0  0  0  0  0  0  0  0
   -1.7889   -1.4997    0.0729 C   0  0  0  0  0  0  0  0  0  0  0  0
   -0.6021   -0.5162    0.0519 C   0  0  0  0  0  0  0  0  0  0  0  0
    0.7715   -0.3215    0.0417 C   0  0  0  0  0  0  0  0  0  0  0  0
    2.2427   -0.8277    0.0469 C   0  0  0  0  0  0  0  0  0  0  0  0
    3.0278   -2.1545    0.0879 C   0  0  0  0  0  0  0  0  0  0  0  0
    4.4294   -2.1577    0.1129 C   0  0  0  0  0  0  0  0  0  0  0  0
    5.2215   -0.8347    0.0961 C   0  0  0  0  0  0  0  0  0  0  0  0
    6.6913   -0.3369    0.1752 C   0  0  0  0  0  0  0  0  0  0  0  0
    8.0622   -0.5396    0.2616 C   0  0  0  0  0  0  0  0  0  0  0  0
    9.2399   -1.5305    0.3349 C   0  0  0  0  0  0  0  0  0  0  0  0
    9.1794   -3.0438    0.1737 C   0  0  0  0  0  0  0  0  0  0  0  0
   10.6321   -3.7009    0.3123 C   0  0  0  0  0  0  0  0  0  0  0  0
   10.5000   -5.1962    0.0000 C   0  0  0  0  0  0  0  0  0  0  0  0
   11.2500   -6.4952    0.0000 C   0  0  0  0  0  0  0  0  0  0  0  0
   12.0000   -7.7942    0.0000 C   0  0  0  0  0  0  0  0  0  0  0  0
   13.3518   -8.2797    0.7085 C   0  0  0  0  0  0  0  0  0  0  0  0
   13.4627   -8.1738    1.9192 O   0  0  0  0  0  0  0  0  0  0  0  0
   14.2500   -9.0933    0.0000 O   0  0  0  0  0  0  0  0  0  0  0  0
   15.0000  -10.3923    0.0000 C   0  0  2  0  0  0  0  0  0  0  0  0
   13.5005  -11.2430    0.3205 C   0  0  0  0  0  0  0  0  0  0  0  0
   12.9589  -12.3992   -0.3988 O   0  0  0  0  0  0  0  0  0  0  0  0
   12.1860  -13.4660    0.1601 C   0  0  0  0  0  0  0  0  0  0  0  0
   12.2446  -13.6208    1.3705 O   0  0  0  0  0  0  0  0  0  0  0  0
   11.2777  -14.5642   -0.6350 C   0  0  0  0  0  0  0  0  0  0  0  0
    9.8038  -14.8923    0.0000 C   0  0  0  0  0  0  0  0  0  0  0  0
    8.5048  -15.6423    0.0000 C   0  0  0  0  0  0  0  0  0  0  0  0
    7.2058  -16.3923    0.0000 C   0  0  0  0  0  0  0  0  0  0  0  0
    5.9067  -17.1423    0.0000 C   0  0  0  0  0  0  0  0  0  0  0  0
    4.6077  -17.8923    0.0000 C   0  0  0  0  0  0  0  0  0  0  0  0
    3.3087  -18.6423    0.0000 C   0  0  0  0  0  0  0  0  0  0  0  0
    1.8106  -18.9156    0.7026 C   0  0  0  0  0  0  0  0  0  0  0  0
    0.7759  -20.0603   -0.0003 C   0  0  0  0  0  0  0  0  0  0  0  0
   -0.7658  -20.5145    0.5209 C   0  0  0  0  0  0  0  0  0  0  0  0
   -1.6445  -21.6914   -0.3016 C   0  0  0  0  0  0  0  0  0  0  0  0
   -3.1865  -22.3923    0.0000 C   0  0  0  0  0  0  0  0  0  0  0  0
   -4.4856  -23.1423    0.0000 C   0  0  0  0  0  0  0  0  0  0  0  0
   15.7500  -11.6913    0.0000 C   0  0  0  0  0  0  0  0  0  0  0  0
   17.1323  -12.0544   -0.3561 O   0  0  0  0  0  0  0  0  0  0  0  0
   17.7259  -13.3411   -0.0113 C   0  0  0  0  0  0  0  0  0  0  0  0
   17.1737  -13.9728    0.8771 O   0  0  0  0  0  0  0  0  0  0  0  0
   19.0356  -14.1155   -0.6600 C   0  0  0  0  0  0  0  0  0  0  0  0
   19.5000  -15.5885    0.0000 C   0  0  0  0  0  0  0  0  0  0  0  0
   20.2500  -16.8875    0.0000 C   0  0  0  0  0  2  0  0  0  0  0  0
   21.0000  -18.1865    0.0000 C   0  0  0  0  0  0  0  0  0  0  0  0
   21.7500  -19.4856    0.0000 C   0  0  0  0  0  0  0  0  0  0  0  0
   22.5000  -20.7846    0.0000 C   0  0  0  0  0  2  0  0  0  0  0  0
   23.2500  -22.0836    0.0000 C   0  0  0  0  0  0  0  0  0  0  0  0
   23.7787  -23.6267   -0.4076 C   0  0  0  0  0  0  0  0  0  0  0  0
   24.9912  -24.4477    0.4619 C   0  0  0  0  0  0  0  0  0  0  0  0
   25.5000  -25.9808    0.0000 C   0  0  0  0  0  0  0  0  0  0  0  0
   26.2500  -27.2798    0.0000 C   0  0  0  0  0  0  0  0  0  0  0  0
   27.0000  -28.5788    0.0000 C   0  0  0  0  0  0  0  0  0  0  0  0
   26.7206  -30.0279    0.0472 C   0  0  0  0  0  0  0  0  0  0  0  0
   27.9811  -31.0924    0.0140 C   0  0  0  0  0  0  0  0  0  0  0  0
   27.7500  -32.4760    0.0000 C   0  0  0  0  0  0  0  0  0  0  0  0
   26.2500  -32.4760    0.0000 C   0  0  0  0  0  2  0  0  0  0  0  0
   24.7500  -32.4760    0.0000 C   0  0  0  0  0  2  0  0  0  0  0  0
   23.2500  -32.4760    0.0000 C   0  0  0  0  0  2  0  0  0  0  0  0
   21.7500  -32.4760    0.0000 C   0  0  0  0  0  2  0  0  0  0  0  0
   20.2500  -32.4760    0.0000 C   0  0  0  0  0  2  0  0  0  0  0  0
   18.7500  -32.4760    0.0000 C   0  0  0  0  0  2  0  0  0  0  0  0
   17.2500  -32.4760    0.0000 C   0  0  0  0  0  2  0  0  0  0  0  0
   15.7500  -32.4760    0.0000 C   0  0  0  0  0  0  0  0  0  0  0  0
   -4.3012   -6.3045   -0.9474 H   0  0  0  0  0  0  0  0  0  0  0  0
   -2.8818   -7.1828   -0.1494 H   0  0  0  0  0  0  0  0  0  0  0  0
   -4.2850   -7.4218    0.0000 H   0  0  0  0  0  0  0  0  0  0  0  0
   -2.3339   -5.3660    0.8789 H   0  0  0  0  0  0  0  0  0  0  0  0
   -2.3618   -5.2920   -0.9160 H   0  0  0  0  0  0  0  0  0  0  0  0
   -3.7617   -3.3353   -0.8196 H   0  0  0  0  0  0  0  0  0  0  0  0
   -3.7208   -3.3953    0.9907 H   0  0  0  0  0  0  0  0  0  0  0  0
   -1.1675   -3.3236   -0.8646 H   0  0  0  0  0  0  0  0  0  0  0  0
   -1.1387   -3.3582    0.9409 H   0  0  0  0  0  0  0  0  0  0  0  0
   -2.3778   -1.2336    0.9784 H   0  0  0  0  0  0  0  0  0  0  0  0
   -2.4050   -1.2250   -0.8121 H   0  0  0  0  0  0  0  0  0  0  0  0
   -1.0924    0.4619    0.0426 H   0  0  0  0  0  0  0  0  0  0  0  0
    0.9060    0.7650    0.0211 H   0  0  0  0  0  0  0  0  0  0  0  0
    2.6280   -0.2960    0.9412 H   0  0  0  0  0  0  0  0  0  0  0  0
    2.6426   -0.3363   -0.8652 H   0  0  0  0  0  0  0  0  0  0  0  0
    2.4851   -3.0935    0.1056 H   0  0  0  0  0  0  0  0  0  0  0  0
    4.9672   -3.0990    0.1531 H   0  0  0  0  0  0  0  0  0  0  0  0
    4.7933   -0.2980    0.9694 H   0  0  0  0  0  0  0  0  0  0  0  0
    4.8683   -0.3436   -0.8350 H   0  0  0  0  0  0  0  0  0  0  0  0
    6.5647    0.7511    0.1590 H   0  0  0  0  0  0  0  0  0  0  0  0
    8.5548    0.4352    0.3066 H   0  0  0  0  0  0  0  0  0  0  0  0
    9.9389   -1.1964   -0.4648 H   0  0  0  0  0  0  0  0  0  0  0  0
    9.7384   -1.3297    1.3080 H   0  0  0  0  0  0  0  0  0  0  0  0
    8.4959   -3.4650    0.9422 H   0  0  0  0  0  0  0  0  0  0  0  0
    8.7579   -3.2574   -0.8329 H   0  0  0  0  0  0  0  0  0  0  0  0
   11.0092   -3.5547    1.3468 H   0  0  0  0  0  0  0  0  0  0  0  0
   11.3481   -3.2462   -0.4060 H   0  0  0  0  0  0  0  0  0  0  0  0
   10.0813   -5.1937   -1.0340 H   0  0  0  0  0  0  0  0  0  0  0  0
    9.6295   -5.4824    0.6415 H   0  0  0  0  0  0  0  0  0  0  0  0
   11.4633   -6.3824    1.0916 H   0  0  0  0  0  0  0  0  0  0  0  0
   12.0756   -6.0157   -0.5770 H   0  0  0  0  0  0  0  0  0  0  0  0
   12.0384   -8.1519   -1.0544 H   0  0  0  0  0  0  0  0  0  0  0  0
   11.2593   -8.4770    0.4764 H   0  0  0  0  0  0  0  0  0  0  0  0
   15.1918  -10.3090   -1.0917 H   0  0  0  0  0  0  0  0  0  0  0  0
   12.6276  -10.5671    0.2414 H   0  0  0  0  0  0  0  0  0  0  0  0
   13.4803  -11.4524    1.4131 H   0  0  0  0  0  0  0  0  0  0  0  0
   11.1964  -14.2761   -1.7031 H   0  0  0  0  0  0  0  0  0  0  0  0
   11.8334  -15.5251   -0.5875 H   0  0  0  0  0  0  0  0  0  0  0  0
   10.1038  -15.0399    1.0678 H   0  0  0  0  0  0  0  0  0  0  0  0
    9.4158  -13.8444    0.0219 H   0  0  0  0  0  0  0  0  0  0  0  0
    9.1853  -16.5532   -0.0093 H   0  0  0  0  0  0  0  0  0  0  0  0
    8.3009  -15.2598   -1.0352 H   0  0  0  0  0  0  0  0  0  0  0  0
    7.4634  -16.8338    1.0059 H   0  0  0  0  0  0  0  0  0  0  0  0
    7.5091  -17.1301   -0.8144 H   0  0  0  0  0  0  0  0  0  0  0  0
    5.5798  -16.5788   -0.9270 H   0  0  0  0  0  0  0  0  0  0  0  0
    5.5035  -16.4651    0.8102 H   0  0  0  0  0  0  0  0  0  0  0  0
    5.0230  -18.5183   -0.8441 H   0  0  0  0  0  0  0  0  0  0  0  0
    4.8729  -18.3857    0.9740 H   0  0  0  0  0  0  0  0  0  0  0  0
    2.9346  -18.3852   -1.0199 H   0  0  0  0  0  0  0  0  0  0  0  0
    3.6088  -19.7265   -0.0397 H   0  0  0  0  0  0  0  0  0  0  0  0
    1.9858  -19.2292    1.7528 H   0  0  0  0  0  0  0  0  0  0  0  0
    1.2699  -17.9460    0.7269 H   0  0  0  0  0  0  0  0  0  0  0  0
    1.3606  -21.0035   -0.0261 H   0  0  0  0  0  0  0  0  0  0  0  0
    0.6456  -19.7343   -1.0533 H   0  0  0  0  0  0  0  0  0  0  0  0
   -1.3894  -19.5963    0.5391 H   0  0  0  0  0  0  0  0  0  0  0  0
   -0.6582  -20.8655    1.5681 H   0  0  0  0  0  0  0  0  0  0  0  0
   -0.9234  -22.5431   -0.3268 H   0  0  0  0  0  0  0  0  0  0  0  0
   -1.7011  -21.2918   -1.3390 H   0  0  0  0  0  0  0  0  0  0  0  0
   -2.9199  -23.0555   -0.8604 H   0  0  0  0  0  0  0  0  0  0  0  0
   -2.8406  -22.7075    1.0184 H   0  0  0  0  0  0  0  0  0  0  0  0
   -4.9494  -22.5833    0.8452 H   0  0  0  0  0  0  0  0  0  0  0  0
   -4.1386  -24.1626    0.3292 H   0  0  0  0  0  0  0  0  0  0  0  0
   -5.4123  -23.6773    0.0000 H   0  0  0  0  0  0  0  0  0  0  0  0
   15.2244  -12.4716   -0.6000 H   0  0  0  0  0  0  0  0  0  0  0  0
   15.6948  -11.9889    1.0741 H   0  0  0  0  0  0  0  0  0  0  0  0
   18.7948  -14.2896   -1.7296 H   0  0  0  0  0  0  0  0  0  0  0  0
   19.9119  -13.4362   -0.6145 H   0  0  0  0  0  0  0  0  0  0  0  0
   19.6985  -15.2722    1.0454 H   0  0  0  0  0  0  0  0  0  0  0  0
   18.4931  -16.0543    0.0238 H   0  0  0  0  0  0  0  0  0  0  0  0
   21.5557  -17.8174   -0.8960 H   0  0  0  0  0  0  0  0  0  0  0  0
   21.5556  -17.8174    0.8960 H   0  0  0  0  0  0  0  0  0  0  0  0
   21.1944  -19.8547    0.8960 H   0  0  0  0  0  0  0  0  0  0  0  0
   21.1942  -19.8547   -0.8959 H   0  0  0  0  0  0  0  0  0  0  0  0
   23.0417  -22.3143    1.0656 H   0  0  0  0  0  0  0  0  0  0  0  0
   24.2556  -21.6140   -0.0170 H   0  0  0  0  0  0  0  0  0  0  0  0
   24.1212  -23.5752   -1.4622 H   0  0  0  0  0  0  0  0  0  0  0  0
   22.8822  -24.2819   -0.3872 H   0  0  0  0  0  0  0  0  0  0  0  0
   25.8897  -23.7946    0.4675 H   0  0  0  0  0  0  0  0  0  0  0  0
   24.6348  -24.5237    1.5108 H   0  0  0  0  0  0  0  0  0  0  0  0
   24.4356  -26.3470   -0.0428 H   0  0  0  0  0  0  0  0  0  0  0  0
   25.7930  -25.6461   -1.0250 H   0  0  0  0  0  0  0  0  0  0  0  0
   25.7943  -27.5497    0.9854 H   0  0  0  0  0  0  0  0  0  0  0  0
   25.6722  -27.7022   -0.8702 H   0  0  0  0  0  0  0  0  0  0  0  0
   27.7239  -28.4496    0.8409 H   0  0  0  0  0  0  0  0  0  0  0  0
   27.6489  -28.4913   -0.9062 H   0  0  0  0  0  0  0  0  0  0  0  0
   26.1309  -30.1854    0.9793 H   0  0  0  0  0  0  0  0  0  0  0  0
   26.0717  -30.1941   -0.8433 H   0  0  0  0  0  0  0  0  0  0  0  0
   29.0000  -30.7200   -0.0007 H   0  0  0  0  0  0  0  0  0  0  0  0
   28.4668  -33.2894   -0.0250 H   0  0  0  0  0  0  0  0  0  0  0  0
   15.6698  -31.5701    0.6354 H   0  0  0  0  0  0  0  0  0  0  0  0
   15.6698  -33.3817    0.6356 H   0  0  0  0  0  0  0  0  0  0  0  0
   14.6800  -32.4760    0.0000 H   0  0  0  0  0  0  0  0  0  0  0  0
  1  2  1  0  0  0  0
  1 68  1  0  0  0  0
  1 69  1  0  0  0  0
  1 70  1  0  0  0  0
  2  3  1  0  0  0  0
  2 71  1  0  0  0  0
  2 72  1  0  0  0  0
  3  4  1  0  0  0  0
  3 73  1  0  0  0  0
  3 74  1  0  0  0  0
  4  5  1  0  0  0  0
  4 75  1  0  0  0  0
  4 76  1  0  0  0  0
  5  6  1  0  0  0  0
  5 77  1  0  0  0  0
  5 78  1  0  0  0  0
  6  7  2  0  0  0  0
  6 79  1  0  0  0  0
  7  8  1  0  0  0  0
  7 80  1  0  0  0  0
  8  9  1  0  0  0  0
  8 81  1  0  0  0  0
  8 82  1  0  0  0  0
  9 10  2  0  0  0  0
  9 83  1  0  0  0  0
 10 11  1  0  0  0  0
 10 84  1  0  0  0  0
 11 12  1  0  0  0  0
 11 85  1  0  0  0  0
 11 86  1  0  0  0  0
 12 13  2  0  0  0  0
 12 87  1  0  0  0  0
 13 14  1  0  0  0  0
 13 88  1  0  0  0  0
 14 15  1  0  0  0  0
 14 89  1  0  0  0  0
 14 90  1  0  0  0  0
 15 16  1  0  0  0  0
 15 91  1  0  0  0  0
 15 92  1  0  0  0  0
 16 17  1  0  0  0  0
 16 93  1  0  0  0  0
 16 94  1  0  0  0  0
 17 18  1  0  0  0  0
 17 95  1  0  0  0  0
 17 96  1  0  0  0  0
 18 19  1  0  0  0  0
 18 97  1  0  0  0  0
 18 98  1  0  0  0  0
 19 20  1  0  0  0  0
 19 99  1  0  0  0  0
 19100  1  0  0  0  0
 20 21  2  0  0  0  0
 20 22  1  0  0  0  0
 22 23  1  0  0  0  0
 23 24  1  0  0  0  0
 23 41  1  0  0  0  0
 23101  1  6  0  0  0
 24 25  1  0  0  0  0
 24102  1  0  0  0  0
 24103  1  0  0  0  0
 25 26  1  0  0  0  0
 26 27  2  0  0  0  0
 26 28  1  0  0  0  0
 28 29  1  0  0  0  0
 28104  1  0  0  0  0
 28105  1  0  0  0  0
 29 30  1  0  0  0  0
 29106  1  0  0  0  0
 29107  1  0  0  0  0
 30 31  1  0  0  0  0
 30108  1  0  0  0  0
 30109  1  0  0  0  0
 31 32  1  0  0  0  0
 31110  1  0  0  0  0
 31111  1  0  0  0  0
 32 33  1  0  0  0  0
 32112  1  0  0  0  0
 32113  1  0  0  0  0
 33 34  1  0  0  0  0
 33114  1  0  0  0  0
 33115  1  0  0  0  0
 34 35  1  0  0  0  0
 34116  1  0  0  0  0
 34117  1  0  0  0  0
 35 36  1  0  0  0  0
 35118  1  0  0  0  0
 35119  1  0  0  0  0
 36 37  1  0  0  0  0
 36120  1  0  0  0  0
 36121  1  0  0  0  0
 37 38  1  0  0  0  0
 37122  1  0  0  0  0
 37123  1  0  0  0  0
 38 39  1  0  0  0  0
 38124  1  0  0  0  0
 38125  1  0  0  0  0
 39 40  1  0  0  0  0
 39126  1  0  0  0  0
 39127  1  0  0  0  0
 40128  1  0  0  0  0
 40129  1  0  0  0  0
 40130  1  0  0  0  0
 41 42  1  0  0  0  0
 41131  1  0  0  0  0
 41132  1  0  0  0  0
 42 43  1  0  0  0  0
 43 44  2  0  0  0  0
 43 45  1  0  0  0  0
 45 46  1  0  0  0  0
 45133  1  0  0  0  0
 45134  1  0  0  0  0
 46 47  1  0  0  0  0
 46135  1  0  0  0  0
 46136  1  0  0  0  0
 47 48  1  0  0  0  0
 48 49  1  0  0  0  0
 48137  1  0  0  0  0
 48138  1  0  0  0  0
 49 50  1  0  0  0  0
 49139  1  0  0  0  0
 49140  1  0  0  0  0
 50 51  1  0  0  0  0
 51 52  1  0  0  0  0
 51141  1  0  0  0  0
 51142  1  0  0  0  0
 52 53  1  0  0  0  0
 52143  1  0  0  0  0
 52144  1  0  0  0  0
 53 54  1  0  0  0  0
 53145  1  0  0  0  0
 53146  1  0  0  0  0
 54 55  1  0  0  0  0
 54147  1  0  0  0  0
 54148  1  0  0  0  0
 55 56  1  0  0  0  0
 55149  1  0  0  0  0
 55150  1  0  0  0  0
 56 57  1  0  0  0  0
 56151  1  0  0  0  0
 56152  1  0  0  0  0
 57 58  1  0  0  0  0
 57153  1  0  0  0  0
 57154  1  0  0  0  0
 58 59  2  0  0  0  0
 58155  1  0  0  0  0
 59 60  1  0  0  0  0
 59156  1  0  0  0  0
 60 61  1  0  0  0  0
 61 62  1  0  0  0  0
 62 63  1  0  0  0  0
 63 64  1  0  0  0  0
 64 65  1  0  0  0  0
 65 66  1  0  0  0  0
 66 67  1  0  0  0  0
 67157  1  0  0  0  0
 67158  1  0  0  0  0
 67159  1  0  0  0  0
M  END
>  <IDENTIFIER>
CNP0591582.1

>  <Energy>
11380.4

$$$$
