
 OpenBabel09062505453D

 42 45  0  0  0  0  0  0  0  0999 V2000
   -5.7177   -0.0648   -0.2829 C   0  0  0  0  0  0  0  0  0  0  0  0
   -4.6827    0.0968    0.5565 C   0  0  0  0  0  0  0  0  0  0  0  0
   -3.3591   -0.6750    0.5139 C   0  0  1  0  0  0  0  0  0  0  0  0
   -3.4177   -1.8444   -0.5071 C   0  0  0  0  0  0  0  0  0  0  0  0
   -2.3239   -2.7074   -0.3583 O   0  0  0  0  0  0  0  0  0  0  0  0
   -2.1604    0.3144    0.2541 C   0  0  1  0  0  0  0  0  0  0  0  0
   -2.0605    1.4221    1.3130 C   0  0  0  0  0  0  0  0  0  0  0  0
   -1.0062    2.4601    0.8999 C   0  0  0  0  0  0  0  0  0  0  0  0
    0.2867    1.8574    0.5420 N   0  0  0  0  0  0  0  0  0  0  0  0
    1.3863    2.6943    0.5137 C   0  0  0  0  0  0  0  0  0  0  0  0
    2.6784    2.2179    0.2304 C   0  0  0  0  0  0  0  0  0  0  0  0
    2.8060    0.8661   -0.0238 C   0  0  0  0  0  0  0  0  0  0  0  0
    3.8706    0.0578   -0.3230 C   0  0  0  0  0  0  0  0  0  0  0  0
    5.2287    0.3351   -0.4656 C   0  0  0  0  0  0  0  0  0  0  0  0
    6.0846   -0.7351   -0.7818 C   0  0  0  0  0  0  0  0  0  0  0  0
    5.5703   -2.0403   -0.9480 C   0  0  0  0  0  0  0  0  0  0  0  0
    4.1939   -2.2921   -0.7993 C   0  0  0  0  0  0  0  0  0  0  0  0
    3.3604   -1.2206   -0.4840 C   0  0  0  0  0  0  0  0  0  0  0  0
    2.0181   -1.2739   -0.3030 N   0  0  0  0  0  0  0  0  0  0  0  0
    1.6656   -0.0006   -0.0141 C   0  0  0  0  0  0  0  0  0  0  0  0
    0.3990    0.5103    0.2552 C   0  0  0  0  0  0  0  0  0  0  0  0
   -0.7944   -0.4135    0.2205 C   0  0  0  0  0  0  0  0  0  0  0  0
   -6.6110    0.5374   -0.1506 H   0  0  0  0  0  0  0  0  0  0  0  0
   -5.7101   -0.7715   -1.1033 H   0  0  0  0  0  0  0  0  0  0  0  0
   -4.8172    0.8370    1.3362 H   0  0  0  0  0  0  0  0  0  0  0  0
   -3.2377   -1.1407    1.5169 H   0  0  0  0  0  0  0  0  0  0  0  0
   -3.4599   -1.4291   -1.5407 H   0  0  0  0  0  0  0  0  0  0  0  0
   -4.3287   -2.4517   -0.3099 H   0  0  0  0  0  0  0  0  0  0  0  0
   -2.2498   -3.2177   -1.2062 H   0  0  0  0  0  0  0  0  0  0  0  0
   -2.3263    0.8116   -0.7292 H   0  0  0  0  0  0  0  0  0  0  0  0
   -1.7884    0.9631    2.2898 H   0  0  0  0  0  0  0  0  0  0  0  0
   -3.0045    1.9839    1.4440 H   0  0  0  0  0  0  0  0  0  0  0  0
   -0.8826    3.1356    1.7758 H   0  0  0  0  0  0  0  0  0  0  0  0
   -1.3602    3.0707    0.0405 H   0  0  0  0  0  0  0  0  0  0  0  0
    1.2709    3.7499    0.7312 H   0  0  0  0  0  0  0  0  0  0  0  0
    3.5341    2.8803    0.2204 H   0  0  0  0  0  0  0  0  0  0  0  0
    5.6147    1.3378   -0.3367 H   0  0  0  0  0  0  0  0  0  0  0  0
    7.1456   -0.5569   -0.8986 H   0  0  0  0  0  0  0  0  0  0  0  0
    6.2409   -2.8543   -1.1913 H   0  0  0  0  0  0  0  0  0  0  0  0
    3.7949   -3.2903   -0.9257 H   0  0  0  0  0  0  0  0  0  0  0  0
   -0.6916   -1.1067    1.0839 H   0  0  0  0  0  0  0  0  0  0  0  0
   -0.7459   -0.9884   -0.7274 H   0  0  0  0  0  0  0  0  0  0  0  0
  1  2  2  0  0  0  0
  1 23  1  0  0  0  0
  1 24  1  0  0  0  0
  2  3  1  0  0  0  0
  2 25  1  0  0  0  0
  3  4  1  0  0  0  0
  3  6  1  0  0  0  0
  3 26  1  1  0  0  0
  4  5  1  0  0  0  0
  4 27  1  0  0  0  0
  4 28  1  0  0  0  0
  5 29  1  0  0  0  0
  6  7  1  0  0  0  0
  6 30  1  6  0  0  0
  7  8  1  0  0  0  0
  7 31  1  0  0  0  0
  7 32  1  0  0  0  0
  8  9  1  0  0  0  0
  8 33  1  0  0  0  0
  8 34  1  0  0  0  0
  9 10  1  0  0  0  0
 10 11  2  0  0  0  0
 10 35  1  0  0  0  0
 11 12  1  0  0  0  0
 11 36  1  0  0  0  0
 12 13  2  0  0  0  0
 13 14  1  0  0  0  0
 14 15  2  0  0  0  0
 14 37  1  0  0  0  0
 15 16  1  0  0  0  0
 15 38  1  0  0  0  0
 16 17  2  0  0  0  0
 16 39  1  0  0  0  0
 17 18  1  0  0  0  0
 17 40  1  0  0  0  0
 18 19  2  0  0  0  0
 18 13  1  0  0  0  0
 19 20  1  0  0  0  0
 20 21  2  0  0  0  0
 20 12  1  0  0  0  0
 21 22  1  0  0  0  0
 21  9  1  0  0  0  0
 22  6  1  0  0  0  0
 22 41  1  0  0  0  0
 22 42  1  0  0  0  0
M  END
>  <IDENTIFIER>
CNP0597715.1

>  <Energy>
437.376

$$$$
