
 OpenBabel09102509563D

 50 53  0  0  0  0  0  0  0  0999 V2000
    1.9475   -2.4824   -1.9324 C   0  0  0  0  0  0  0  0  0  0  0  0
    1.5184   -2.1771   -0.6582 O   0  0  0  0  0  0  0  0  0  0  0  0
    2.1111   -1.2087    0.0742 C   0  0  0  0  0  0  0  0  0  0  0  0
    3.3164   -1.4557    0.7315 C   0  0  0  0  0  0  0  0  0  0  0  0
    4.0220   -2.5897    0.7842 O   0  0  0  0  0  0  0  0  0  0  0  0
    5.1539   -2.3458    1.5592 C   0  0  0  0  0  0  0  0  0  0  0  0
    5.0780   -1.0124    1.9527 O   0  0  0  0  0  0  0  0  0  0  0  0
    3.9574   -0.5042    1.4347 C   0  0  0  0  0  0  0  0  0  0  0  0
    3.4669    0.7890    1.5443 C   0  0  0  0  0  0  0  0  0  0  0  0
    2.2431    1.0883    0.9071 C   0  0  0  0  0  0  0  0  0  0  0  0
    1.5434    0.0954    0.1710 C   0  0  0  0  0  0  0  0  0  0  0  0
    0.2180    0.4149   -0.5489 C   0  0  1  0  0  0  0  0  0  0  0  0
   -0.8940   -0.3816    0.2283 C   0  0  0  0  0  0  0  0  0  0  0  0
   -2.2451   -0.5402   -0.4331 C   0  0  0  0  0  0  0  0  0  0  0  0
   -2.4269   -0.1444   -1.5766 O   0  0  0  0  0  0  0  0  0  0  0  0
   -3.3628   -1.2509    0.3135 C   0  0  2  0  0  0  0  0  0  0  0  0
   -4.6982   -1.2393   -0.4352 C   0  0  0  0  0  0  0  0  0  0  0  0
   -5.7164   -1.3547    0.6918 C   0  0  0  0  0  0  0  0  0  0  0  0
   -5.1525   -0.6240    1.7166 O   0  0  0  0  0  0  0  0  0  0  0  0
   -3.8121   -0.5925    1.5767 C   0  0  0  0  0  0  0  0  0  0  0  0
   -3.0769   -0.2695    2.4952 O   0  0  0  0  0  0  0  0  0  0  0  0
   -0.0418    1.9181   -0.7662 N   0  3  0  0  0  0  0  0  0  0  0  0
   -1.2184    2.4507   -0.0150 C   0  0  0  0  0  0  0  0  0  0  0  0
   -0.3104    2.1651   -2.2112 C   0  0  0  0  0  0  0  0  0  0  0  0
    1.1428    2.7760   -0.4290 C   0  0  0  0  0  0  0  0  0  0  0  0
    1.6947    2.4674    0.9589 C   0  0  0  0  0  0  0  0  0  0  0  0
    1.3280   -3.3067   -2.3402 H   0  0  0  0  0  0  0  0  0  0  0  0
    3.0130   -2.7944   -1.9238 H   0  0  0  0  0  0  0  0  0  0  0  0
    1.8327   -1.5960   -2.5937 H   0  0  0  0  0  0  0  0  0  0  0  0
    6.0720   -2.5118    0.9570 H   0  0  0  0  0  0  0  0  0  0  0  0
    5.1571   -3.0078    2.4506 H   0  0  0  0  0  0  0  0  0  0  0  0
    4.0135    1.5363    2.1059 H   0  0  0  0  0  0  0  0  0  0  0  0
    0.3290   -0.0724   -1.5434 H   0  0  0  0  0  0  0  0  0  0  0  0
   -1.0050    0.0804    1.2268 H   0  0  0  0  0  0  0  0  0  0  0  0
   -0.5594   -1.4223    0.4142 H   0  0  0  0  0  0  0  0  0  0  0  0
   -3.0470   -2.2859    0.5709 H   0  0  0  0  0  0  0  0  0  0  0  0
   -4.8004   -1.9683   -1.2681 H   0  0  0  0  0  0  0  0  0  0  0  0
   -4.8484   -0.2143   -0.8486 H   0  0  0  0  0  0  0  0  0  0  0  0
   -5.7989   -2.4114    1.0262 H   0  0  0  0  0  0  0  0  0  0  0  0
   -6.7159   -0.9724    0.3944 H   0  0  0  0  0  0  0  0  0  0  0  0
   -2.1728    2.0088   -0.3579 H   0  0  0  0  0  0  0  0  0  0  0  0
   -1.3404    3.5455   -0.1739 H   0  0  0  0  0  0  0  0  0  0  0  0
   -1.1372    2.2878    1.0766 H   0  0  0  0  0  0  0  0  0  0  0  0
   -1.2082    1.6252   -2.5678 H   0  0  0  0  0  0  0  0  0  0  0  0
    0.5451    1.8324   -2.8414 H   0  0  0  0  0  0  0  0  0  0  0  0
   -0.4773    3.2464   -2.4194 H   0  0  0  0  0  0  0  0  0  0  0  0
    0.8774    3.8569   -0.4780 H   0  0  0  0  0  0  0  0  0  0  0  0
    1.9713    2.6267   -1.1633 H   0  0  0  0  0  0  0  0  0  0  0  0
    0.9085    2.5440    1.7336 H   0  0  0  0  0  0  0  0  0  0  0  0
    2.4957    3.1911    1.2265 H   0  0  0  0  0  0  0  0  0  0  0  0
  1  2  1  0  0  0  0
  1 27  1  0  0  0  0
  1 28  1  0  0  0  0
  1 29  1  0  0  0  0
  2  3  1  0  0  0  0
  3  4  2  0  0  0  0
  4  5  1  0  0  0  0
  5  6  1  0  0  0  0
  6  7  1  0  0  0  0
  6 30  1  0  0  0  0
  6 31  1  0  0  0  0
  7  8  1  0  0  0  0
  8  9  2  0  0  0  0
  8  4  1  0  0  0  0
  9 10  1  0  0  0  0
  9 32  1  0  0  0  0
 10 11  2  0  0  0  0
 11 12  1  0  0  0  0
 11  3  1  0  0  0  0
 12 13  1  0  0  0  0
 12 22  1  0  0  0  0
 12 33  1  6  0  0  0
 13 14  1  0  0  0  0
 13 34  1  0  0  0  0
 13 35  1  0  0  0  0
 14 15  2  0  0  0  0
 16 14  1  0  0  0  0
 16 17  1  0  0  0  0
 16 36  1  1  0  0  0
 17 18  1  0  0  0  0
 17 37  1  0  0  0  0
 17 38  1  0  0  0  0
 18 19  1  0  0  0  0
 18 39  1  0  0  0  0
 18 40  1  0  0  0  0
 19 20  1  0  0  0  0
 20 21  2  0  0  0  0
 20 16  1  0  0  0  0
 22 23  1  0  0  0  0
 22 24  1  0  0  0  0
 22 25  1  0  0  0  0
 23 41  1  0  0  0  0
 23 42  1  0  0  0  0
 23 43  1  0  0  0  0
 24 44  1  0  0  0  0
 24 45  1  0  0  0  0
 24 46  1  0  0  0  0
 25 26  1  0  0  0  0
 25 47  1  0  0  0  0
 25 48  1  0  0  0  0
 26 10  1  0  0  0  0
 26 49  1  0  0  0  0
 26 50  1  0  0  0  0
M  CHG  1  22   1
M  END
>  <IDENTIFIER>
CNP0523456.2

>  <Energy>
693.37

$$$$
