
 OpenBabel09072515523D

 30 31  0  0  0  0  0  0  0  0999 V2000
   -6.2100   -0.3559   -0.7729 O   0  0  0  0  0  0  0  0  0  0  0  0
   -4.9945   -0.4104   -0.6652 C   0  0  0  0  0  0  0  0  0  0  0  0
   -4.1018   -0.1182   -1.8369 C   0  0  0  0  0  0  0  0  0  0  0  0
   -2.9358    0.7157   -1.3182 C   0  0  0  0  0  0  0  0  0  0  0  0
   -2.2736   -0.0458   -0.1697 C   0  0  0  0  0  0  0  0  0  0  0  0
   -0.7884   -0.0788    0.0430 C   0  0  0  0  0  0  0  0  0  0  0  0
    0.1052    0.6520   -0.7637 C   0  0  0  0  0  0  0  0  0  0  0  0
    1.4840    0.6229   -0.5264 C   0  0  0  0  0  0  0  0  0  0  0  0
    2.0211   -0.1425    0.5322 C   0  0  0  0  0  0  0  0  0  0  0  0
    3.4217   -0.2149    0.8580 N   0  0  0  0  0  0  0  0  0  0  0  0
    4.4614    0.4212    0.2382 C   0  0  0  0  0  0  0  0  0  0  0  0
    4.2865    1.1529   -0.7215 O   0  0  0  0  0  0  0  0  0  0  0  0
    5.8598    0.2150    0.7636 C   0  0  0  0  0  0  0  0  0  0  0  0
    7.0866    1.1254   -0.1643 Cl  0  0  0  0  0  0  0  0  0  0  0  0
    1.1257   -0.8746    1.3308 C   0  0  0  0  0  0  0  0  0  0  0  0
   -0.2499   -0.8442    1.0943 C   0  0  0  0  0  0  0  0  0  0  0  0
   -3.0438   -0.6574    0.6805 N   0  0  0  0  0  0  0  0  0  0  0  0
   -4.4179   -0.7148    0.5268 N   0  0  0  0  0  0  0  0  0  0  0  0
   -4.6573    0.3832   -2.6590 H   0  0  0  0  0  0  0  0  0  0  0  0
   -3.6888   -1.0773   -2.2192 H   0  0  0  0  0  0  0  0  0  0  0  0
   -3.3456    1.6706   -0.9219 H   0  0  0  0  0  0  0  0  0  0  0  0
   -2.2496    0.9461   -2.1533 H   0  0  0  0  0  0  0  0  0  0  0  0
   -0.2374    1.2677   -1.5794 H   0  0  0  0  0  0  0  0  0  0  0  0
    2.0865    1.2163   -1.1886 H   0  0  0  0  0  0  0  0  0  0  0  0
    3.6731   -0.8119    1.6620 H   0  0  0  0  0  0  0  0  0  0  0  0
    6.1149   -0.8646    0.7168 H   0  0  0  0  0  0  0  0  0  0  0  0
    5.9053    0.5480    1.8219 H   0  0  0  0  0  0  0  0  0  0  0  0
    1.4952   -1.4741    2.1538 H   0  0  0  0  0  0  0  0  0  0  0  0
   -0.8920   -1.4234    1.7457 H   0  0  0  0  0  0  0  0  0  0  0  0
   -5.0042   -0.9636    1.3372 H   0  0  0  0  0  0  0  0  0  0  0  0
  1  2  2  0  0  0  0
  2  3  1  0  0  0  0
  3  4  1  0  0  0  0
  3 19  1  0  0  0  0
  3 20  1  0  0  0  0
  4  5  1  0  0  0  0
  4 21  1  0  0  0  0
  4 22  1  0  0  0  0
  5  6  1  0  0  0  0
  5 17  2  0  0  0  0
  6  7  2  0  0  0  0
  7  8  1  0  0  0  0
  7 23  1  0  0  0  0
  8  9  2  0  0  0  0
  8 24  1  0  0  0  0
  9 10  1  0  0  0  0
  9 15  1  0  0  0  0
 10 11  1  0  0  0  0
 10 25  1  0  0  0  0
 11 12  2  0  0  0  0
 11 13  1  0  0  0  0
 13 14  1  0  0  0  0
 13 26  1  0  0  0  0
 13 27  1  0  0  0  0
 15 16  2  0  0  0  0
 15 28  1  0  0  0  0
 16  6  1  0  0  0  0
 16 29  1  0  0  0  0
 17 18  1  0  0  0  0
 18  2  1  0  0  0  0
 18 30  1  0  0  0  0
M  END
>  <IDENTIFIER>
CNP0028632.0

>  <Energy>
218.629

$$$$
