
 OpenBabel09122512033D

 23 24  0  0  0  0  0  0  0  0999 V2000
   -3.0455    2.0149    0.6516 O   0  0  0  0  0  0  0  0  0  0  0  0
   -2.3805    1.0178    0.4152 C   0  0  0  0  0  0  0  0  0  0  0  0
   -2.9652   -0.2044    0.4548 O   0  0  0  0  0  0  0  0  0  0  0  0
   -2.3690   -1.2898   -0.1577 C   0  0  0  0  0  0  0  0  0  0  0  0
   -0.8961   -1.4041    0.2541 C   0  0  0  0  0  0  0  0  0  0  0  0
   -0.1778   -0.0815    0.0365 C   0  0  0  0  0  0  0  0  0  0  0  0
    1.2202   -0.0117   -0.1956 C   0  0  0  0  0  0  0  0  0  0  0  0
    2.0819   -1.2513   -0.2730 C   0  0  0  0  0  0  0  0  0  0  0  0
    2.0137   -1.9752    0.9255 O   0  0  0  0  0  0  0  0  0  0  0  0
    1.8280    1.2455   -0.3554 C   0  0  0  0  0  0  0  0  0  0  0  0
    1.0754    2.4176   -0.2726 C   0  0  0  0  0  0  0  0  0  0  0  0
   -0.2949    2.3568   -0.0264 C   0  0  0  0  0  0  0  0  0  0  0  0
   -0.9275    1.1155    0.1272 C   0  0  0  0  0  0  0  0  0  0  0  0
   -2.4138   -1.1384   -1.2593 H   0  0  0  0  0  0  0  0  0  0  0  0
   -2.9238   -2.2201    0.0863 H   0  0  0  0  0  0  0  0  0  0  0  0
   -0.4459   -2.2221   -0.3455 H   0  0  0  0  0  0  0  0  0  0  0  0
   -0.8227   -1.6670    1.3310 H   0  0  0  0  0  0  0  0  0  0  0  0
    3.1456   -1.0075   -0.4976 H   0  0  0  0  0  0  0  0  0  0  0  0
    1.7327   -1.8956   -1.1062 H   0  0  0  0  0  0  0  0  0  0  0  0
    2.5442   -1.4670    1.5934 H   0  0  0  0  0  0  0  0  0  0  0  0
    2.8927    1.3230   -0.5376 H   0  0  0  0  0  0  0  0  0  0  0  0
    1.5593    3.3784   -0.3925 H   0  0  0  0  0  0  0  0  0  0  0  0
   -0.8594    3.2782    0.0442 H   0  0  0  0  0  0  0  0  0  0  0  0
  1  2  2  0  0  0  0
  2  3  1  0  0  0  0
  3  4  1  0  0  0  0
  4  5  1  0  0  0  0
  4 14  1  0  0  0  0
  4 15  1  0  0  0  0
  5  6  1  0  0  0  0
  5 16  1  0  0  0  0
  5 17  1  0  0  0  0
  6  7  2  0  0  0  0
  7  8  1  0  0  0  0
  7 10  1  0  0  0  0
  8  9  1  0  0  0  0
  8 18  1  0  0  0  0
  8 19  1  0  0  0  0
  9 20  1  0  0  0  0
 10 11  2  0  0  0  0
 10 21  1  0  0  0  0
 11 12  1  0  0  0  0
 11 22  1  0  0  0  0
 12 13  2  0  0  0  0
 12 23  1  0  0  0  0
 13  2  1  0  0  0  0
 13  6  1  0  0  0  0
M  END
>  <IDENTIFIER>
CNP0196987.0

>  <Energy>
153.987

$$$$
