
 OpenBabel09112502033D

 74 78  0  0  0  0  0  0  0  0999 V2000
    7.4102   -3.2212    0.1244 O   0  0  0  0  0  0  0  0  0  0  0  0
    6.3621   -3.4910    0.6903 C   0  0  0  0  0  0  0  0  0  0  0  0
    6.2098   -4.7133    1.2434 O   0  0  0  0  0  0  0  0  0  0  0  0
    5.2397   -2.4798    0.7595 C   0  0  1  0  0  0  0  0  0  0  0  0
    4.8647   -2.1630    2.2360 C   0  0  0  0  0  0  0  0  0  0  0  0
    4.4190   -0.7004    2.4383 C   0  0  0  0  0  0  0  0  0  0  0  0
    3.6089   -0.2380    1.3142 N   0  0  0  0  0  0  0  0  0  0  0  0
    2.3787    0.3456    1.5232 C   0  0  0  0  0  0  0  0  0  0  0  0
    1.9709    0.5063    2.6658 O   0  0  0  0  0  0  0  0  0  0  0  0
    1.5072    0.8568    0.3822 C   0  0  2  0  0  0  0  0  0  0  0  0
    1.7787    2.3501    0.1343 C   0  0  0  0  0  0  0  0  0  0  0  0
    0.9788    2.8404   -1.0511 C   0  0  0  0  0  0  0  0  0  0  0  0
    1.2455    2.3441   -2.3412 C   0  0  0  0  0  0  0  0  0  0  0  0
    0.4931    2.7812   -3.4350 C   0  0  0  0  0  0  0  0  0  0  0  0
   -0.5308    3.7129   -3.2521 C   0  0  0  0  0  0  0  0  0  0  0  0
   -0.8016    4.2127   -1.9753 C   0  0  0  0  0  0  0  0  0  0  0  0
   -0.0486    3.7820   -0.8782 C   0  0  0  0  0  0  0  0  0  0  0  0
    0.0931    0.6865    0.7071 N   0  0  0  0  0  0  0  0  0  0  0  0
   -0.7930    0.0280   -0.0936 C   0  0  0  0  0  0  0  0  0  0  0  0
   -0.4105   -0.4670   -1.1448 O   0  0  0  0  0  0  0  0  0  0  0  0
   -2.2795   -0.0127    0.2634 C   0  0  2  0  0  0  0  0  0  0  0  0
   -2.5923   -0.8075    1.5628 C   0  0  0  0  0  0  0  0  0  0  0  0
   -2.0422   -0.1857    2.8245 C   0  0  0  0  0  0  0  0  0  0  0  0
   -1.0820   -0.8652    3.5951 C   0  0  0  0  0  0  0  0  0  0  0  0
   -0.5832   -0.2902    4.7683 C   0  0  0  0  0  0  0  0  0  0  0  0
   -1.0414    0.9619    5.1853 C   0  0  0  0  0  0  0  0  0  0  0  0
   -1.9994    1.6425    4.4299 C   0  0  0  0  0  0  0  0  0  0  0  0
   -2.4986    1.0739    3.2539 C   0  0  0  0  0  0  0  0  0  0  0  0
   -3.0865   -0.5452   -0.8782 N   0  0  0  0  0  0  0  0  0  0  0  0
   -2.9476   -1.8572   -1.3185 C   0  0  0  0  0  0  0  0  0  0  0  0
   -2.1569   -2.6151   -0.7818 O   0  0  0  0  0  0  0  0  0  0  0  0
   -3.6896   -2.3239   -2.3721 N   0  0  0  0  0  0  0  0  0  0  0  0
   -4.5764   -1.5286   -3.0234 C   0  0  0  0  0  0  0  0  0  0  0  0
   -5.3175   -2.0300   -4.1062 C   0  0  0  0  0  0  0  0  0  0  0  0
   -6.2236   -1.2088   -4.7801 C   0  0  0  0  0  0  0  0  0  0  0  0
   -6.3975    0.1169   -4.3804 C   0  0  0  0  0  0  0  0  0  0  0  0
   -5.6683    0.6261   -3.3031 C   0  0  0  0  0  0  0  0  0  0  0  0
   -4.7495   -0.1928   -2.6153 C   0  0  0  0  0  0  0  0  0  0  0  0
   -3.9932    0.2842   -1.5298 C   0  0  0  0  0  0  0  0  0  0  0  0
   -4.1383    1.4437   -1.1727 O   0  0  0  0  0  0  0  0  0  0  0  0
    4.1791   -0.3824   -0.0326 C   0  0  0  0  0  0  0  0  0  0  0  0
    5.5064   -1.1778   -0.0226 C   0  0  0  0  0  0  0  0  0  0  0  0
    5.3882   -4.9708    1.6849 H   0  0  0  0  0  0  0  0  0  0  0  0
    4.3570   -2.9448    0.2642 H   0  0  0  0  0  0  0  0  0  0  0  0
    5.7339   -2.3040    2.9169 H   0  0  0  0  0  0  0  0  0  0  0  0
    4.0738   -2.8789    2.5477 H   0  0  0  0  0  0  0  0  0  0  0  0
    5.3320   -0.0651    2.4569 H   0  0  0  0  0  0  0  0  0  0  0  0
    3.9410   -0.5799    3.4337 H   0  0  0  0  0  0  0  0  0  0  0  0
    1.7565    0.3153   -0.5478 H   0  0  0  0  0  0  0  0  0  0  0  0
    2.8567    2.5296   -0.0669 H   0  0  0  0  0  0  0  0  0  0  0  0
    1.5075    2.9166    1.0539 H   0  0  0  0  0  0  0  0  0  0  0  0
    2.0347    1.6200   -2.5006 H   0  0  0  0  0  0  0  0  0  0  0  0
    0.7035    2.3952   -4.4245 H   0  0  0  0  0  0  0  0  0  0  0  0
   -1.1152    4.0470   -4.0997 H   0  0  0  0  0  0  0  0  0  0  0  0
   -1.5973    4.9322   -1.8351 H   0  0  0  0  0  0  0  0  0  0  0  0
   -0.2755    4.1736    0.1054 H   0  0  0  0  0  0  0  0  0  0  0  0
   -0.2560    1.1581    1.5524 H   0  0  0  0  0  0  0  0  0  0  0  0
   -2.5665    1.0421    0.4512 H   0  0  0  0  0  0  0  0  0  0  0  0
   -2.2118   -1.8435    1.4659 H   0  0  0  0  0  0  0  0  0  0  0  0
   -3.6951   -0.8709    1.6886 H   0  0  0  0  0  0  0  0  0  0  0  0
   -0.7160   -1.8367    3.2880 H   0  0  0  0  0  0  0  0  0  0  0  0
    0.1583   -0.8167    5.3552 H   0  0  0  0  0  0  0  0  0  0  0  0
   -0.6563    1.4035    6.0955 H   0  0  0  0  0  0  0  0  0  0  0  0
   -2.3569    2.6105    4.7567 H   0  0  0  0  0  0  0  0  0  0  0  0
   -3.2452    1.6121    2.6836 H   0  0  0  0  0  0  0  0  0  0  0  0
   -3.5611   -3.3157   -2.6790 H   0  0  0  0  0  0  0  0  0  0  0  0
   -5.1917   -3.0564   -4.4290 H   0  0  0  0  0  0  0  0  0  0  0  0
   -6.7901   -1.5999   -5.6155 H   0  0  0  0  0  0  0  0  0  0  0  0
   -7.0994    0.7518   -4.9060 H   0  0  0  0  0  0  0  0  0  0  0  0
   -5.8214    1.6589   -3.0139 H   0  0  0  0  0  0  0  0  0  0  0  0
    4.3323    0.6110   -0.5063 H   0  0  0  0  0  0  0  0  0  0  0  0
    3.4763   -0.9738   -0.6574 H   0  0  0  0  0  0  0  0  0  0  0  0
    6.3290   -0.6017    0.4557 H   0  0  0  0  0  0  0  0  0  0  0  0
    5.8007   -1.3893   -1.0738 H   0  0  0  0  0  0  0  0  0  0  0  0
  1  2  2  0  0  0  0
  2  3  1  0  0  0  0
  2  4  1  0  0  0  0
  3 43  1  0  0  0  0
  4  5  1  0  0  0  0
  4 44  1  6  0  0  0
  5  6  1  0  0  0  0
  5 45  1  0  0  0  0
  5 46  1  0  0  0  0
  6  7  1  0  0  0  0
  6 47  1  0  0  0  0
  6 48  1  0  0  0  0
  7  8  1  0  0  0  0
  7 41  1  0  0  0  0
  8  9  2  0  0  0  0
  8 10  1  0  0  0  0
 10 11  1  0  0  0  0
 10 18  1  0  0  0  0
 10 49  1  6  0  0  0
 11 12  1  0  0  0  0
 11 50  1  0  0  0  0
 11 51  1  0  0  0  0
 12 13  2  0  0  0  0
 13 14  1  0  0  0  0
 13 52  1  0  0  0  0
 14 15  2  0  0  0  0
 14 53  1  0  0  0  0
 15 16  1  0  0  0  0
 15 54  1  0  0  0  0
 16 17  2  0  0  0  0
 16 55  1  0  0  0  0
 17 12  1  0  0  0  0
 17 56  1  0  0  0  0
 18 19  1  0  0  0  0
 18 57  1  0  0  0  0
 19 20  2  0  0  0  0
 19 21  1  0  0  0  0
 21 22  1  0  0  0  0
 21 29  1  0  0  0  0
 21 58  1  1  0  0  0
 22 23  1  0  0  0  0
 22 59  1  0  0  0  0
 22 60  1  0  0  0  0
 23 24  2  0  0  0  0
 24 25  1  0  0  0  0
 24 61  1  0  0  0  0
 25 26  2  0  0  0  0
 25 62  1  0  0  0  0
 26 27  1  0  0  0  0
 26 63  1  0  0  0  0
 27 28  2  0  0  0  0
 27 64  1  0  0  0  0
 28 23  1  0  0  0  0
 28 65  1  0  0  0  0
 29 30  1  0  0  0  0
 30 31  2  0  0  0  0
 30 32  1  0  0  0  0
 32 33  1  0  0  0  0
 32 66  1  0  0  0  0
 33 34  2  0  0  0  0
 34 35  1  0  0  0  0
 34 67  1  0  0  0  0
 35 36  2  0  0  0  0
 35 68  1  0  0  0  0
 36 37  1  0  0  0  0
 36 69  1  0  0  0  0
 37 38  2  0  0  0  0
 37 70  1  0  0  0  0
 38 39  1  0  0  0  0
 38 33  1  0  0  0  0
 39 40  2  0  0  0  0
 39 29  1  0  0  0  0
 41 42  1  0  0  0  0
 41 71  1  0  0  0  0
 41 72  1  0  0  0  0
 42  4  1  0  0  0  0
 42 73  1  0  0  0  0
 42 74  1  0  0  0  0
M  END
>  <IDENTIFIER>
CNP0217470.1

>  <Energy>
490.414

$$$$
