
 OpenBabel09112511442D

175174  0  0  0  0  0  0  0  0999 V2000
   16.8875    9.7500    0.0000 C   0  0  0  0  0  0  0  0  0  0  0  0
   15.5885    9.0000    0.0000 C   0  0  0  0  0  0  0  0  0  0  0  0
   13.9487    8.6587    0.1447 C   0  0  0  0  0  0  0  0  0  0  0  0
   13.3025    7.1397   -0.2792 C   0  0  0  0  0  0  0  0  0  0  0  0
   11.6913    6.7500    0.0000 C   0  0  0  0  0  0  0  0  0  0  0  0
   10.3923    6.0000    0.0000 C   0  0  0  0  0  0  0  0  0  0  0  0
    9.0933    5.2500    0.0000 C   0  0  0  0  0  0  0  0  0  0  0  0
    7.7942    4.5000    0.0000 C   0  0  0  0  0  0  0  0  0  0  0  0
    6.4952    3.7500    0.0000 C   0  0  0  0  0  0  0  0  0  0  0  0
    5.1962    3.0000    0.0000 C   0  0  0  0  0  0  0  0  0  0  0  0
    3.7224    2.7006   -0.7376 C   0  0  0  0  0  0  0  0  0  0  0  0
    2.7389    1.4586   -0.1456 C   0  0  0  0  0  0  0  0  0  0  0  0
    1.1901    1.0680   -0.6840 C   0  0  0  0  0  0  0  0  0  0  0  0
    0.3486   -0.2316   -0.1093 C   0  0  0  0  0  0  0  0  0  0  0  0
    0.9490   -0.9193    0.7015 O   0  0  0  0  0  0  0  0  0  0  0  0
   -1.0007   -0.6451   -0.4580 O   0  0  0  0  0  0  0  0  0  0  0  0
   -1.6819   -1.8874   -0.0399 C   0  0  0  0  0  0  0  0  0  0  0  0
   -3.2766   -2.3143   -0.4161 C   0  0  1  0  0  0  0  0  0  0  0  0
   -3.6670   -3.8986    0.0170 C   0  0  0  0  0  0  0  0  0  0  0  0
   -4.9572   -4.5838   -0.2134 O   0  0  0  0  0  0  0  0  0  0  0  0
   -5.1962   -6.0000    0.0000 C   0  0  0  0  0  0  0  0  0  0  0  0
   -4.1921   -6.6655    0.2556 O   0  0  0  0  0  0  0  0  0  0  0  0
   -6.4952   -6.7500    0.0000 C   0  0  0  0  0  0  0  0  0  0  0  0
   -7.7942   -7.5000    0.0000 C   0  0  0  0  0  0  0  0  0  0  0  0
   -9.0933   -8.2500    0.0000 C   0  0  0  0  0  0  0  0  0  0  0  0
  -10.3923   -9.0000    0.0000 C   0  0  0  0  0  0  0  0  0  0  0  0
  -11.6913   -9.7500    0.0000 C   0  0  0  0  0  0  0  0  0  0  0  0
  -13.3400  -10.0662   -0.0619 C   0  0  0  0  0  0  0  0  0  0  0  0
  -13.9449  -11.6522    0.0553 C   0  0  0  0  0  0  0  0  0  0  0  0
  -15.5885  -12.0000    0.0000 C   0  0  0  0  0  0  0  0  0  0  0  0
  -16.8875  -12.7500    0.0000 C   0  0  0  0  0  2  0  0  0  0  0  0
  -18.1865  -13.5000    0.0000 C   0  0  0  0  0  0  0  0  0  0  0  0
  -19.4856  -14.2500    0.0000 C   0  0  0  0  0  0  0  0  0  0  0  0
  -20.7846  -15.0000    0.0000 C   0  0  0  0  0  2  0  0  0  0  0  0
  -22.0836  -15.7500    0.0000 C   0  0  0  0  0  0  0  0  0  0  0  0
  -23.6381  -16.2588   -0.3893 C   0  0  0  0  0  0  0  0  0  0  0  0
  -24.4391  -17.5059    0.4493 C   0  0  0  0  0  0  0  0  0  0  0  0
  -25.9808  -18.0000    0.0000 C   0  0  0  0  0  0  0  0  0  0  0  0
  -27.2798  -18.7500    0.0000 C   0  0  0  0  0  0  0  0  0  0  0  0
  -28.5788  -19.5000    0.0000 C   0  0  0  0  0  0  0  0  0  0  0  0
  -30.2728  -19.3673   -0.0556 C   0  0  0  0  0  0  0  0  0  0  0  0
  -31.5860  -20.3976   -0.5903 C   0  0  0  0  0  0  0  0  0  0  0  0
  -32.4760  -21.7500    0.0000 C   0  0  3  0  0  0  0  0  0  0  0  0
  -33.7750  -22.5000    0.0000 C   0  0  0  0  0  0  0  0  0  0  0  0
  -31.7260  -23.0490    0.0000 C   0  0  0  0  0  0  0  0  0  0  0  0
  -30.9760  -24.3481    0.0000 C   0  0  0  0  0  0  0  0  0  0  0  0
   -4.1707   -1.4012    0.1853 O   0  0  0  0  0  0  0  0  0  0  0  0
   -5.0597   -0.5314   -0.4305 C   0  0  0  0  0  0  0  0  0  0  0  0
   -5.1922   -0.5384   -1.6426 O   0  0  0  0  0  0  0  0  0  0  0  0
   -5.8493    0.4866    0.4219 C   0  0  0  0  0  0  0  0  0  0  0  0
   -6.7675    1.5567   -0.3094 C   0  0  0  0  0  0  0  0  0  0  0  0
   -7.3183    2.6155    0.7161 C   0  0  0  0  0  0  0  0  0  0  0  0
   -7.8288    4.0404    0.2537 C   0  0  0  0  0  0  0  0  0  0  0  0
   -9.3481    4.5042    0.0244 C   0  0  0  0  0  0  0  0  0  0  0  0
   -9.3481    6.0933    0.0000 C   0  0  0  0  0  0  0  0  0  0  0  0
  -10.0981    7.3923    0.0000 C   0  0  0  0  0  0  0  0  0  0  0  0
  -10.8481    8.6913    0.0000 C   0  0  0  0  0  0  0  0  0  0  0  0
  -11.2740   10.2785   -0.3643 C   0  0  0  0  0  0  0  0  0  0  0  0
  -12.8028   10.9320    0.0362 C   0  0  0  0  0  0  0  0  0  0  0  0
  -13.0981   12.5885    0.0000 C   0  0  0  0  0  0  0  0  0  0  0  0
  -13.8481   13.8875    0.0000 C   0  0  0  0  0  0  0  0  0  0  0  0
  -14.5981   15.1865    0.0000 C   0  0  3  0  0  0  0  0  0  0  0  0
  -15.3481   16.4856    0.0000 C   0  0  0  0  0  0  0  0  0  0  0  0
  -15.8971   14.4365    0.0000 C   0  0  0  0  0  0  0  0  0  0  0  0
  -17.1962   13.6865    0.0000 C   0  0  0  0  0  0  0  0  0  0  0  0
   17.5882    8.9011   -0.2075 H   0  0  0  0  0  0  0  0  0  0  0  0
   16.8607   10.0263    1.0781 H   0  0  0  0  0  0  0  0  0  0  0  0
   17.8141   10.2850    0.0000 H   0  0  0  0  0  0  0  0  0  0  0  0
   15.6551    8.6345   -1.0508 H   0  0  0  0  0  0  0  0  0  0  0  0
   15.8731    8.1521    0.6749 H   0  0  0  0  0  0  0  0  0  0  0  0
   13.6851    8.8396    1.2084 H   0  0  0  0  0  0  0  0  0  0  0  0
   13.3994    9.4115   -0.4591 H   0  0  0  0  0  0  0  0  0  0  0  0
   13.9065    6.3643    0.2375 H   0  0  0  0  0  0  0  0  0  0  0  0
   13.4834    7.0226   -1.3683 H   0  0  0  0  0  0  0  0  0  0  0  0
   11.3132    7.7447   -0.3519 H   0  0  0  0  0  0  0  0  0  0  0  0
   11.7428    6.9065    1.1050 H   0  0  0  0  0  0  0  0  0  0  0  0
   11.0805    5.1112    0.1757 H   0  0  0  0  0  0  0  0  0  0  0  0
   10.2830    6.1944   -1.1041 H   0  0  0  0  0  0  0  0  0  0  0  0
    9.3244    4.8948    1.0514 H   0  0  0  0  0  0  0  0  0  0  0  0
    9.4487    4.4219   -0.7023 H   0  0  0  0  0  0  0  0  0  0  0  0
    7.5715    5.0873   -0.9534 H   0  0  0  0  0  0  0  0  0  0  0  0
    7.4096    5.1251    0.8640 H   0  0  0  0  0  0  0  0  0  0  0  0
    5.8093    4.6395   -0.1797 H   0  0  0  0  0  0  0  0  0  0  0  0
    6.7646    3.2438   -0.9664 H   0  0  0  0  0  0  0  0  0  0  0  0
    4.8399    3.1989    1.0399 H   0  0  0  0  0  0  0  0  0  0  0  0
    5.5568    1.9457    0.0930 H   0  0  0  0  0  0  0  0  0  0  0  0
    3.9164    2.4747   -1.8062 H   0  0  0  0  0  0  0  0  0  0  0  0
    3.1413    3.6459   -0.6940 H   0  0  0  0  0  0  0  0  0  0  0  0
    3.3408    0.5330   -0.2600 H   0  0  0  0  0  0  0  0  0  0  0  0
    2.6327    1.6426    0.9439 H   0  0  0  0  0  0  0  0  0  0  0  0
    0.5635    1.9649   -0.4973 H   0  0  0  0  0  0  0  0  0  0  0  0
    1.2584    0.9315   -1.7832 H   0  0  0  0  0  0  0  0  0  0  0  0
   -1.6122   -1.9467    1.0672 H   0  0  0  0  0  0  0  0  0  0  0  0
   -1.0601   -2.7178   -0.4360 H   0  0  0  0  0  0  0  0  0  0  0  0
   -3.3717   -2.2639   -1.5225 H   0  0  0  0  0  0  0  0  0  0  0  0
   -3.4557   -3.9792    1.1044 H   0  0  0  0  0  0  0  0  0  0  0  0
   -2.8931   -4.5104   -0.4943 H   0  0  0  0  0  0  0  0  0  0  0  0
   -6.3212   -7.0512    1.0647 H   0  0  0  0  0  0  0  0  0  0  0  0
   -6.0060   -7.3436   -0.8400 H   0  0  0  0  0  0  0  0  0  0  0  0
   -7.9709   -7.1851   -1.0760 H   0  0  0  0  0  0  0  0  0  0  0  0
   -7.2933   -8.5264   -0.0124 H   0  0  0  0  0  0  0  0  0  0  0  0
   -8.9298   -8.5767    1.0720 H   0  0  0  0  0  0  0  0  0  0  0  0
   -9.5795   -7.2159    0.0428 H   0  0  0  0  0  0  0  0  0  0  0  0
  -10.6241   -8.6102   -1.0279 H   0  0  0  0  0  0  0  0  0  0  0  0
  -10.9203   -8.3784    0.7960 H   0  0  0  0  0  0  0  0  0  0  0  0
  -11.4315  -10.4924   -0.7952 H   0  0  0  0  0  0  0  0  0  0  0  0
  -11.5247  -10.3315    0.9433 H   0  0  0  0  0  0  0  0  0  0  0  0
  -13.8106   -9.4815    0.7562 H   0  0  0  0  0  0  0  0  0  0  0  0
  -13.7128   -9.6494   -1.0211 H   0  0  0  0  0  0  0  0  0  0  0  0
  -13.5656  -12.0661    1.0132 H   0  0  0  0  0  0  0  0  0  0  0  0
  -13.4702  -12.2334   -0.7629 H   0  0  0  0  0  0  0  0  0  0  0  0
  -15.7860  -11.4629   -0.9511 H   0  0  0  0  0  0  0  0  0  0  0  0
  -15.8804  -11.2985    0.8092 H   0  0  0  0  0  0  0  0  0  0  0  0
  -17.8173  -14.0558    0.8958 H   0  0  0  0  0  0  0  0  0  0  0  0
  -17.8175  -14.0555   -0.8961 H   0  0  0  0  0  0  0  0  0  0  0  0
  -19.8548  -13.6941   -0.8958 H   0  0  0  0  0  0  0  0  0  0  0  0
  -19.8546  -13.6946    0.8961 H   0  0  0  0  0  0  0  0  0  0  0  0
  -22.2846  -15.5923    1.0802 H   0  0  0  0  0  0  0  0  0  0  0  0
  -21.6157  -16.7536   -0.0774 H   0  0  0  0  0  0  0  0  0  0  0  0
  -23.6150  -16.5550   -1.4588 H   0  0  0  0  0  0  0  0  0  0  0  0
  -24.2907  -15.3635   -0.3126 H   0  0  0  0  0  0  0  0  0  0  0  0
  -23.7855  -18.4030    0.4056 H   0  0  0  0  0  0  0  0  0  0  0  0
  -24.4926  -17.1910    1.5128 H   0  0  0  0  0  0  0  0  0  0  0  0
  -26.3475  -16.9351   -0.0022 H   0  0  0  0  0  0  0  0  0  0  0  0
  -25.6658  -18.2602   -1.0399 H   0  0  0  0  0  0  0  0  0  0  0  0
  -27.7208  -18.1426   -0.8416 H   0  0  0  0  0  0  0  0  0  0  0  0
  -27.5431  -18.3229    0.9991 H   0  0  0  0  0  0  0  0  0  0  0  0
  -28.4463  -20.1014   -0.9328 H   0  0  0  0  0  0  0  0  0  0  0  0
  -28.4434  -20.2653    0.7996 H   0  0  0  0  0  0  0  0  0  0  0  0
  -30.3748  -18.5252   -0.7734 H   0  0  0  0  0  0  0  0  0  0  0  0
  -30.5768  -18.9561    0.9297 H   0  0  0  0  0  0  0  0  0  0  0  0
  -31.3719  -20.6228   -1.6560 H   0  0  0  0  0  0  0  0  0  0  0  0
  -32.4069  -19.6489   -0.6113 H   0  0  0  0  0  0  0  0  0  0  0  0
  -32.5268  -21.4322    1.0756 H   0  0  0  0  0  0  0  0  0  0  0  0
  -34.4258  -21.6204    0.2168 H   0  0  0  0  0  0  0  0  0  0  0  0
  -33.8389  -22.6573   -1.1065 H   0  0  0  0  0  0  0  0  0  0  0  0
  -34.7016  -23.0350    0.0000 H   0  0  0  0  0  0  0  0  0  0  0  0
  -31.4893  -22.9137   -1.0880 H   0  0  0  0  0  0  0  0  0  0  0  0
  -30.8733  -22.5957    0.5684 H   0  0  0  0  0  0  0  0  0  0  0  0
  -31.6879  -24.9139   -0.6502 H   0  0  0  0  0  0  0  0  0  0  0  0
  -31.2211  -24.6207    1.0541 H   0  0  0  0  0  0  0  0  0  0  0  0
  -30.4410  -25.2748    0.0000 H   0  0  0  0  0  0  0  0  0  0  0  0
   -6.4662   -0.0707    1.1585 H   0  0  0  0  0  0  0  0  0  0  0  0
   -5.0729    1.0488    0.9838 H   0  0  0  0  0  0  0  0  0  0  0  0
   -6.1236    2.0913   -1.0405 H   0  0  0  0  0  0  0  0  0  0  0  0
   -7.6034    1.0739   -0.8580 H   0  0  0  0  0  0  0  0  0  0  0  0
   -7.9985    2.1687    1.4708 H   0  0  0  0  0  0  0  0  0  0  0  0
   -6.3871    2.8747    1.2726 H   0  0  0  0  0  0  0  0  0  0  0  0
   -7.1868    4.3917   -0.5833 H   0  0  0  0  0  0  0  0  0  0  0  0
   -7.5255    4.6481    1.1345 H   0  0  0  0  0  0  0  0  0  0  0  0
   -9.9580    4.1708    0.8909 H   0  0  0  0  0  0  0  0  0  0  0  0
   -9.7666    4.0715   -0.9079 H   0  0  0  0  0  0  0  0  0  0  0  0
   -8.5863    6.2846   -0.7974 H   0  0  0  0  0  0  0  0  0  0  0  0
   -8.7995    6.3000    0.9498 H   0  0  0  0  0  0  0  0  0  0  0  0
  -10.7980    6.8960    0.7334 H   0  0  0  0  0  0  0  0  0  0  0  0
  -10.4254    7.1923   -1.0535 H   0  0  0  0  0  0  0  0  0  0  0  0
  -11.8948    8.3321   -0.2116 H   0  0  0  0  0  0  0  0  0  0  0  0
  -10.7965    8.9009    1.0977 H   0  0  0  0  0  0  0  0  0  0  0  0
  -10.4935   10.9206    0.0976 H   0  0  0  0  0  0  0  0  0  0  0  0
  -11.1799   10.4093   -1.4629 H   0  0  0  0  0  0  0  0  0  0  0  0
  -13.0699   10.5904    1.0597 H   0  0  0  0  0  0  0  0  0  0  0  0
  -13.5206   10.4440   -0.6560 H   0  0  0  0  0  0  0  0  0  0  0  0
  -12.3938   12.7077   -0.8764 H   0  0  0  0  0  0  0  0  0  0  0  0
  -12.4714   12.7691    0.9099 H   0  0  0  0  0  0  0  0  0  0  0  0
  -14.0784   13.7178   -1.1009 H   0  0  0  0  0  0  0  0  0  0  0  0
  -12.8986   14.5044   -0.0413 H   0  0  0  0  0  0  0  0  0  0  0  0
  -14.3215   15.3683    1.0850 H   0  0  0  0  0  0  0  0  0  0  0  0
  -14.4699   17.1616    0.1602 H   0  0  0  0  0  0  0  0  0  0  0  0
  -15.5134   16.5367   -1.1066 H   0  0  0  0  0  0  0  0  0  0  0  0
  -15.8831   17.4123    0.0000 H   0  0  0  0  0  0  0  0  0  0  0  0
  -15.7655   13.7805    0.9388 H   0  0  0  0  0  0  0  0  0  0  0  0
  -16.5366   14.9379    0.8168 H   0  0  0  0  0  0  0  0  0  0  0  0
  -17.6607   14.2756   -0.8302 H   0  0  0  0  0  0  0  0  0  0  0  0
  -16.8079   12.7520   -0.4841 H   0  0  0  0  0  0  0  0  0  0  0  0
  -18.1229   13.1515    0.0000 H   0  0  0  0  0  0  0  0  0  0  0  0
  1  2  1  0  0  0  0
  1 66  1  0  0  0  0
  1 67  1  0  0  0  0
  1 68  1  0  0  0  0
  2  3  1  0  0  0  0
  2 69  1  0  0  0  0
  2 70  1  0  0  0  0
  3  4  1  0  0  0  0
  3 71  1  0  0  0  0
  3 72  1  0  0  0  0
  4  5  1  0  0  0  0
  4 73  1  0  0  0  0
  4 74  1  0  0  0  0
  5  6  1  0  0  0  0
  5 75  1  0  0  0  0
  5 76  1  0  0  0  0
  6  7  1  0  0  0  0
  6 77  1  0  0  0  0
  6 78  1  0  0  0  0
  7  8  1  0  0  0  0
  7 79  1  0  0  0  0
  7 80  1  0  0  0  0
  8  9  1  0  0  0  0
  8 81  1  0  0  0  0
  8 82  1  0  0  0  0
  9 10  1  0  0  0  0
  9 83  1  0  0  0  0
  9 84  1  0  0  0  0
 10 11  1  0  0  0  0
 10 85  1  0  0  0  0
 10 86  1  0  0  0  0
 11 12  1  0  0  0  0
 11 87  1  0  0  0  0
 11 88  1  0  0  0  0
 12 13  1  0  0  0  0
 12 89  1  0  0  0  0
 12 90  1  0  0  0  0
 13 14  1  0  0  0  0
 13 91  1  0  0  0  0
 13 92  1  0  0  0  0
 14 15  2  0  0  0  0
 14 16  1  0  0  0  0
 16 17  1  0  0  0  0
 17 93  1  0  0  0  0
 17 94  1  0  0  0  0
 18 17  1  0  0  0  0
 18 19  1  0  0  0  0
 18 47  1  0  0  0  0
 18 95  1  6  0  0  0
 19 20  1  0  0  0  0
 19 96  1  0  0  0  0
 19 97  1  0  0  0  0
 20 21  1  0  0  0  0
 21 22  2  0  0  0  0
 21 23  1  0  0  0  0
 23 24  1  0  0  0  0
 23 98  1  0  0  0  0
 23 99  1  0  0  0  0
 24 25  1  0  0  0  0
 24100  1  0  0  0  0
 24101  1  0  0  0  0
 25 26  1  0  0  0  0
 25102  1  0  0  0  0
 25103  1  0  0  0  0
 26 27  1  0  0  0  0
 26104  1  0  0  0  0
 26105  1  0  0  0  0
 27 28  1  0  0  0  0
 27106  1  0  0  0  0
 27107  1  0  0  0  0
 28 29  1  0  0  0  0
 28108  1  0  0  0  0
 28109  1  0  0  0  0
 29 30  1  0  0  0  0
 29110  1  0  0  0  0
 29111  1  0  0  0  0
 30 31  1  0  0  0  0
 30112  1  0  0  0  0
 30113  1  0  0  0  0
 31 32  1  0  0  0  0
 32 33  1  0  0  0  0
 32114  1  0  0  0  0
 32115  1  0  0  0  0
 33 34  1  0  0  0  0
 33116  1  0  0  0  0
 33117  1  0  0  0  0
 34 35  1  0  0  0  0
 35 36  1  0  0  0  0
 35118  1  0  0  0  0
 35119  1  0  0  0  0
 36 37  1  0  0  0  0
 36120  1  0  0  0  0
 36121  1  0  0  0  0
 37 38  1  0  0  0  0
 37122  1  0  0  0  0
 37123  1  0  0  0  0
 38 39  1  0  0  0  0
 38124  1  0  0  0  0
 38125  1  0  0  0  0
 39 40  1  0  0  0  0
 39126  1  0  0  0  0
 39127  1  0  0  0  0
 40 41  1  0  0  0  0
 40128  1  0  0  0  0
 40129  1  0  0  0  0
 41 42  1  0  0  0  0
 41130  1  0  0  0  0
 41131  1  0  0  0  0
 42 43  1  0  0  0  0
 42132  1  0  0  0  0
 42133  1  0  0  0  0
 43 44  1  0  0  0  0
 43 45  1  0  0  0  0
 43134  1  0  0  0  0
 44135  1  0  0  0  0
 44136  1  0  0  0  0
 44137  1  0  0  0  0
 45 46  1  0  0  0  0
 45138  1  0  0  0  0
 45139  1  0  0  0  0
 46140  1  0  0  0  0
 46141  1  0  0  0  0
 46142  1  0  0  0  0
 47 48  1  0  0  0  0
 48 49  2  0  0  0  0
 48 50  1  0  0  0  0
 50 51  1  0  0  0  0
 50143  1  0  0  0  0
 50144  1  0  0  0  0
 51 52  1  0  0  0  0
 51145  1  0  0  0  0
 51146  1  0  0  0  0
 52 53  1  0  0  0  0
 52147  1  0  0  0  0
 52148  1  0  0  0  0
 53 54  1  0  0  0  0
 53149  1  0  0  0  0
 53150  1  0  0  0  0
 54 55  1  0  0  0  0
 54151  1  0  0  0  0
 54152  1  0  0  0  0
 55 56  1  0  0  0  0
 55153  1  0  0  0  0
 55154  1  0  0  0  0
 56 57  1  0  0  0  0
 56155  1  0  0  0  0
 56156  1  0  0  0  0
 57 58  1  0  0  0  0
 57157  1  0  0  0  0
 57158  1  0  0  0  0
 58 59  1  0  0  0  0
 58159  1  0  0  0  0
 58160  1  0  0  0  0
 59 60  1  0  0  0  0
 59161  1  0  0  0  0
 59162  1  0  0  0  0
 60 61  1  0  0  0  0
 60163  1  0  0  0  0
 60164  1  0  0  0  0
 61 62  1  0  0  0  0
 61165  1  0  0  0  0
 61166  1  0  0  0  0
 62 63  1  0  0  0  0
 62 64  1  0  0  0  0
 62167  1  0  0  0  0
 63168  1  0  0  0  0
 63169  1  0  0  0  0
 63170  1  0  0  0  0
 64 65  1  0  0  0  0
 64171  1  0  0  0  0
 64172  1  0  0  0  0
 65173  1  0  0  0  0
 65174  1  0  0  0  0
 65175  1  0  0  0  0
M  END
>  <IDENTIFIER>
CNP0568275.2

>  <Energy>
13649.8

$$$$
