
 OpenBabel09082502232D

 55 59  0  0  0  0  0  0  0  0999 V2000
    1.8815    4.1810    0.0000 C   0  0  0  0  0  0  0  0  0  0  0  0
    0.3943    3.9852    0.0000 C   0  0  1  0  0  0  0  0  0  0  0  0
   -0.4455    4.0946   -1.3693 C   0  0  0  0  0  0  0  0  0  0  0  0
   -1.7786    3.1064   -1.5989 C   0  0  2  0  0  0  0  0  0  0  0  0
   -2.5192    3.6989   -2.8180 C   0  0  0  0  0  0  0  0  0  0  0  0
   -2.5846    3.2874   -0.4560 O   0  0  0  0  0  0  0  0  0  0  0  0
   -1.6059    1.4943   -1.9401 C   0  0  0  0  0  0  0  0  0  0  0  0
   -0.9854    1.2100   -2.9529 O   0  0  0  0  0  0  0  0  0  0  0  0
   -2.0940    0.2415   -1.0428 C   0  0  2  0  0  0  0  0  0  0  0  0
   -3.5246   -0.4023   -0.9284 C   0  0  1  0  0  0  0  0  0  0  0  0
   -4.0515   -0.8190   -2.1791 O   0  0  0  0  0  0  0  0  0  0  0  0
   -3.2820   -1.5400    0.1490 C   0  0  1  0  0  0  0  0  0  0  0  0
   -3.2027   -3.1291    0.0835 C   0  0  2  0  0  0  0  0  0  0  0  0
   -4.1020   -3.6813   -0.8781 O   0  0  0  0  0  0  0  0  0  0  0  0
   -1.6560   -3.6844    0.0000 C   0  0  1  0  0  0  0  0  0  0  0  0
   -1.9679   -5.1517    0.0000 C   0  0  0  0  0  0  0  0  0  0  0  0
   -0.8325   -2.3076   -0.5865 O   0  0  0  0  0  0  0  0  0  0  0  0
   -1.0450   -0.6779   -0.1040 C   0  0  2  0  0  0  0  0  0  0  0  0
   -0.3932    0.9047    0.5359 C   0  0  0  0  0  0  0  0  0  0  0  0
    0.3481    2.1217   -0.0950 C   0  0  0  0  0  0  0  0  0  0  0  0
    1.0762    1.7295   -1.1724 O   0  0  0  0  0  0  0  0  0  0  0  0
   -1.2983    1.1250    1.6672 C   0  0  0  0  0  0  0  0  0  0  0  0
   -1.3353    2.1524    2.3242 O   0  0  0  0  0  0  0  0  0  0  0  0
   -2.2345    0.1369    1.7988 O   0  0  0  0  0  0  0  0  0  0  0  0
   -2.0344   -1.0216    1.0300 C   0  0  1  0  0  0  0  0  0  0  0  0
   -1.5308   -2.0957    2.0520 C   0  0  0  0  0  0  0  0  0  0  0  0
   -1.1108   -3.4926    1.4732 C   0  0  2  0  0  0  0  0  0  0  0  0
    0.4346   -3.6686    1.5286 C   0  0  0  0  0  0  0  0  0  0  0  0
    0.8808   -3.5748    2.8545 O   0  0  0  0  0  0  0  0  0  0  0  0
    2.0365    3.8359    1.0456 H   0  0  0  0  0  0  0  0  0  0  0  0
    1.8280    5.2895   -0.0388 H   0  0  0  0  0  0  0  0  0  0  0  0
    2.9423    4.3207    0.0000 H   0  0  0  0  0  0  0  0  0  0  0  0
   -0.1758    4.3677    0.8762 H   0  0  0  0  0  0  0  0  0  0  0  0
   -0.7463    5.1622   -1.4367 H   0  0  0  0  0  0  0  0  0  0  0  0
    0.2314    3.9045   -2.2306 H   0  0  0  0  0  0  0  0  0  0  0  0
   -2.7693    4.7677   -2.6447 H   0  0  0  0  0  0  0  0  0  0  0  0
   -3.4690    3.1520   -3.0054 H   0  0  0  0  0  0  0  0  0  0  0  0
   -1.8888    3.6274   -3.7297 H   0  0  0  0  0  0  0  0  0  0  0  0
   -3.5078    2.9848   -0.6637 H   0  0  0  0  0  0  0  0  0  0  0  0
   -2.4762    0.9964   -0.3629 H   0  0  0  0  0  0  0  0  0  0  0  0
   -4.3013    0.2747   -0.4706 H   0  0  0  0  0  0  0  0  0  0  0  0
   -4.2215    0.0106   -2.6965 H   0  0  0  0  0  0  0  0  0  0  0  0
   -2.8915   -1.9005   -0.7809 H   0  0  0  0  0  0  0  0  0  0  0  0
   -3.6151   -3.4845    1.0578 H   0  0  0  0  0  0  0  0  0  0  0  0
   -3.6877   -3.5987   -1.7767 H   0  0  0  0  0  0  0  0  0  0  0  0
   -2.2560   -5.2153   -1.0699 H   0  0  0  0  0  0  0  0  0  0  0  0
   -0.9229   -5.5174    0.0144 H   0  0  0  0  0  0  0  0  0  0  0  0
   -2.1904   -6.1983    0.0000 H   0  0  0  0  0  0  0  0  0  0  0  0
    1.1816    0.8022   -1.4307 H   0  0  0  0  0  0  0  0  0  0  0  0
   -2.4019   -2.2639    2.7244 H   0  0  0  0  0  0  0  0  0  0  0  0
   -0.7338   -1.6870    2.7110 H   0  0  0  0  0  0  0  0  0  0  0  0
   -1.5172   -4.2441    2.1955 H   0  0  0  0  0  0  0  0  0  0  0  0
    0.9413   -2.8889    0.9188 H   0  0  0  0  0  0  0  0  0  0  0  0
    0.7231   -4.6669    1.1382 H   0  0  0  0  0  0  0  0  0  0  0  0
    1.8685   -3.6709    2.8219 H   0  0  0  0  0  0  0  0  0  0  0  0
  1 30  1  0  0  0  0
  1 31  1  0  0  0  0
  1 32  1  0  0  0  0
  2  1  1  0  0  0  0
  2  3  1  0  0  0  0
  2 33  1  1  0  0  0
  3  4  1  0  0  0  0
  3 34  1  0  0  0  0
  3 35  1  0  0  0  0
  4  5  1  0  0  0  0
  4  6  1  1  0  0  0
  4  7  1  0  0  0  0
  5 36  1  0  0  0  0
  5 37  1  0  0  0  0
  5 38  1  0  0  0  0
  6 39  1  0  0  0  0
  7  8  2  0  0  0  0
  9  7  1  0  0  0  0
  9 10  1  0  0  0  0
  9 40  1  6  0  0  0
 10 11  1  0  0  0  0
 10 41  1  1  0  0  0
 11 42  1  0  0  0  0
 12 10  1  0  0  0  0
 12 13  1  0  0  0  0
 12 43  1  1  0  0  0
 13 14  1  0  0  0  0
 13 15  1  0  0  0  0
 13 44  1  6  0  0  0
 14 45  1  0  0  0  0
 15 16  1  6  0  0  0
 15 17  1  0  0  0  0
 16 46  1  0  0  0  0
 16 47  1  0  0  0  0
 16 48  1  0  0  0  0
 18 17  1  1  0  0  0
 18 19  1  0  0  0  0
 18  9  1  0  0  0  0
 19 20  2  0  0  0  0
 19 22  1  0  0  0  0
 20 21  1  0  0  0  0
 20  2  1  0  0  0  0
 21 49  1  0  0  0  0
 22 23  2  0  0  0  0
 22 24  1  0  0  0  0
 25 24  1  1  0  0  0
 25 26  1  0  0  0  0
 25 12  1  0  0  0  0
 25 18  1  0  0  0  0
 26 27  1  0  0  0  0
 26 50  1  0  0  0  0
 26 51  1  0  0  0  0
 27 28  1  0  0  0  0
 27 15  1  0  0  0  0
 27 52  1  1  0  0  0
 28 29  1  0  0  0  0
 28 53  1  0  0  0  0
 28 54  1  0  0  0  0
 29 55  1  0  0  0  0
M  END
>  <IDENTIFIER>
CNP0073199.2

>  <Energy>
4361.73

$$$$
