
 OpenBabel09122511583D

 65 68  0  0  0  0  0  0  0  0999 V2000
   -6.5617    0.9142    3.1007 C   0  0  0  0  0  0  0  0  0  0  0  0
   -6.0139   -0.0945    2.1947 C   0  0  0  0  0  0  0  0  0  0  0  0
   -5.5640   -0.8976    1.4153 C   0  0  0  0  0  0  0  0  0  0  0  0
   -5.0553   -1.8287    0.4032 C   0  0  0  0  0  0  0  0  0  0  0  0
   -3.5454   -2.1879    0.5117 C   0  0  1  0  0  0  0  0  0  0  0  0
   -3.2761   -3.2263   -0.5932 C   0  0  0  0  0  0  0  0  0  0  0  0
   -2.6089   -0.9264    0.4055 C   0  0  1  0  0  0  0  0  0  0  0  0
   -2.7455    0.0511    1.6170 C   0  0  0  0  0  0  0  0  0  0  0  0
   -1.3649    0.6926    1.8395 C   0  0  0  0  0  0  0  0  0  0  0  0
   -0.6298    0.3758    0.5541 C   0  0  1  0  0  0  0  0  0  0  0  0
    0.9072    0.5831    0.5234 C   0  0  2  0  0  0  0  0  0  0  0  0
    1.2816    2.0402    0.9027 C   0  0  2  0  0  0  0  0  0  0  0  0
    0.4263    2.9841    0.3019 O   0  0  0  0  0  0  0  0  0  0  0  0
    2.7026    2.4008    0.5652 C   0  0  0  0  0  0  0  0  0  0  0  0
    3.4919    1.6584   -0.2353 C   0  0  0  0  0  0  0  0  0  0  0  0
    4.8360    2.1949   -0.6414 C   0  0  0  0  0  0  0  0  0  0  0  0
    4.7916    2.5373   -2.1548 C   0  0  1  0  0  0  0  0  0  0  0  0
    6.0809    2.4261   -2.7026 O   0  0  0  0  0  0  0  0  0  0  0  0
    3.7416    1.7042   -2.9575 C   0  0  0  0  0  0  0  0  0  0  0  0
    3.6226    0.2920   -2.3744 C   0  0  0  0  0  0  0  0  0  0  0  0
    3.0492    0.3324   -0.9023 C   0  0  1  0  0  0  0  0  0  0  0  0
    3.7236   -0.8319   -0.1226 C   0  0  0  0  0  0  0  0  0  0  0  0
    1.4657    0.2072   -0.8846 C   0  0  1  0  0  0  0  0  0  0  0  0
    0.9569   -1.2125   -1.3187 C   0  0  0  0  0  0  0  0  0  0  0  0
   -0.5724   -1.3715   -1.2003 C   0  0  0  0  0  0  0  0  0  0  0  0
   -1.0619   -1.0764    0.2480 C   0  0  2  0  0  0  0  0  0  0  0  0
   -0.5063   -2.1285    1.2693 C   0  0  0  0  0  0  0  0  0  0  0  0
   -6.5925    1.8932    2.5787 H   0  0  0  0  0  0  0  0  0  0  0  0
   -5.9180    0.9966    3.9998 H   0  0  0  0  0  0  0  0  0  0  0  0
   -7.5904    0.6258    3.3990 H   0  0  0  0  0  0  0  0  0  0  0  0
   -5.2604   -1.3823   -0.5941 H   0  0  0  0  0  0  0  0  0  0  0  0
   -5.6628   -2.7554    0.4895 H   0  0  0  0  0  0  0  0  0  0  0  0
   -3.3606   -2.6897    1.4872 H   0  0  0  0  0  0  0  0  0  0  0  0
   -3.4159   -2.7751   -1.6004 H   0  0  0  0  0  0  0  0  0  0  0  0
   -3.9717   -4.0869   -0.4882 H   0  0  0  0  0  0  0  0  0  0  0  0
   -2.2674   -3.6615   -0.5232 H   0  0  0  0  0  0  0  0  0  0  0  0
   -2.9200   -0.3502   -0.4986 H   0  0  0  0  0  0  0  0  0  0  0  0
   -3.0338   -0.4484    2.5677 H   0  0  0  0  0  0  0  0  0  0  0  0
   -3.5003    0.8230    1.3544 H   0  0  0  0  0  0  0  0  0  0  0  0
   -0.8440    0.1632    2.6647 H   0  0  0  0  0  0  0  0  0  0  0  0
   -1.4078    1.7651    2.1252 H   0  0  0  0  0  0  0  0  0  0  0  0
   -1.0701    1.0425   -0.2281 H   0  0  0  0  0  0  0  0  0  0  0  0
    1.3792   -0.0778    1.2747 H   0  0  0  0  0  0  0  0  0  0  0  0
    1.1470    2.1294    2.0020 H   0  0  0  0  0  0  0  0  0  0  0  0
    0.5879    2.9706   -0.6775 H   0  0  0  0  0  0  0  0  0  0  0  0
    3.0642    3.3599    0.9282 H   0  0  0  0  0  0  0  0  0  0  0  0
    5.5704    1.3895   -0.4386 H   0  0  0  0  0  0  0  0  0  0  0  0
    5.1755    3.0898   -0.0742 H   0  0  0  0  0  0  0  0  0  0  0  0
    4.4709    3.5949   -2.2874 H   0  0  0  0  0  0  0  0  0  0  0  0
    6.3313    1.4637   -2.6942 H   0  0  0  0  0  0  0  0  0  0  0  0
    4.0067    1.7120   -4.0380 H   0  0  0  0  0  0  0  0  0  0  0  0
    2.7371    2.1731   -2.8610 H   0  0  0  0  0  0  0  0  0  0  0  0
    4.6548   -0.1206   -2.3960 H   0  0  0  0  0  0  0  0  0  0  0  0
    3.0207   -0.3649   -3.0281 H   0  0  0  0  0  0  0  0  0  0  0  0
    3.5418   -1.8111   -0.6090 H   0  0  0  0  0  0  0  0  0  0  0  0
    3.3913   -0.8792    0.9318 H   0  0  0  0  0  0  0  0  0  0  0  0
    4.8269   -0.7160   -0.1062 H   0  0  0  0  0  0  0  0  0  0  0  0
    1.0400    0.9401   -1.6044 H   0  0  0  0  0  0  0  0  0  0  0  0
    1.4066   -2.0026   -0.6941 H   0  0  0  0  0  0  0  0  0  0  0  0
    1.2429   -1.4262   -2.3670 H   0  0  0  0  0  0  0  0  0  0  0  0
   -0.8459   -2.3885   -1.5334 H   0  0  0  0  0  0  0  0  0  0  0  0
   -1.0428   -0.6551   -1.9094 H   0  0  0  0  0  0  0  0  0  0  0  0
   -0.8151   -3.1533    0.9968 H   0  0  0  0  0  0  0  0  0  0  0  0
   -0.8778   -1.9654    2.2995 H   0  0  0  0  0  0  0  0  0  0  0  0
    0.5972   -2.1429    1.3228 H   0  0  0  0  0  0  0  0  0  0  0  0
  1  2  1  0  0  0  0
  1 28  1  0  0  0  0
  1 29  1  0  0  0  0
  1 30  1  0  0  0  0
  2  3  3  0  0  0  0
  3  4  1  0  0  0  0
  4  5  1  0  0  0  0
  4 31  1  0  0  0  0
  4 32  1  0  0  0  0
  5  6  1  0  0  0  0
  5  7  1  0  0  0  0
  5 33  1  1  0  0  0
  6 34  1  0  0  0  0
  6 35  1  0  0  0  0
  6 36  1  0  0  0  0
  7  8  1  0  0  0  0
  7 37  1  6  0  0  0
  8  9  1  0  0  0  0
  8 38  1  0  0  0  0
  8 39  1  0  0  0  0
  9 40  1  0  0  0  0
  9 41  1  0  0  0  0
 10  9  1  0  0  0  0
 10 11  1  0  0  0  0
 10 42  1  6  0  0  0
 11 12  1  0  0  0  0
 11 43  1  1  0  0  0
 12 13  1  0  0  0  0
 12 14  1  0  0  0  0
 12 44  1  1  0  0  0
 13 45  1  0  0  0  0
 14 15  2  0  0  0  0
 14 46  1  0  0  0  0
 15 16  1  0  0  0  0
 16 17  1  0  0  0  0
 16 47  1  0  0  0  0
 16 48  1  0  0  0  0
 17 18  1  0  0  0  0
 17 19  1  0  0  0  0
 17 49  1  6  0  0  0
 18 50  1  0  0  0  0
 19 20  1  0  0  0  0
 19 51  1  0  0  0  0
 19 52  1  0  0  0  0
 20 21  1  0  0  0  0
 20 53  1  0  0  0  0
 20 54  1  0  0  0  0
 21 22  1  1  0  0  0
 21 23  1  0  0  0  0
 21 15  1  0  0  0  0
 22 55  1  0  0  0  0
 22 56  1  0  0  0  0
 22 57  1  0  0  0  0
 23 24  1  0  0  0  0
 23 11  1  0  0  0  0
 23 58  1  6  0  0  0
 24 25  1  0  0  0  0
 24 59  1  0  0  0  0
 24 60  1  0  0  0  0
 25 26  1  0  0  0  0
 25 61  1  0  0  0  0
 25 62  1  0  0  0  0
 26 27  1  1  0  0  0
 26  7  1  0  0  0  0
 26 10  1  0  0  0  0
 27 63  1  0  0  0  0
 27 64  1  0  0  0  0
 27 65  1  0  0  0  0
M  END
>  <IDENTIFIER>
CNP0322996.2

>  <Energy>
709.236

$$$$
