
 OpenBabel09082501063D

 48 47  0  0  0  0  0  0  0  0999 V2000
   -5.4634   -0.7965   -0.6770 C   0  0  0  0  0  0  0  0  0  0  0  0
   -4.4256    0.2618   -0.4002 C   0  0  0  0  0  0  0  0  0  0  0  0
   -4.8043    1.4664    0.4289 C   0  0  0  0  0  0  0  0  0  0  0  0
   -3.1795    0.0858   -0.8988 C   0  0  0  0  0  0  0  0  0  0  0  0
   -2.0324    1.0590   -0.7271 C   0  0  0  0  0  0  0  0  0  0  0  0
   -0.9021    0.6188    0.2391 C   0  0  0  0  0  0  0  0  0  0  0  0
    0.0915   -0.5607   -0.1214 C   0  0  1  0  0  0  0  0  0  0  0  0
   -0.6729   -1.9156   -0.1095 C   0  0  0  0  0  0  0  0  0  0  0  0
    0.6250   -0.3340   -1.4734 N   0  0  0  0  0  0  0  0  0  0  0  0
    1.3235   -0.5907    0.9266 C   0  0  1  0  0  0  0  0  0  0  0  0
    0.8303   -0.9330    2.3626 C   0  0  0  0  0  0  0  0  0  0  0  0
    2.4181   -1.6891    0.5811 C   0  0  0  0  0  0  0  0  0  0  0  0
    3.5047   -1.1738   -0.3257 C   0  0  0  0  0  0  0  0  0  0  0  0
    4.0843   -0.0011   -0.0008 C   0  0  0  0  0  0  0  0  0  0  0  0
    5.1709    0.6051   -0.8430 C   0  0  0  0  0  0  0  0  0  0  0  0
    3.5433    0.7446    1.2038 C   0  0  0  0  0  0  0  0  0  0  0  0
    2.0244    0.8339    0.9880 C   0  0  0  0  0  0  0  0  0  0  0  0
    1.6778    2.5480   -2.7946 Cl  0  0  0  0  0  0  0  0  0  0  0  0
   -6.4404   -0.5480   -0.2130 H   0  0  0  0  0  0  0  0  0  0  0  0
   -5.1229   -1.7713   -0.2680 H   0  0  0  0  0  0  0  0  0  0  0  0
   -5.6152   -0.8951   -1.7728 H   0  0  0  0  0  0  0  0  0  0  0  0
   -5.8617    1.4186    0.7613 H   0  0  0  0  0  0  0  0  0  0  0  0
   -4.6802    2.3951   -0.1664 H   0  0  0  0  0  0  0  0  0  0  0  0
   -4.1638    1.5142    1.3354 H   0  0  0  0  0  0  0  0  0  0  0  0
   -3.0040   -0.8032   -1.4840 H   0  0  0  0  0  0  0  0  0  0  0  0
   -2.4206    2.0031   -0.2950 H   0  0  0  0  0  0  0  0  0  0  0  0
   -1.6325    1.3398   -1.7236 H   0  0  0  0  0  0  0  0  0  0  0  0
   -1.3699    0.4359    1.2276 H   0  0  0  0  0  0  0  0  0  0  0  0
   -0.3037    1.5448    0.3304 H   0  0  0  0  0  0  0  0  0  0  0  0
   -1.4172   -1.9763   -0.9110 H   0  0  0  0  0  0  0  0  0  0  0  0
   -1.1957   -2.0824    0.8544 H   0  0  0  0  0  0  0  0  0  0  0  0
   -0.0144   -2.7781   -0.3090 H   0  0  0  0  0  0  0  0  0  0  0  0
   -0.1502   -0.3151   -2.1744 H   0  0  0  0  0  0  0  0  0  0  0  0
    1.2445   -1.1249   -1.7594 H   0  0  0  0  0  0  0  0  0  0  0  0
    0.3971   -1.9523    2.4158 H   0  0  0  0  0  0  0  0  0  0  0  0
    0.0824   -0.2053    2.7328 H   0  0  0  0  0  0  0  0  0  0  0  0
    1.6742   -0.9023    3.0847 H   0  0  0  0  0  0  0  0  0  0  0  0
    2.0171   -2.6625    0.2488 H   0  0  0  0  0  0  0  0  0  0  0  0
    2.9804   -1.9277    1.5117 H   0  0  0  0  0  0  0  0  0  0  0  0
    3.8013   -1.7328   -1.2078 H   0  0  0  0  0  0  0  0  0  0  0  0
    5.4350   -0.0450   -1.7043 H   0  0  0  0  0  0  0  0  0  0  0  0
    6.0775    0.7534   -0.2203 H   0  0  0  0  0  0  0  0  0  0  0  0
    4.8338    1.5891   -1.2311 H   0  0  0  0  0  0  0  0  0  0  0  0
    3.9968    1.7573    1.2691 H   0  0  0  0  0  0  0  0  0  0  0  0
    3.7606    0.2038    2.1493 H   0  0  0  0  0  0  0  0  0  0  0  0
    1.9237    1.3485    0.0067 H   0  0  0  0  0  0  0  0  0  0  0  0
    1.5379    1.4938    1.7390 H   0  0  0  0  0  0  0  0  0  0  0  0
    2.5062    1.4806   -2.5353 H   0  0  0  0  0  0  0  0  0  0  0  0
  1  2  1  0  0  0  0
  1 19  1  0  0  0  0
  1 20  1  0  0  0  0
  1 21  1  0  0  0  0
  2  3  1  0  0  0  0
  2  4  2  0  0  0  0
  3 22  1  0  0  0  0
  3 23  1  0  0  0  0
  3 24  1  0  0  0  0
  4  5  1  0  0  0  0
  4 25  1  0  0  0  0
  5  6  1  0  0  0  0
  5 26  1  0  0  0  0
  5 27  1  0  0  0  0
  6 28  1  0  0  0  0
  6 29  1  0  0  0  0
  7  6  1  1  0  0  0
  7  8  1  0  0  0  0
  7  9  1  0  0  0  0
  7 10  1  0  0  0  0
  8 30  1  0  0  0  0
  8 31  1  0  0  0  0
  8 32  1  0  0  0  0
  9 33  1  0  0  0  0
  9 34  1  0  0  0  0
 10 11  1  1  0  0  0
 10 12  1  0  0  0  0
 11 35  1  0  0  0  0
 11 36  1  0  0  0  0
 11 37  1  0  0  0  0
 12 13  1  0  0  0  0
 12 38  1  0  0  0  0
 12 39  1  0  0  0  0
 13 14  2  0  0  0  0
 13 40  1  0  0  0  0
 14 15  1  0  0  0  0
 14 16  1  0  0  0  0
 15 41  1  0  0  0  0
 15 42  1  0  0  0  0
 15 43  1  0  0  0  0
 16 17  1  0  0  0  0
 16 44  1  0  0  0  0
 16 45  1  0  0  0  0
 17 10  1  0  0  0  0
 17 46  1  0  0  0  0
 17 47  1  0  0  0  0
 18 48  1  0  0  0  0
M  END
>  <IDENTIFIER>
CNP0456036.1

>  <Energy>
346.784

$$$$
