
 OpenBabel09052516383D

163171  0  0  0  0  0  0  0  0999 V2000
    5.4356    5.0085   -0.4983 C   0  0  0  0  0  0  0  0  0  0  0  0
    5.5728    3.8122    0.2464 O   0  0  0  0  0  0  0  0  0  0  0  0
    5.7988    2.6540   -0.5680 C   0  0  2  0  0  0  0  0  0  0  0  0
    7.2386    2.7067   -1.1584 C   0  0  0  0  0  0  0  0  0  0  0  0
    7.6586    1.5144   -2.0425 C   0  0  0  0  0  0  0  0  0  0  0  0
    9.1205    1.6538   -2.5389 C   0  0  2  0  0  0  0  0  0  0  0  0
    9.2982    2.8154   -3.5299 C   0  0  0  0  0  0  0  0  0  0  0  0
    9.6153    0.3415   -3.1993 C   0  0  0  0  0  0  0  0  0  0  0  0
    9.3903   -0.8001   -2.3967 O   0  0  0  0  0  0  0  0  0  0  0  0
   10.2886   -0.9127   -1.3098 C   0  0  2  0  0  0  0  0  0  0  0  0
   11.4193   -1.6790   -1.6848 O   0  0  0  0  0  0  0  0  0  0  0  0
   12.4365   -1.5758   -0.6781 C   0  0  2  0  0  0  0  0  0  0  0  0
   13.6010   -2.5044   -1.0515 C   0  0  0  0  0  0  0  0  0  0  0  0
   13.1907   -3.8421   -1.1298 O   0  0  0  0  0  0  0  0  0  0  0  0
   11.8976   -1.8593    0.7833 C   0  0  1  0  0  0  0  0  0  0  0  0
   11.8960   -0.7050    1.5919 O   0  0  0  0  0  0  0  0  0  0  0  0
   10.4855   -2.4713    0.7271 C   0  0  2  0  0  0  0  0  0  0  0  0
   10.5738   -3.7846    0.2147 O   0  0  0  0  0  0  0  0  0  0  0  0
    9.5330   -1.5965   -0.1374 C   0  0  1  0  0  0  0  0  0  0  0  0
    8.8316   -0.6432    0.6228 O   0  0  0  0  0  0  0  0  0  0  0  0
    4.8192    2.5512   -1.5979 O   0  0  0  0  0  0  0  0  0  0  0  0
    3.6432    2.2110   -0.8941 C   0  0  1  0  0  0  0  0  0  0  0  0
    2.5709    1.3924   -1.6452 C   0  0  0  0  0  0  0  0  0  0  0  0
    1.9566    0.7046   -0.4288 C   0  0  1  0  0  0  0  0  0  0  0  0
    0.7960   -0.2736   -0.4327 C   0  0  2  0  0  0  0  0  0  0  0  0
   -0.3995    0.1789   -1.3109 C   0  0  0  0  0  0  0  0  0  0  0  0
   -1.7508   -0.3896   -0.8050 C   0  0  0  0  0  0  0  0  0  0  0  0
   -1.5538   -1.7724   -0.1321 C   0  0  2  0  0  0  0  0  0  0  0  0
   -2.9022   -2.5009    0.1089 C   0  0  0  0  0  0  0  0  0  0  0  0
   -3.6343   -1.8855    1.2990 C   0  0  1  0  0  0  0  0  0  0  0  0
   -4.9861   -2.3559    1.4006 O   0  0  0  0  0  0  0  0  0  0  0  0
   -5.8868   -1.2559    1.5808 C   0  0  2  0  0  0  0  0  0  0  0  0
   -6.3380   -1.1998    2.9216 O   0  0  0  0  0  0  0  0  0  0  0  0
   -6.8107    0.1098    3.1923 C   0  0  2  0  0  0  0  0  0  0  0  0
   -7.2360    0.1916    4.6659 C   0  0  0  0  0  0  0  0  0  0  0  0
   -8.2210   -0.7679    4.9578 O   0  0  0  0  0  0  0  0  0  0  0  0
   -7.9800    0.5443    2.2478 C   0  0  1  0  0  0  0  0  0  0  0  0
   -7.9709    1.9588    2.3197 O   0  0  0  0  0  0  0  0  0  0  0  0
   -9.2238    2.6008    2.2867 C   0  0  2  0  0  0  0  0  0  0  0  0
   -9.5881    2.9315    0.9488 O   0  0  0  0  0  0  0  0  0  0  0  0
   -8.5889    3.7321    0.3088 C   0  0  1  0  0  0  0  0  0  0  0  0
   -9.0022    3.9515   -1.1451 C   0  0  0  0  0  0  0  0  0  0  0  0
   -8.4080    5.0930    1.0386 C   0  0  2  0  0  0  0  0  0  0  0  0
   -7.4138    5.8799    0.4271 O   0  0  0  0  0  0  0  0  0  0  0  0
   -8.0663    4.8342    2.5199 C   0  0  1  0  0  0  0  0  0  0  0  0
   -7.9397    6.0270    3.2511 O   0  0  0  0  0  0  0  0  0  0  0  0
   -9.1112    3.8836    3.1509 C   0  0  1  0  0  0  0  0  0  0  0  0
  -10.3605    4.5141    3.3079 O   0  0  0  0  0  0  0  0  0  0  0  0
   -7.7467    0.1071    0.7693 C   0  0  2  0  0  0  0  0  0  0  0  0
   -8.9228    0.2089    0.0092 O   0  0  0  0  0  0  0  0  0  0  0  0
   -7.1174   -1.3118    0.6728 C   0  0  1  0  0  0  0  0  0  0  0  0
   -6.7154   -1.5594   -0.6685 O   0  0  0  0  0  0  0  0  0  0  0  0
   -6.9905   -2.8886   -1.0953 C   0  0  2  0  0  0  0  0  0  0  0  0
   -5.7915   -3.5216   -1.5493 O   0  0  0  0  0  0  0  0  0  0  0  0
   -5.6226   -3.6194   -2.9570 C   0  0  2  0  0  0  0  0  0  0  0  0
   -5.1294   -2.2726   -3.5266 C   0  0  0  0  0  0  0  0  0  0  0  0
   -4.8340   -2.3822   -4.8939 O   0  0  0  0  0  0  0  0  0  0  0  0
   -6.8613   -4.2202   -3.7097 C   0  0  1  0  0  0  0  0  0  0  0  0
   -6.6191   -5.5266   -4.1672 O   0  0  0  0  0  0  0  0  0  0  0  0
   -8.1541   -4.1797   -2.8735 C   0  0  2  0  0  0  0  0  0  0  0  0
   -9.2864   -4.3408   -3.6920 O   0  0  0  0  0  0  0  0  0  0  0  0
   -8.1699   -2.8639   -2.1023 C   0  0  1  0  0  0  0  0  0  0  0  0
   -9.3904   -2.6503   -1.4362 O   0  0  0  0  0  0  0  0  0  0  0  0
   -2.8308   -2.1607    2.5711 C   0  0  0  0  0  0  0  0  0  0  0  0
   -1.5257   -1.3610    2.4781 C   0  0  0  0  0  0  0  0  0  0  0  0
   -0.6632   -1.6486    1.1947 C   0  0  1  0  0  0  0  0  0  0  0  0
    0.0899   -2.9840    1.3766 C   0  0  0  0  0  0  0  0  0  0  0  0
    0.3206   -0.4146    1.0482 C   0  0  1  0  0  0  0  0  0  0  0  0
    1.4380   -0.1909    2.1377 C   0  0  0  0  0  0  0  0  0  0  0  0
    2.8097   -0.6263    1.6335 C   0  0  0  0  0  0  0  0  0  0  0  0
    3.2017    0.0891    0.2902 C   0  0  1  0  0  0  0  0  0  0  0  0
    3.9412   -1.0101   -0.5521 C   0  0  0  0  0  0  0  0  0  0  0  0
    4.0243    1.4115    0.3756 C   0  0  1  0  0  0  0  0  0  0  0  0
    5.5419    1.4029    0.3039 C   0  0  2  0  0  0  0  0  0  0  0  0
    6.2228    1.3615    1.6754 C   0  0  0  0  0  0  0  0  0  0  0  0
    5.0283    5.7857    0.1795 H   0  0  0  0  0  0  0  0  0  0  0  0
    4.7085    4.9238   -1.3332 H   0  0  0  0  0  0  0  0  0  0  0  0
    6.4186    5.3839   -0.8474 H   0  0  0  0  0  0  0  0  0  0  0  0
    7.9586    2.7983   -0.3167 H   0  0  0  0  0  0  0  0  0  0  0  0
    7.3100    3.6156   -1.7792 H   0  0  0  0  0  0  0  0  0  0  0  0
    6.9651    1.3899   -2.9024 H   0  0  0  0  0  0  0  0  0  0  0  0
    7.6175    0.6000   -1.4255 H   0  0  0  0  0  0  0  0  0  0  0  0
    9.7592    1.8693   -1.6592 H   0  0  0  0  0  0  0  0  0  0  0  0
    8.6535    2.6675   -4.4226 H   0  0  0  0  0  0  0  0  0  0  0  0
   10.3576    2.8728   -3.8595 H   0  0  0  0  0  0  0  0  0  0  0  0
    9.0538    3.7910   -3.0669 H   0  0  0  0  0  0  0  0  0  0  0  0
   10.6876    0.4125   -3.4924 H   0  0  0  0  0  0  0  0  0  0  0  0
    9.0471    0.1862   -4.1423 H   0  0  0  0  0  0  0  0  0  0  0  0
   10.6499    0.0799   -0.9651 H   0  0  0  0  0  0  0  0  0  0  0  0
   12.8967   -0.5616   -0.7154 H   0  0  0  0  0  0  0  0  0  0  0  0
   14.4401   -2.3812   -0.3253 H   0  0  0  0  0  0  0  0  0  0  0  0
   14.0048   -2.2044   -2.0433 H   0  0  0  0  0  0  0  0  0  0  0  0
   13.3963   -4.2600   -0.2535 H   0  0  0  0  0  0  0  0  0  0  0  0
   12.5730   -2.5720    1.3057 H   0  0  0  0  0  0  0  0  0  0  0  0
   11.7226    0.0953    1.0379 H   0  0  0  0  0  0  0  0  0  0  0  0
   10.0500   -2.5843    1.7439 H   0  0  0  0  0  0  0  0  0  0  0  0
   10.5676   -3.7626   -0.7761 H   0  0  0  0  0  0  0  0  0  0  0  0
    8.7649   -2.2978   -0.5306 H   0  0  0  0  0  0  0  0  0  0  0  0
    9.4815    0.0025    0.9977 H   0  0  0  0  0  0  0  0  0  0  0  0
    3.1422    3.1517   -0.5572 H   0  0  0  0  0  0  0  0  0  0  0  0
    2.9933    0.6550   -2.3494 H   0  0  0  0  0  0  0  0  0  0  0  0
    1.8751    2.0380   -2.2228 H   0  0  0  0  0  0  0  0  0  0  0  0
    1.5291    1.5655    0.1536 H   0  0  0  0  0  0  0  0  0  0  0  0
    1.1424   -1.2604   -0.8000 H   0  0  0  0  0  0  0  0  0  0  0  0
   -0.1786   -0.1568   -2.3476 H   0  0  0  0  0  0  0  0  0  0  0  0
   -0.5149    1.2852   -1.3339 H   0  0  0  0  0  0  0  0  0  0  0  0
   -2.4608   -0.4139   -1.6598 H   0  0  0  0  0  0  0  0  0  0  0  0
   -2.1705    0.3117   -0.0554 H   0  0  0  0  0  0  0  0  0  0  0  0
   -1.0174   -2.3578   -0.9133 H   0  0  0  0  0  0  0  0  0  0  0  0
   -2.7445   -3.5835    0.3027 H   0  0  0  0  0  0  0  0  0  0  0  0
   -3.5177   -2.4154   -0.8081 H   0  0  0  0  0  0  0  0  0  0  0  0
   -3.5718   -0.7995    1.1209 H   0  0  0  0  0  0  0  0  0  0  0  0
   -5.4124   -0.2931    1.2813 H   0  0  0  0  0  0  0  0  0  0  0  0
   -5.9580    0.8216    3.0728 H   0  0  0  0  0  0  0  0  0  0  0  0
   -7.5876    1.2181    4.9242 H   0  0  0  0  0  0  0  0  0  0  0  0
   -6.3588   -0.0156    5.3149 H   0  0  0  0  0  0  0  0  0  0  0  0
   -9.1038   -0.3238    4.8677 H   0  0  0  0  0  0  0  0  0  0  0  0
   -8.9099    0.0469    2.6021 H   0  0  0  0  0  0  0  0  0  0  0  0
  -10.0168    1.9689    2.7447 H   0  0  0  0  0  0  0  0  0  0  0  0
   -7.6199    3.1856    0.2791 H   0  0  0  0  0  0  0  0  0  0  0  0
   -9.9674    4.4990   -1.1962 H   0  0  0  0  0  0  0  0  0  0  0  0
   -9.1197    2.9705   -1.6527 H   0  0  0  0  0  0  0  0  0  0  0  0
   -8.2264    4.5331   -1.6870 H   0  0  0  0  0  0  0  0  0  0  0  0
   -9.3658    5.6519    0.9804 H   0  0  0  0  0  0  0  0  0  0  0  0
   -6.5679    5.3589    0.4413 H   0  0  0  0  0  0  0  0  0  0  0  0
   -7.0767    4.3224    2.5507 H   0  0  0  0  0  0  0  0  0  0  0  0
   -8.7778    6.5444    3.1336 H   0  0  0  0  0  0  0  0  0  0  0  0
   -8.7623    3.5977    4.1673 H   0  0  0  0  0  0  0  0  0  0  0  0
  -10.7834    4.6118    2.4167 H   0  0  0  0  0  0  0  0  0  0  0  0
   -7.0065    0.8104    0.3253 H   0  0  0  0  0  0  0  0  0  0  0  0
   -9.5607   -0.4632    0.3655 H   0  0  0  0  0  0  0  0  0  0  0  0
   -7.8463   -2.0574    1.0696 H   0  0  0  0  0  0  0  0  0  0  0  0
   -7.3125   -3.5687   -0.2712 H   0  0  0  0  0  0  0  0  0  0  0  0
   -4.7735   -4.3176   -3.1293 H   0  0  0  0  0  0  0  0  0  0  0  0
   -4.2198   -1.9358   -2.9821 H   0  0  0  0  0  0  0  0  0  0  0  0
   -5.8920   -1.4814   -3.3920 H   0  0  0  0  0  0  0  0  0  0  0  0
   -4.0258   -2.9552   -4.9671 H   0  0  0  0  0  0  0  0  0  0  0  0
   -7.0166   -3.5934   -4.6151 H   0  0  0  0  0  0  0  0  0  0  0  0
   -6.4198   -6.0864   -3.3724 H   0  0  0  0  0  0  0  0  0  0  0  0
   -8.1522   -5.0031   -2.1240 H   0  0  0  0  0  0  0  0  0  0  0  0
   -9.3550   -3.5396   -4.2748 H   0  0  0  0  0  0  0  0  0  0  0  0
   -8.0408   -2.0407   -2.8379 H   0  0  0  0  0  0  0  0  0  0  0  0
   -9.5693   -3.4446   -0.8667 H   0  0  0  0  0  0  0  0  0  0  0  0
   -2.6528   -3.2495    2.7044 H   0  0  0  0  0  0  0  0  0  0  0  0
   -3.3926   -1.7898    3.4561 H   0  0  0  0  0  0  0  0  0  0  0  0
   -0.9282   -1.4968    3.4041 H   0  0  0  0  0  0  0  0  0  0  0  0
   -1.8528   -0.2974    2.4765 H   0  0  0  0  0  0  0  0  0  0  0  0
    0.7260   -2.9605    2.2852 H   0  0  0  0  0  0  0  0  0  0  0  0
    0.7441   -3.1907    0.5036 H   0  0  0  0  0  0  0  0  0  0  0  0
   -0.6204   -3.8300    1.4802 H   0  0  0  0  0  0  0  0  0  0  0  0
   -0.3009    0.4955    1.2159 H   0  0  0  0  0  0  0  0  0  0  0  0
    1.1689   -0.6539    3.1078 H   0  0  0  0  0  0  0  0  0  0  0  0
    1.5442    0.8989    2.3397 H   0  0  0  0  0  0  0  0  0  0  0  0
    2.6826   -1.7188    1.4705 H   0  0  0  0  0  0  0  0  0  0  0  0
    3.6140   -0.5082    2.3895 H   0  0  0  0  0  0  0  0  0  0  0  0
    4.7986   -1.4132    0.0290 H   0  0  0  0  0  0  0  0  0  0  0  0
    4.3601   -0.6620   -1.5139 H   0  0  0  0  0  0  0  0  0  0  0  0
    3.2787   -1.8721   -0.7713 H   0  0  0  0  0  0  0  0  0  0  0  0
    3.6647    2.0388    1.2270 H   0  0  0  0  0  0  0  0  0  0  0  0
    5.8638    0.5372   -0.2856 H   0  0  0  0  0  0  0  0  0  0  0  0
    5.9075    2.2259    2.2977 H   0  0  0  0  0  0  0  0  0  0  0  0
    7.3244    1.3899    1.5605 H   0  0  0  0  0  0  0  0  0  0  0  0
    5.9453    0.4258    2.2043 H   0  0  0  0  0  0  0  0  0  0  0  0
  1  2  1  0  0  0  0
  1 76  1  0  0  0  0
  1 77  1  0  0  0  0
  1 78  1  0  0  0  0
  3  2  1  1  0  0  0
  3  4  1  0  0  0  0
  3 21  1  0  0  0  0
  4  5  1  0  0  0  0
  4 79  1  0  0  0  0
  4 80  1  0  0  0  0
  5  6  1  0  0  0  0
  5 81  1  0  0  0  0
  5 82  1  0  0  0  0
  6  7  1  0  0  0  0
  6  8  1  0  0  0  0
  6 83  1  1  0  0  0
  7 84  1  0  0  0  0
  7 85  1  0  0  0  0
  7 86  1  0  0  0  0
  8  9  1  0  0  0  0
  8 87  1  0  0  0  0
  8 88  1  0  0  0  0
 10  9  1  0  0  0  0
 10 11  1  0  0  0  0
 10 89  1  1  0  0  0
 11 12  1  0  0  0  0
 12 13  1  0  0  0  0
 12 15  1  0  0  0  0
 12 90  1  6  0  0  0
 13 14  1  0  0  0  0
 13 91  1  0  0  0  0
 13 92  1  0  0  0  0
 14 93  1  0  0  0  0
 15 16  1  0  0  0  0
 15 17  1  0  0  0  0
 15 94  1  1  0  0  0
 16 95  1  0  0  0  0
 17 18  1  0  0  0  0
 17 19  1  0  0  0  0
 17 96  1  1  0  0  0
 18 97  1  0  0  0  0
 19 20  1  0  0  0  0
 19 10  1  0  0  0  0
 19 98  1  6  0  0  0
 20 99  1  0  0  0  0
 21 22  1  0  0  0  0
 22 23  1  0  0  0  0
 22100  1  1  0  0  0
 23101  1  0  0  0  0
 23102  1  0  0  0  0
 24 23  1  0  0  0  0
 24 25  1  0  0  0  0
 24103  1  1  0  0  0
 25 26  1  0  0  0  0
 25104  1  6  0  0  0
 26 27  1  0  0  0  0
 26105  1  0  0  0  0
 26106  1  0  0  0  0
 27107  1  0  0  0  0
 27108  1  0  0  0  0
 28 27  1  0  0  0  0
 28 29  1  0  0  0  0
 28109  1  6  0  0  0
 29 30  1  0  0  0  0
 29110  1  0  0  0  0
 29111  1  0  0  0  0
 30 31  1  0  0  0  0
 30 64  1  0  0  0  0
 30112  1  6  0  0  0
 32 31  1  0  0  0  0
 32 33  1  0  0  0  0
 32113  1  6  0  0  0
 33 34  1  0  0  0  0
 34 35  1  0  0  0  0
 34 37  1  0  0  0  0
 34114  1  6  0  0  0
 35 36  1  0  0  0  0
 35115  1  0  0  0  0
 35116  1  0  0  0  0
 36117  1  0  0  0  0
 37 38  1  0  0  0  0
 37 49  1  0  0  0  0
 37118  1  1  0  0  0
 39 38  1  0  0  0  0
 39 40  1  0  0  0  0
 39119  1  1  0  0  0
 40 41  1  0  0  0  0
 41 42  1  0  0  0  0
 41 43  1  0  0  0  0
 41120  1  1  0  0  0
 42121  1  0  0  0  0
 42122  1  0  0  0  0
 42123  1  0  0  0  0
 43 44  1  0  0  0  0
 43 45  1  0  0  0  0
 43124  1  6  0  0  0
 44125  1  0  0  0  0
 45 46  1  0  0  0  0
 45 47  1  0  0  0  0
 45126  1  1  0  0  0
 46127  1  0  0  0  0
 47 48  1  0  0  0  0
 47 39  1  0  0  0  0
 47128  1  1  0  0  0
 48129  1  0  0  0  0
 49 50  1  0  0  0  0
 49 51  1  0  0  0  0
 49130  1  6  0  0  0
 50131  1  0  0  0  0
 51 52  1  0  0  0  0
 51 32  1  0  0  0  0
 51132  1  1  0  0  0
 53 52  1  0  0  0  0
 53 54  1  0  0  0  0
 53133  1  1  0  0  0
 54 55  1  0  0  0  0
 55 56  1  0  0  0  0
 55 58  1  0  0  0  0
 55134  1  6  0  0  0
 56 57  1  0  0  0  0
 56135  1  0  0  0  0
 56136  1  0  0  0  0
 57137  1  0  0  0  0
 58 59  1  0  0  0  0
 58 60  1  0  0  0  0
 58138  1  6  0  0  0
 59139  1  0  0  0  0
 60 61  1  0  0  0  0
 60 62  1  0  0  0  0
 60140  1  1  0  0  0
 61141  1  0  0  0  0
 62 63  1  0  0  0  0
 62 53  1  0  0  0  0
 62142  1  6  0  0  0
 63143  1  0  0  0  0
 64 65  1  0  0  0  0
 64144  1  0  0  0  0
 64145  1  0  0  0  0
 65 66  1  0  0  0  0
 65146  1  0  0  0  0
 65147  1  0  0  0  0
 66 67  1  1  0  0  0
 66 68  1  0  0  0  0
 66 28  1  0  0  0  0
 67148  1  0  0  0  0
 67149  1  0  0  0  0
 67150  1  0  0  0  0
 68 69  1  0  0  0  0
 68 25  1  0  0  0  0
 68151  1  1  0  0  0
 69 70  1  0  0  0  0
 69152  1  0  0  0  0
 69153  1  0  0  0  0
 70 71  1  0  0  0  0
 70154  1  0  0  0  0
 70155  1  0  0  0  0
 71 72  1  6  0  0  0
 71 73  1  0  0  0  0
 71 24  1  0  0  0  0
 72156  1  0  0  0  0
 72157  1  0  0  0  0
 72158  1  0  0  0  0
 73 74  1  0  0  0  0
 73 22  1  0  0  0  0
 73159  1  1  0  0  0
 74 75  1  0  0  0  0
 74  3  1  0  0  0  0
 74160  1  6  0  0  0
 75161  1  0  0  0  0
 75162  1  0  0  0  0
 75163  1  0  0  0  0
M  END
>  <IDENTIFIER>
CNP0322210.1

>  <Energy>
2429.53

$$$$
