
 OpenBabel09052518123D

133140  0  0  0  0  0  0  0  0999 V2000
    4.2960   -5.2434    0.9721 C   0  0  0  0  0  0  0  0  0  0  0  0
    5.1967   -4.1386    1.4177 C   0  0  0  0  0  0  0  0  0  0  0  0
    5.4221   -3.9775    2.6085 O   0  0  0  0  0  0  0  0  0  0  0  0
    5.7541   -3.3324    0.4788 O   0  0  0  0  0  0  0  0  0  0  0  0
    6.6069   -2.2615    0.7183 C   0  0  2  0  0  0  0  0  0  0  0  0
    6.0009   -0.9402    0.1358 C   0  0  2  0  0  0  0  0  0  0  0  0
    4.5890   -1.0099    0.2265 O   0  0  0  0  0  0  0  0  0  0  0  0
    3.9727   -0.0069    1.0181 C   0  0  2  0  0  0  0  0  0  0  0  0
    3.2330   -0.7229    2.1635 C   0  0  0  0  0  0  0  0  0  0  0  0
    1.8858   -1.2394    1.7011 C   0  0  0  0  0  0  0  0  0  0  0  0
    0.9711   -0.0087    1.4117 C   0  0  2  0  0  0  0  0  0  0  0  0
    0.1728    0.2506    2.7060 C   0  0  0  0  0  0  0  0  0  0  0  0
   -0.5862   -0.0813    1.4250 C   0  0  2  0  0  0  0  0  0  0  0  0
   -0.9863   -1.4879    0.9444 C   0  0  0  0  0  0  0  0  0  0  0  0
   -2.4799   -1.6739    1.1331 C   0  0  0  0  0  0  0  0  0  0  0  0
   -3.3792   -0.6365    0.3494 C   0  0  1  0  0  0  0  0  0  0  0  0
   -3.2501   -0.9941   -1.1564 C   0  0  0  0  0  0  0  0  0  0  0  0
   -4.8511   -0.7551    1.0015 C   0  0  2  0  0  0  0  0  0  0  0  0
   -6.1516   -1.1307    0.1651 C   0  0  2  0  0  0  0  0  0  0  0  0
   -6.5610   -0.0600   -0.8749 C   0  0  0  0  0  0  0  0  0  0  0  0
   -7.3936   -1.3688    1.0505 C   0  0  0  0  0  0  0  0  0  0  0  0
   -7.1455   -2.7480    1.5670 C   0  0  0  0  0  0  0  0  0  0  0  0
   -6.4630   -3.4032    0.3563 C   0  0  1  0  0  0  0  0  0  0  0  0
   -7.3779   -4.3704   -0.4655 C   0  0  0  0  0  0  0  0  0  0  0  0
   -6.5503   -5.0227   -1.5930 C   0  0  0  0  0  0  0  0  0  0  0  0
   -8.5836   -3.6585   -1.1006 C   0  0  0  0  0  0  0  0  0  0  0  0
   -7.8806   -5.3813    0.3783 O   0  0  0  0  0  0  0  0  0  0  0  0
   -5.9219   -2.3741   -0.4758 O   0  0  0  0  0  0  0  0  0  0  0  0
   -4.9935    0.4994    1.9048 C   0  0  1  0  0  0  0  0  0  0  0  0
   -5.6537    0.2599    3.1228 O   0  0  0  0  0  0  0  0  0  0  0  0
   -3.5683    1.0227    2.0898 C   0  0  0  0  0  0  0  0  0  0  0  0
   -2.9197    0.8412    0.6919 C   0  0  2  0  0  0  0  0  0  0  0  0
   -3.5376    1.9019   -0.2794 C   0  0  0  0  0  0  0  0  0  0  0  0
   -1.3536    1.1086    0.7909 C   0  0  2  0  0  0  0  0  0  0  0  0
   -0.5720    1.5341   -0.4660 C   0  0  0  0  0  0  0  0  0  0  0  0
    0.7544    2.2019   -0.0224 C   0  0  1  0  0  0  0  0  0  0  0  0
    0.4741    3.3740    0.7425 O   0  0  0  0  0  0  0  0  0  0  0  0
    0.6205    4.5758    0.0003 C   0  0  1  0  0  0  0  0  0  0  0  0
   -0.6397    4.8971   -0.6181 O   0  0  0  0  0  0  0  0  0  0  0  0
   -1.0205    6.2763   -0.5644 C   0  0  2  0  0  0  0  0  0  0  0  0
   -2.1551    6.5058   -1.5734 C   0  0  0  0  0  0  0  0  0  0  0  0
   -2.5861    7.8396   -1.5604 O   0  0  0  0  0  0  0  0  0  0  0  0
    0.1840    7.2166   -0.8532 C   0  0  2  0  0  0  0  0  0  0  0  0
    0.6827    7.0082   -2.1574 O   0  0  0  0  0  0  0  0  0  0  0  0
    1.2849    7.0227    0.2262 C   0  0  2  0  0  0  0  0  0  0  0  0
    2.5673    7.2128   -0.3232 O   0  0  0  0  0  0  0  0  0  0  0  0
    1.1240    5.6689    0.9638 C   0  0  2  0  0  0  0  0  0  0  0  0
    2.2954    5.3078    1.6542 O   0  0  0  0  0  0  0  0  0  0  0  0
    1.6938    1.2730    0.8309 C   0  0  2  0  0  0  0  0  0  0  0  0
    3.0445    0.8963    0.0919 C   0  0  0  0  0  0  0  0  0  0  0  0
    3.8705    2.1697   -0.2404 C   0  0  0  0  0  0  0  0  0  0  0  0
    2.7280    0.1724   -1.2554 C   0  0  0  0  0  0  0  0  0  0  0  0
    6.3804   -0.6627   -1.2201 O   0  0  0  0  0  0  0  0  0  0  0  0
    6.4522   -1.8497   -1.9795 C   0  0  0  0  0  0  0  0  0  0  0  0
    7.6352   -2.7371   -1.5244 C   0  0  1  0  0  0  0  0  0  0  0  0
    8.7770   -2.4670   -2.2600 O   0  0  0  0  0  0  0  0  0  0  0  0
    9.4076   -3.3632   -3.0700 C   0  0  0  0  0  0  0  0  0  0  0  0
   10.6293   -2.9528   -3.8230 C   0  0  0  0  0  0  0  0  0  0  0  0
    8.9877   -4.5048   -3.1980 O   0  0  0  0  0  0  0  0  0  0  0  0
    7.9273   -2.5140   -0.0168 C   0  0  2  0  0  0  0  0  0  0  0  0
    8.6587   -3.5835    0.5290 O   0  0  0  0  0  0  0  0  0  0  0  0
    3.9183   -5.8210    1.8423 H   0  0  0  0  0  0  0  0  0  0  0  0
    4.8570   -5.9267    0.3006 H   0  0  0  0  0  0  0  0  0  0  0  0
    3.4337   -4.8155    0.4192 H   0  0  0  0  0  0  0  0  0  0  0  0
    6.7658   -2.1251    1.8116 H   0  0  0  0  0  0  0  0  0  0  0  0
    6.4682   -0.1156    0.7213 H   0  0  0  0  0  0  0  0  0  0  0  0
    4.7036    0.6191    1.5810 H   0  0  0  0  0  0  0  0  0  0  0  0
    3.0461   -0.0213    3.0081 H   0  0  0  0  0  0  0  0  0  0  0  0
    3.8752   -1.5398    2.5586 H   0  0  0  0  0  0  0  0  0  0  0  0
    1.4741   -1.8992    2.4955 H   0  0  0  0  0  0  0  0  0  0  0  0
    2.0174   -1.8762    0.8027 H   0  0  0  0  0  0  0  0  0  0  0  0
    0.0542    1.3133    3.0015 H   0  0  0  0  0  0  0  0  0  0  0  0
   -0.1166   -0.5539    3.4161 H   0  0  0  0  0  0  0  0  0  0  0  0
   -0.4881   -2.2883    1.5272 H   0  0  0  0  0  0  0  0  0  0  0  0
   -0.6979   -1.6259   -0.1167 H   0  0  0  0  0  0  0  0  0  0  0  0
   -2.6418   -1.6173    2.2302 H   0  0  0  0  0  0  0  0  0  0  0  0
   -2.7664   -2.7096    0.8404 H   0  0  0  0  0  0  0  0  0  0  0  0
   -3.5755   -2.0382   -1.3448 H   0  0  0  0  0  0  0  0  0  0  0  0
   -2.2058   -0.8986   -1.5057 H   0  0  0  0  0  0  0  0  0  0  0  0
   -3.8163   -0.3327   -1.8208 H   0  0  0  0  0  0  0  0  0  0  0  0
   -4.7577   -1.5936    1.7104 H   0  0  0  0  0  0  0  0  0  0  0  0
   -6.8465    0.8927   -0.3855 H   0  0  0  0  0  0  0  0  0  0  0  0
   -7.4441   -0.4052   -1.4541 H   0  0  0  0  0  0  0  0  0  0  0  0
   -5.7924    0.1547   -1.6234 H   0  0  0  0  0  0  0  0  0  0  0  0
   -8.2933   -1.4250    0.4058 H   0  0  0  0  0  0  0  0  0  0  0  0
   -7.6130   -0.6002    1.8188 H   0  0  0  0  0  0  0  0  0  0  0  0
   -8.0284   -3.2780    1.9835 H   0  0  0  0  0  0  0  0  0  0  0  0
   -6.4166   -2.6682    2.3983 H   0  0  0  0  0  0  0  0  0  0  0  0
   -5.6298   -4.0240    0.7564 H   0  0  0  0  0  0  0  0  0  0  0  0
   -6.1665   -4.2555   -2.2990 H   0  0  0  0  0  0  0  0  0  0  0  0
   -7.1723   -5.7467   -2.1618 H   0  0  0  0  0  0  0  0  0  0  0  0
   -5.6829   -5.5742   -1.1701 H   0  0  0  0  0  0  0  0  0  0  0  0
   -8.2546   -2.8371   -1.7718 H   0  0  0  0  0  0  0  0  0  0  0  0
   -9.2612   -3.2570   -0.3207 H   0  0  0  0  0  0  0  0  0  0  0  0
   -9.1816   -4.3803   -1.6977 H   0  0  0  0  0  0  0  0  0  0  0  0
   -7.1099   -5.8641    0.7779 H   0  0  0  0  0  0  0  0  0  0  0  0
   -5.5582    1.2849    1.3778 H   0  0  0  0  0  0  0  0  0  0  0  0
   -5.1091   -0.3908    3.6376 H   0  0  0  0  0  0  0  0  0  0  0  0
   -3.0393    0.3951    2.8356 H   0  0  0  0  0  0  0  0  0  0  0  0
   -3.5401    2.0645    2.4773 H   0  0  0  0  0  0  0  0  0  0  0  0
   -3.2885    2.9289    0.0640 H   0  0  0  0  0  0  0  0  0  0  0  0
   -4.6289    1.8473   -0.3959 H   0  0  0  0  0  0  0  0  0  0  0  0
   -3.1549    1.7777   -1.3108 H   0  0  0  0  0  0  0  0  0  0  0  0
   -1.3128    2.0106    1.4377 H   0  0  0  0  0  0  0  0  0  0  0  0
   -1.1004    2.3190   -1.0377 H   0  0  0  0  0  0  0  0  0  0  0  0
   -0.4027    0.6708   -1.1448 H   0  0  0  0  0  0  0  0  0  0  0  0
    1.2516    2.4534   -0.9737 H   0  0  0  0  0  0  0  0  0  0  0  0
    1.4036    4.4977   -0.7847 H   0  0  0  0  0  0  0  0  0  0  0  0
   -1.4355    6.5036    0.4434 H   0  0  0  0  0  0  0  0  0  0  0  0
   -3.0113    5.8286   -1.3499 H   0  0  0  0  0  0  0  0  0  0  0  0
   -1.8098    6.2541   -2.5994 H   0  0  0  0  0  0  0  0  0  0  0  0
   -3.1012    7.9651   -0.7216 H   0  0  0  0  0  0  0  0  0  0  0  0
   -0.1326    8.2814   -0.8180 H   0  0  0  0  0  0  0  0  0  0  0  0
    0.8139    6.0383   -2.3098 H   0  0  0  0  0  0  0  0  0  0  0  0
    1.1624    7.7844    1.0277 H   0  0  0  0  0  0  0  0  0  0  0  0
    2.7831    6.4217   -0.8827 H   0  0  0  0  0  0  0  0  0  0  0  0
    0.3171    5.7723    1.7228 H   0  0  0  0  0  0  0  0  0  0  0  0
    2.9436    4.9605    0.9888 H   0  0  0  0  0  0  0  0  0  0  0  0
    2.0478    1.8601    1.7098 H   0  0  0  0  0  0  0  0  0  0  0  0
    3.3527    2.8667   -0.9255 H   0  0  0  0  0  0  0  0  0  0  0  0
    4.8338    1.8956   -0.7212 H   0  0  0  0  0  0  0  0  0  0  0  0
    4.1032    2.7295    0.6918 H   0  0  0  0  0  0  0  0  0  0  0  0
    2.1473    0.7994   -1.9572 H   0  0  0  0  0  0  0  0  0  0  0  0
    2.1605   -0.7640   -1.1045 H   0  0  0  0  0  0  0  0  0  0  0  0
    3.6647   -0.0715   -1.8008 H   0  0  0  0  0  0  0  0  0  0  0  0
    6.5098   -1.6321   -3.0669 H   0  0  0  0  0  0  0  0  0  0  0  0
    5.4885   -2.3968   -1.8571 H   0  0  0  0  0  0  0  0  0  0  0  0
    7.2885   -3.7809   -1.6999 H   0  0  0  0  0  0  0  0  0  0  0  0
   10.8823   -1.8949   -3.6025 H   0  0  0  0  0  0  0  0  0  0  0  0
   10.4471   -3.0627   -4.9130 H   0  0  0  0  0  0  0  0  0  0  0  0
   11.4811   -3.6000   -3.5279 H   0  0  0  0  0  0  0  0  0  0  0  0
    8.5358   -1.5894    0.1089 H   0  0  0  0  0  0  0  0  0  0  0  0
    8.1038   -4.4021    0.4452 H   0  0  0  0  0  0  0  0  0  0  0  0
  1  2  1  0  0  0  0
  1 62  1  0  0  0  0
  1 63  1  0  0  0  0
  1 64  1  0  0  0  0
  2  3  2  0  0  0  0
  2  4  1  0  0  0  0
  5  4  1  0  0  0  0
  5  6  1  0  0  0  0
  5 65  1  1  0  0  0
  6  7  1  0  0  0  0
  6 53  1  0  0  0  0
  6 66  1  1  0  0  0
  8  7  1  0  0  0  0
  8  9  1  0  0  0  0
  8 67  1  1  0  0  0
  9 10  1  0  0  0  0
  9 68  1  0  0  0  0
  9 69  1  0  0  0  0
 10 70  1  0  0  0  0
 10 71  1  0  0  0  0
 11 10  1  6  0  0  0
 11 12  1  0  0  0  0
 12 72  1  0  0  0  0
 12 73  1  0  0  0  0
 13 12  1  1  0  0  0
 13 14  1  0  0  0  0
 13 11  1  0  0  0  0
 14 15  1  0  0  0  0
 14 74  1  0  0  0  0
 14 75  1  0  0  0  0
 15 16  1  0  0  0  0
 15 76  1  0  0  0  0
 15 77  1  0  0  0  0
 16 17  1  6  0  0  0
 16 18  1  0  0  0  0
 17 78  1  0  0  0  0
 17 79  1  0  0  0  0
 17 80  1  0  0  0  0
 18 19  1  0  0  0  0
 18 29  1  0  0  0  0
 18 81  1  1  0  0  0
 19 20  1  6  0  0  0
 19 21  1  0  0  0  0
 20 82  1  0  0  0  0
 20 83  1  0  0  0  0
 20 84  1  0  0  0  0
 21 22  1  0  0  0  0
 21 85  1  0  0  0  0
 21 86  1  0  0  0  0
 22 23  1  0  0  0  0
 22 87  1  0  0  0  0
 22 88  1  0  0  0  0
 23 24  1  0  0  0  0
 23 28  1  0  0  0  0
 23 89  1  1  0  0  0
 24 25  1  0  0  0  0
 24 26  1  0  0  0  0
 24 27  1  0  0  0  0
 25 90  1  0  0  0  0
 25 91  1  0  0  0  0
 25 92  1  0  0  0  0
 26 93  1  0  0  0  0
 26 94  1  0  0  0  0
 26 95  1  0  0  0  0
 27 96  1  0  0  0  0
 28 19  1  0  0  0  0
 29 30  1  0  0  0  0
 29 31  1  0  0  0  0
 29 97  1  6  0  0  0
 30 98  1  0  0  0  0
 31 32  1  0  0  0  0
 31 99  1  0  0  0  0
 31100  1  0  0  0  0
 32 33  1  6  0  0  0
 32 34  1  0  0  0  0
 32 16  1  0  0  0  0
 33101  1  0  0  0  0
 33102  1  0  0  0  0
 33103  1  0  0  0  0
 34 35  1  0  0  0  0
 34 13  1  0  0  0  0
 34104  1  1  0  0  0
 35 36  1  0  0  0  0
 35105  1  0  0  0  0
 35106  1  0  0  0  0
 36 37  1  0  0  0  0
 36 49  1  0  0  0  0
 36107  1  6  0  0  0
 38 37  1  0  0  0  0
 38 39  1  0  0  0  0
 38108  1  6  0  0  0
 39 40  1  0  0  0  0
 40 41  1  0  0  0  0
 40 43  1  0  0  0  0
 40109  1  1  0  0  0
 41 42  1  0  0  0  0
 41110  1  0  0  0  0
 41111  1  0  0  0  0
 42112  1  0  0  0  0
 43 44  1  0  0  0  0
 43 45  1  0  0  0  0
 43113  1  1  0  0  0
 44114  1  0  0  0  0
 45 46  1  0  0  0  0
 45 47  1  0  0  0  0
 45115  1  1  0  0  0
 46116  1  0  0  0  0
 47 48  1  0  0  0  0
 47 38  1  0  0  0  0
 47117  1  1  0  0  0
 48118  1  0  0  0  0
 49 50  1  0  0  0  0
 49 11  1  0  0  0  0
 49119  1  1  0  0  0
 50 51  1  0  0  0  0
 50 52  1  0  0  0  0
 50  8  1  0  0  0  0
 51120  1  0  0  0  0
 51121  1  0  0  0  0
 51122  1  0  0  0  0
 52123  1  0  0  0  0
 52124  1  0  0  0  0
 52125  1  0  0  0  0
 53 54  1  0  0  0  0
 54 55  1  0  0  0  0
 54126  1  0  0  0  0
 54127  1  0  0  0  0
 55 56  1  0  0  0  0
 55 60  1  0  0  0  0
 55128  1  6  0  0  0
 56 57  1  0  0  0  0
 57 58  1  0  0  0  0
 57 59  2  0  0  0  0
 58129  1  0  0  0  0
 58130  1  0  0  0  0
 58131  1  0  0  0  0
 60 61  1  0  0  0  0
 60  5  1  0  0  0  0
 60132  1  1  0  0  0
 61133  1  0  0  0  0
M  END
>  <IDENTIFIER>
CNP0181600.2

>  <Energy>
3210.66

$$$$
