
 OpenBabel09102504143D

 93 98  0  0  0  0  0  0  0  0999 V2000
    5.3083    4.3866    2.3148 C   0  0  0  0  0  0  0  0  0  0  0  0
    4.7389    2.9674    2.2306 C   0  0  0  0  0  0  0  0  0  0  0  0
    4.3969    2.5640    0.8223 C   0  0  0  0  0  0  0  0  0  0  0  0
    4.5812    3.3488   -0.1006 O   0  0  0  0  0  0  0  0  0  0  0  0
    3.9146    1.3106    0.5842 O   0  0  0  0  0  0  0  0  0  0  0  0
    3.6349    0.8246   -0.6875 C   0  0  2  0  0  0  0  0  0  0  0  0
    2.2711    0.1210   -0.7775 C   0  0  2  0  0  0  0  0  0  0  0  0
    0.9801    0.8309   -0.2870 C   0  0  1  0  0  0  0  0  0  0  0  0
    1.0763    2.1780   -0.6247 O   0  0  0  0  0  0  0  0  0  0  0  0
    1.2079    3.1857    0.2956 C   0  0  0  0  0  0  0  0  0  0  0  0
    1.2503    4.6097   -0.1401 C   0  0  0  0  0  0  0  0  0  0  0  0
    1.2847    2.9456    1.4929 O   0  0  0  0  0  0  0  0  0  0  0  0
   -0.3972    0.2026   -0.8239 C   0  0  1  0  0  0  0  0  0  0  0  0
   -0.3585    0.0164   -2.3429 C   0  0  0  0  0  0  0  0  0  0  0  0
    0.3988   -1.1411   -2.6075 O   0  0  0  0  0  0  0  0  0  0  0  0
    0.2918   -2.0224   -1.4906 C   0  0  1  0  0  0  0  0  0  0  0  0
   -0.2679   -3.3538   -2.0639 C   0  0  0  0  0  0  0  0  0  0  0  0
    1.7687   -2.3454   -1.0133 C   0  0  2  0  0  0  0  0  0  0  0  0
    1.8472   -3.5641   -0.3446 O   0  0  0  0  0  0  0  0  0  0  0  0
    2.5497   -4.6499   -0.7829 C   0  0  0  0  0  0  0  0  0  0  0  0
    2.6488   -5.8685    0.0732 C   0  0  0  0  0  0  0  0  0  0  0  0
    3.1166   -4.6438   -1.8657 O   0  0  0  0  0  0  0  0  0  0  0  0
    2.4836   -1.2768   -0.1510 C   0  0  2  0  0  0  0  0  0  0  0  0
    2.0125   -1.3105    1.1806 O   0  0  0  0  0  0  0  0  0  0  0  0
    4.0335   -1.4484   -0.1236 C   0  0  0  0  0  0  0  0  0  0  0  0
    4.5592   -0.3524   -1.0409 C   0  0  2  0  0  0  0  0  0  0  0  0
    6.0533   -0.0619   -0.8865 C   0  0  0  0  0  0  0  0  0  0  0  0
   -0.6343   -1.2827   -0.4166 C   0  0  2  0  0  0  0  0  0  0  0  0
   -2.1777   -1.7474   -0.4957 C   0  0  2  0  0  0  0  0  0  0  0  0
   -3.2433   -0.6343   -0.2870 C   0  0  1  0  0  0  0  0  0  0  0  0
   -3.2808   -0.9287    1.1978 C   0  0  0  0  0  0  0  0  0  0  0  0
   -2.7372   -2.3256    0.8638 C   0  0  1  0  0  0  0  0  0  0  0  0
   -3.8824   -3.3530    0.6803 C   0  0  0  0  0  0  0  0  0  0  0  0
   -1.8417   -2.7128    1.8510 O   0  0  0  0  0  0  0  0  0  0  0  0
   -1.1044   -3.8482    1.9191 C   0  0  0  0  0  0  0  0  0  0  0  0
   -0.2669   -4.0898    3.1327 C   0  0  0  0  0  0  0  0  0  0  0  0
   -1.1323   -4.6803    1.0272 O   0  0  0  0  0  0  0  0  0  0  0  0
   -2.9476    0.7556   -0.8039 C   0  0  1  0  0  0  0  0  0  0  0  0
   -3.8886    1.6569   -0.3267 O   0  0  0  0  0  0  0  0  0  0  0  0
   -4.7484    2.3705   -1.1119 C   0  0  0  0  0  0  0  0  0  0  0  0
   -4.7298    2.2394   -2.3299 O   0  0  0  0  0  0  0  0  0  0  0  0
   -5.7258    3.2979   -0.4961 C   0  0  0  0  0  0  0  0  0  0  0  0
   -6.6404    4.0105   -1.2982 C   0  0  0  0  0  0  0  0  0  0  0  0
   -7.5645    4.8827   -0.7146 C   0  0  0  0  0  0  0  0  0  0  0  0
   -7.5846    5.0551    0.6704 C   0  0  0  0  0  0  0  0  0  0  0  0
   -6.6818    4.3547    1.4749 C   0  0  0  0  0  0  0  0  0  0  0  0
   -5.7573    3.4790    0.8973 C   0  0  0  0  0  0  0  0  0  0  0  0
   -1.5605    1.1091   -0.3820 C   0  0  0  0  0  0  0  0  0  0  0  0
   -1.3913    2.0865    0.3316 O   0  0  0  0  0  0  0  0  0  0  0  0
    5.5497    4.6339    3.3691 H   0  0  0  0  0  0  0  0  0  0  0  0
    4.5679    5.1238    1.9357 H   0  0  0  0  0  0  0  0  0  0  0  0
    6.2393    4.4642    1.7116 H   0  0  0  0  0  0  0  0  0  0  0  0
    3.8234    2.9052    2.8551 H   0  0  0  0  0  0  0  0  0  0  0  0
    5.4946    2.2573    2.6283 H   0  0  0  0  0  0  0  0  0  0  0  0
    3.7187    1.6330   -1.4496 H   0  0  0  0  0  0  0  0  0  0  0  0
    2.2178    0.0343   -1.8821 H   0  0  0  0  0  0  0  0  0  0  0  0
    0.9515    0.7499    0.8188 H   0  0  0  0  0  0  0  0  0  0  0  0
    1.1651    4.6803   -1.2422 H   0  0  0  0  0  0  0  0  0  0  0  0
    2.2077    5.0663    0.1893 H   0  0  0  0  0  0  0  0  0  0  0  0
    0.4079    5.1595    0.3316 H   0  0  0  0  0  0  0  0  0  0  0  0
    0.0610    0.9109   -2.8503 H   0  0  0  0  0  0  0  0  0  0  0  0
   -1.3470   -0.1909   -2.7914 H   0  0  0  0  0  0  0  0  0  0  0  0
    0.4603   -3.7967   -2.7775 H   0  0  0  0  0  0  0  0  0  0  0  0
   -1.1820   -3.2185   -2.6701 H   0  0  0  0  0  0  0  0  0  0  0  0
   -0.4586   -4.0937   -1.2648 H   0  0  0  0  0  0  0  0  0  0  0  0
    2.3451   -2.4159   -1.9654 H   0  0  0  0  0  0  0  0  0  0  0  0
    2.0957   -5.7203    1.0227 H   0  0  0  0  0  0  0  0  0  0  0  0
    3.7172   -6.0700    0.3031 H   0  0  0  0  0  0  0  0  0  0  0  0
    2.2239   -6.7400   -0.4675 H   0  0  0  0  0  0  0  0  0  0  0  0
    2.3187   -2.1561    1.6018 H   0  0  0  0  0  0  0  0  0  0  0  0
    4.4095   -2.4731   -0.3282 H   0  0  0  0  0  0  0  0  0  0  0  0
    4.3900   -1.1775    0.8976 H   0  0  0  0  0  0  0  0  0  0  0  0
    4.3730   -0.6589   -2.0974 H   0  0  0  0  0  0  0  0  0  0  0  0
    6.2970    0.2359    0.1550 H   0  0  0  0  0  0  0  0  0  0  0  0
    6.3465    0.7602   -1.5733 H   0  0  0  0  0  0  0  0  0  0  0  0
    6.6403   -0.9682   -1.1460 H   0  0  0  0  0  0  0  0  0  0  0  0
   -0.3153   -1.4138    0.6302 H   0  0  0  0  0  0  0  0  0  0  0  0
   -2.4820   -2.2078   -1.4476 H   0  0  0  0  0  0  0  0  0  0  0  0
   -4.2239   -0.9651   -0.7051 H   0  0  0  0  0  0  0  0  0  0  0  0
   -4.2487   -0.8289    1.7348 H   0  0  0  0  0  0  0  0  0  0  0  0
   -2.4782   -0.3381    1.6972 H   0  0  0  0  0  0  0  0  0  0  0  0
   -4.3729   -3.5409    1.6591 H   0  0  0  0  0  0  0  0  0  0  0  0
   -3.4872   -4.3121    0.2916 H   0  0  0  0  0  0  0  0  0  0  0  0
   -4.6618   -3.0106   -0.0300 H   0  0  0  0  0  0  0  0  0  0  0  0
   -0.3714   -3.2424    3.8442 H   0  0  0  0  0  0  0  0  0  0  0  0
    0.7993   -4.1877    2.8435 H   0  0  0  0  0  0  0  0  0  0  0  0
   -0.6029   -5.0196    3.6381 H   0  0  0  0  0  0  0  0  0  0  0  0
   -2.9859    0.7268   -1.9078 H   0  0  0  0  0  0  0  0  0  0  0  0
   -6.6441    3.8931   -2.3752 H   0  0  0  0  0  0  0  0  0  0  0  0
   -8.2644    5.4242   -1.3384 H   0  0  0  0  0  0  0  0  0  0  0  0
   -8.3010    5.7310    1.1201 H   0  0  0  0  0  0  0  0  0  0  0  0
   -6.6991    4.4912    2.5483 H   0  0  0  0  0  0  0  0  0  0  0  0
   -5.0664    2.9476    1.5398 H   0  0  0  0  0  0  0  0  0  0  0  0
  1  2  1  0  0  0  0
  1 50  1  0  0  0  0
  1 51  1  0  0  0  0
  1 52  1  0  0  0  0
  2  3  1  0  0  0  0
  2 53  1  0  0  0  0
  2 54  1  0  0  0  0
  3  4  2  0  0  0  0
  3  5  1  0  0  0  0
  6  5  1  0  0  0  0
  6 55  1  6  0  0  0
  7  6  1  0  0  0  0
  7  8  1  0  0  0  0
  7 56  1  6  0  0  0
  8  9  1  0  0  0  0
  8 13  1  0  0  0  0
  8 57  1  1  0  0  0
  9 10  1  0  0  0  0
 10 11  1  0  0  0  0
 10 12  2  0  0  0  0
 11 58  1  0  0  0  0
 11 59  1  0  0  0  0
 11 60  1  0  0  0  0
 13 14  1  0  0  0  0
 13 48  1  1  0  0  0
 14 15  1  0  0  0  0
 14 61  1  0  0  0  0
 14 62  1  0  0  0  0
 15 16  1  0  0  0  0
 16 17  1  6  0  0  0
 16 18  1  0  0  0  0
 17 63  1  0  0  0  0
 17 64  1  0  0  0  0
 17 65  1  0  0  0  0
 18 19  1  0  0  0  0
 18 23  1  0  0  0  0
 18 66  1  6  0  0  0
 19 20  1  0  0  0  0
 20 21  1  0  0  0  0
 20 22  2  0  0  0  0
 21 67  1  0  0  0  0
 21 68  1  0  0  0  0
 21 69  1  0  0  0  0
 23 24  1  1  0  0  0
 23 25  1  0  0  0  0
 23  7  1  0  0  0  0
 24 70  1  0  0  0  0
 25 26  1  0  0  0  0
 25 71  1  0  0  0  0
 25 72  1  0  0  0  0
 26 27  1  0  0  0  0
 26  6  1  0  0  0  0
 26 73  1  6  0  0  0
 27 74  1  0  0  0  0
 27 75  1  0  0  0  0
 27 76  1  0  0  0  0
 28 16  1  0  0  0  0
 28 29  1  0  0  0  0
 28 13  1  0  0  0  0
 28 77  1  1  0  0  0
 29 30  1  0  0  0  0
 29 32  1  0  0  0  0
 29 78  1  6  0  0  0
 30 31  1  0  0  0  0
 30 38  1  0  0  0  0
 30 79  1  6  0  0  0
 31 32  1  0  0  0  0
 31 80  1  0  0  0  0
 31 81  1  0  0  0  0
 32 33  1  0  0  0  0
 32 34  1  1  0  0  0
 33 82  1  0  0  0  0
 33 83  1  0  0  0  0
 33 84  1  0  0  0  0
 34 35  1  0  0  0  0
 35 36  1  0  0  0  0
 35 37  2  0  0  0  0
 36 85  1  0  0  0  0
 36 86  1  0  0  0  0
 36 87  1  0  0  0  0
 38 39  1  0  0  0  0
 38 48  1  0  0  0  0
 38 88  1  6  0  0  0
 39 40  1  0  0  0  0
 40 41  2  0  0  0  0
 40 42  1  0  0  0  0
 42 43  2  0  0  0  0
 43 44  1  0  0  0  0
 43 89  1  0  0  0  0
 44 45  2  0  0  0  0
 44 90  1  0  0  0  0
 45 46  1  0  0  0  0
 45 91  1  0  0  0  0
 46 47  2  0  0  0  0
 46 92  1  0  0  0  0
 47 42  1  0  0  0  0
 47 93  1  0  0  0  0
 48 49  2  0  0  0  0
M  END
>  <IDENTIFIER>
CNP0257937.1

>  <Energy>
1484.39

$$$$
