
 OpenBabel09062509543D

130137  0  0  0  0  0  0  0  0999 V2000
    3.5886   -0.4484   -3.7873 C   0  0  0  0  0  0  0  0  0  0  0  0
    2.9371    0.8875   -3.3980 C   0  0  0  0  0  0  0  0  0  0  0  0
    1.8032    0.7403   -2.3481 C   0  0  2  0  0  0  0  0  0  0  0  0
    0.8961    1.9628   -2.3518 C   0  0  0  0  0  0  0  0  0  0  0  0
   -0.3424    1.6521   -1.5461 C   0  0  0  0  0  0  0  0  0  0  0  0
   -1.6203    1.9573   -2.0509 C   0  0  0  0  0  0  0  0  0  0  0  0
   -2.7739    1.6972   -1.2916 C   0  0  0  0  0  0  0  0  0  0  0  0
   -3.9949    1.9725   -1.7949 O   0  0  0  0  0  0  0  0  0  0  0  0
   -2.6419    1.1676    0.0052 C   0  0  0  0  0  0  0  0  0  0  0  0
   -3.6984    0.8842    0.8072 O   0  0  0  0  0  0  0  0  0  0  0  0
   -4.8311    0.1654    0.4531 C   0  0  2  0  0  0  0  0  0  0  0  0
   -6.0458    1.1323    0.6742 C   0  0  0  0  0  0  0  0  0  0  0  0
   -7.4550    0.5557    0.3897 C   0  0  2  0  0  0  0  0  0  0  0  0
   -7.6771    0.3304   -1.1324 C   0  0  0  0  0  0  0  0  0  0  0  0
   -8.9435   -0.4205   -1.4935 C   0  0  0  0  0  0  0  0  0  0  0  0
   -9.9262   -0.9088   -0.6420 C   0  0  0  0  0  0  0  0  0  0  0  0
  -10.8704   -1.5214   -1.4370 C   0  0  0  0  0  0  0  0  0  0  0  0
  -10.4357   -1.3905   -2.7381 C   0  0  0  0  0  0  0  0  0  0  0  0
   -9.2676   -0.7231   -2.7656 N   0  0  0  0  0  0  0  0  0  0  0  0
   -8.5741    1.3017    1.1391 C   0  0  0  0  0  0  0  0  0  0  0  0
   -9.4722    2.1257    0.4346 C   0  0  0  0  0  0  0  0  0  0  0  0
  -10.5362    2.7281    1.0924 C   0  0  0  0  0  0  0  0  0  0  0  0
  -10.7285    2.5170    2.4149 N   0  0  0  0  0  0  0  0  0  0  0  0
   -9.9062    1.7322    3.1586 C   0  0  0  0  0  0  0  0  0  0  0  0
  -10.1925    1.5889    4.5412 N   0  0  0  0  0  0  0  0  0  0  0  0
   -8.7918    1.0981    2.5494 C   0  0  0  0  0  0  0  0  0  0  0  0
   -7.8467    0.2547    3.4033 C   0  0  0  0  0  0  0  0  0  0  0  0
   -8.4604   -1.3512    4.0280 S   0  0  0  0  0  0  0  0  0  0  0  0
   -8.3237   -2.4196    2.1658 S   0  0  0  0  0  0  0  0  0  0  0  0
   -6.5552   -2.9707    2.1120 C   0  0  0  0  0  0  0  0  0  0  0  0
   -5.7583   -2.3336    0.9196 C   0  0  2  0  0  0  0  0  0  0  0  0
   -4.9341   -3.4164    0.1768 C   0  0  0  0  0  0  0  0  0  0  0  0
   -4.2893   -2.8814   -0.9493 O   0  0  0  0  0  0  0  0  0  0  0  0
   -4.8533   -1.1178    1.3779 C   0  0  1  0  0  0  0  0  0  0  0  0
   -3.5484   -1.5784    1.6543 O   0  0  0  0  0  0  0  0  0  0  0  0
   -1.3738    0.8740    0.5032 C   0  0  0  0  0  0  0  0  0  0  0  0
   -0.2170    1.0466   -0.2794 C   0  0  0  0  0  0  0  0  0  0  0  0
    1.1313    0.4992    0.2126 C   0  0  1  0  0  0  0  0  0  0  0  0
    0.9232   -0.8706    0.9472 C   0  0  0  0  0  0  0  0  0  0  0  0
    1.8999   -1.9961    0.6222 C   0  0  1  0  0  0  0  0  0  0  0  0
    1.7339   -2.3610   -0.7348 O   0  0  0  0  0  0  0  0  0  0  0  0
    3.3894   -1.7760    1.0711 C   0  0  2  0  0  0  0  0  0  0  0  0
    3.8947   -0.2794    0.8552 C   0  0  1  0  0  0  0  0  0  0  0  0
    5.3388   -0.1540    1.1302 C   0  0  0  0  0  0  0  0  0  0  0  0
    6.5103   -0.0736    1.4258 C   0  0  0  0  0  0  0  0  0  0  0  0
    7.9878   -0.0863    1.5912 C   0  0  2  0  0  0  0  0  0  0  0  0
    8.6460    0.8449    0.5069 C   0  0  2  0  0  0  0  0  0  0  0  0
   10.2076    0.8237    0.5814 C   0  0  0  0  0  0  0  0  0  0  0  0
   10.7922    1.6467   -0.3915 O   0  0  0  0  0  0  0  0  0  0  0  0
    8.1338    2.3037    0.7538 C   0  0  0  0  0  0  0  0  0  0  0  0
    8.6395    3.3331   -0.2257 C   0  0  0  0  0  0  0  0  0  0  0  0
    9.4658    4.3830    0.2170 C   0  0  0  0  0  0  0  0  0  0  0  0
    9.9379    5.3380   -0.6866 C   0  0  0  0  0  0  0  0  0  0  0  0
    9.5844    5.2586   -2.0356 C   0  0  0  0  0  0  0  0  0  0  0  0
    8.7598    4.2220   -2.4831 C   0  0  0  0  0  0  0  0  0  0  0  0
    8.2890    3.2600   -1.5832 C   0  0  0  0  0  0  0  0  0  0  0  0
    8.4882   -1.5875    1.6200 C   0  0  0  0  0  0  0  0  0  0  0  0
    7.5300   -2.6422    1.0018 C   0  0  1  0  0  0  0  0  0  0  0  0
    8.2195   -3.8201    0.6603 O   0  0  0  0  0  0  0  0  0  0  0  0
    6.3914   -2.9893    2.0080 C   0  0  0  0  0  0  0  0  0  0  0  0
    5.2158   -3.7503    1.4121 C   0  0  0  0  0  0  0  0  0  0  0  0
    4.2367   -2.9931    0.4719 C   0  0  2  0  0  0  0  0  0  0  0  0
    4.7664   -2.7583   -0.8084 O   0  0  0  0  0  0  0  0  0  0  0  0
    3.5249    0.2098   -0.5321 C   0  0  0  0  0  0  0  0  0  0  0  0
    2.2271    0.4669   -0.8873 C   0  0  0  0  0  0  0  0  0  0  0  0
    4.3558   -0.2664   -4.5692 H   0  0  0  0  0  0  0  0  0  0  0  0
    2.8211   -1.1330   -4.2066 H   0  0  0  0  0  0  0  0  0  0  0  0
    4.0787   -0.9704   -2.9481 H   0  0  0  0  0  0  0  0  0  0  0  0
    2.4962    1.2714   -4.3444 H   0  0  0  0  0  0  0  0  0  0  0  0
    3.6897    1.6313   -3.0585 H   0  0  0  0  0  0  0  0  0  0  0  0
    1.1599   -0.1007   -2.6955 H   0  0  0  0  0  0  0  0  0  0  0  0
    0.6049    2.2570   -3.3846 H   0  0  0  0  0  0  0  0  0  0  0  0
    1.4462    2.8144   -1.8946 H   0  0  0  0  0  0  0  0  0  0  0  0
   -1.7217    2.3947   -3.0369 H   0  0  0  0  0  0  0  0  0  0  0  0
   -4.1185    2.3237   -2.6882 H   0  0  0  0  0  0  0  0  0  0  0  0
   -4.7477   -0.1648   -0.6042 H   0  0  0  0  0  0  0  0  0  0  0  0
   -5.9192    2.0553    0.0687 H   0  0  0  0  0  0  0  0  0  0  0  0
   -5.9803    1.4733    1.7265 H   0  0  0  0  0  0  0  0  0  0  0  0
   -7.5134   -0.4236    0.8194 H   0  0  0  0  0  0  0  0  0  0  0  0
   -6.8383   -0.2755   -1.5321 H   0  0  0  0  0  0  0  0  0  0  0  0
   -7.6586    1.3036   -1.6654 H   0  0  0  0  0  0  0  0  0  0  0  0
   -9.9723   -0.8384    0.4336 H   0  0  0  0  0  0  0  0  0  0  0  0
  -11.7756   -2.0104   -1.1021 H   0  0  0  0  0  0  0  0  0  0  0  0
  -10.9460   -1.7644   -3.6156 H   0  0  0  0  0  0  0  0  0  0  0  0
   -8.7159   -0.4871   -3.6199 H   0  0  0  0  0  0  0  0  0  0  0  0
   -9.3685    2.3073   -0.6246 H   0  0  0  0  0  0  0  0  0  0  0  0
  -11.2229    3.3598    0.5447 H   0  0  0  0  0  0  0  0  0  0  0  0
  -11.0103    2.0686    4.9444 H   0  0  0  0  0  0  0  0  0  0  0  0
   -9.6129    1.0191    5.1708 H   0  0  0  0  0  0  0  0  0  0  0  0
   -7.4704    0.8619    4.2526 H   0  0  0  0  0  0  0  0  0  0  0  0
   -6.9532   -0.0071    2.8835 H   0  0  0  0  0  0  0  0  0  0  0  0
   -6.6785   -4.0595    1.9298 H   0  0  0  0  0  0  0  0  0  0  0  0
   -6.0174   -2.9131    3.0818 H   0  0  0  0  0  0  0  0  0  0  0  0
   -6.4939   -2.0513    0.1477 H   0  0  0  0  0  0  0  0  0  0  0  0
   -5.5903   -4.2584   -0.1437 H   0  0  0  0  0  0  0  0  0  0  0  0
   -4.1720   -3.8620    0.8512 H   0  0  0  0  0  0  0  0  0  0  0  0
   -4.9850   -2.7604   -1.6470 H   0  0  0  0  0  0  0  0  0  0  0  0
   -5.1745   -0.7512    2.3568 H   0  0  0  0  0  0  0  0  0  0  0  0
   -3.0383   -1.6011    0.8041 H   0  0  0  0  0  0  0  0  0  0  0  0
   -1.3076    0.4367    1.4914 H   0  0  0  0  0  0  0  0  0  0  0  0
    1.4665    1.2327    0.9776 H   0  0  0  0  0  0  0  0  0  0  0  0
   -0.0527   -1.3095    0.6437 H   0  0  0  0  0  0  0  0  0  0  0  0
    0.8616   -0.6945    2.0445 H   0  0  0  0  0  0  0  0  0  0  0  0
    1.5576   -2.8875    1.1958 H   0  0  0  0  0  0  0  0  0  0  0  0
    2.4827   -2.0273   -1.2821 H   0  0  0  0  0  0  0  0  0  0  0  0
    3.3811   -1.9145    2.1759 H   0  0  0  0  0  0  0  0  0  0  0  0
    3.4107    0.3941    1.5904 H   0  0  0  0  0  0  0  0  0  0  0  0
    8.2594    0.3519    2.5767 H   0  0  0  0  0  0  0  0  0  0  0  0
    8.3400    0.4923   -0.5030 H   0  0  0  0  0  0  0  0  0  0  0  0
   10.6445   -0.1815    0.4423 H   0  0  0  0  0  0  0  0  0  0  0  0
   10.5384    1.1713    1.5829 H   0  0  0  0  0  0  0  0  0  0  0  0
   10.6493    1.1995   -1.2669 H   0  0  0  0  0  0  0  0  0  0  0  0
    8.4371    2.5971    1.7840 H   0  0  0  0  0  0  0  0  0  0  0  0
    7.0253    2.3455    0.7161 H   0  0  0  0  0  0  0  0  0  0  0  0
    9.7515    4.4589    1.2592 H   0  0  0  0  0  0  0  0  0  0  0  0
   10.5779    6.1396   -0.3400 H   0  0  0  0  0  0  0  0  0  0  0  0
    9.9494    6.0010   -2.7332 H   0  0  0  0  0  0  0  0  0  0  0  0
    8.4852    4.1644   -3.5279 H   0  0  0  0  0  0  0  0  0  0  0  0
    7.6500    2.4627   -1.9411 H   0  0  0  0  0  0  0  0  0  0  0  0
    8.6673   -1.8974    2.6739 H   0  0  0  0  0  0  0  0  0  0  0  0
    9.4682   -1.6888    1.1372 H   0  0  0  0  0  0  0  0  0  0  0  0
    7.1715   -2.2064    0.0544 H   0  0  0  0  0  0  0  0  0  0  0  0
    8.7038   -4.1351    1.4679 H   0  0  0  0  0  0  0  0  0  0  0  0
    5.9683   -2.1370    2.5595 H   0  0  0  0  0  0  0  0  0  0  0  0
    6.8466   -3.6150    2.8071 H   0  0  0  0  0  0  0  0  0  0  0  0
    4.6062   -4.0985    2.2767 H   0  0  0  0  0  0  0  0  0  0  0  0
    5.5962   -4.6598    0.8967 H   0  0  0  0  0  0  0  0  0  0  0  0
    3.5068   -3.8204    0.3208 H   0  0  0  0  0  0  0  0  0  0  0  0
    5.2369   -1.8933   -0.7998 H   0  0  0  0  0  0  0  0  0  0  0  0
    4.3286    0.2759   -1.2489 H   0  0  0  0  0  0  0  0  0  0  0  0
  1  2  1  0  0  0  0
  1 66  1  0  0  0  0
  1 67  1  0  0  0  0
  1 68  1  0  0  0  0
  2 69  1  0  0  0  0
  2 70  1  0  0  0  0
  3  2  1  0  0  0  0
  3  4  1  0  0  0  0
  3 71  1  6  0  0  0
  4  5  1  0  0  0  0
  4 72  1  0  0  0  0
  4 73  1  0  0  0  0
  5  6  2  0  0  0  0
  6  7  1  0  0  0  0
  6 74  1  0  0  0  0
  7  8  1  0  0  0  0
  7  9  2  0  0  0  0
  8 75  1  0  0  0  0
  9 10  1  0  0  0  0
  9 36  1  0  0  0  0
 11 10  1  0  0  0  0
 11 12  1  0  0  0  0
 11 76  1  6  0  0  0
 12 13  1  0  0  0  0
 12 77  1  0  0  0  0
 12 78  1  0  0  0  0
 13 14  1  0  0  0  0
 13 20  1  0  0  0  0
 13 79  1  1  0  0  0
 14 15  1  0  0  0  0
 14 80  1  0  0  0  0
 14 81  1  0  0  0  0
 15 16  2  0  0  0  0
 16 17  1  0  0  0  0
 16 82  1  0  0  0  0
 17 18  2  0  0  0  0
 17 83  1  0  0  0  0
 18 19  1  0  0  0  0
 18 84  1  0  0  0  0
 19 15  1  0  0  0  0
 19 85  1  0  0  0  0
 20 21  2  0  0  0  0
 21 22  1  0  0  0  0
 21 86  1  0  0  0  0
 22 23  2  0  0  0  0
 22 87  1  0  0  0  0
 23 24  1  0  0  0  0
 24 25  1  0  0  0  0
 24 26  2  0  0  0  0
 25 88  1  0  0  0  0
 25 89  1  0  0  0  0
 26 27  1  0  0  0  0
 26 20  1  0  0  0  0
 27 28  1  0  0  0  0
 27 90  1  0  0  0  0
 27 91  1  0  0  0  0
 28 29  1  0  0  0  0
 29 30  1  0  0  0  0
 30 31  1  0  0  0  0
 30 92  1  0  0  0  0
 30 93  1  0  0  0  0
 31 32  1  0  0  0  0
 31 34  1  0  0  0  0
 31 94  1  6  0  0  0
 32 33  1  0  0  0  0
 32 95  1  0  0  0  0
 32 96  1  0  0  0  0
 33 97  1  0  0  0  0
 34 35  1  0  0  0  0
 34 11  1  0  0  0  0
 34 98  1  1  0  0  0
 35 99  1  0  0  0  0
 36 37  2  0  0  0  0
 36100  1  0  0  0  0
 37 38  1  0  0  0  0
 37  5  1  0  0  0  0
 38 39  1  0  0  0  0
 38101  1  1  0  0  0
 39 40  1  0  0  0  0
 39102  1  0  0  0  0
 39103  1  0  0  0  0
 40 41  1  0  0  0  0
 40104  1  1  0  0  0
 41105  1  0  0  0  0
 42 40  1  0  0  0  0
 42 43  1  0  0  0  0
 42106  1  1  0  0  0
 43 44  1  0  0  0  0
 43 64  1  0  0  0  0
 43107  1  1  0  0  0
 44 45  3  0  0  0  0
 46 45  1  0  0  0  0
 46 47  1  0  0  0  0
 46 57  1  0  0  0  0
 46108  1  1  0  0  0
 47 48  1  0  0  0  0
 47 50  1  0  0  0  0
 47109  1  6  0  0  0
 48 49  1  0  0  0  0
 48110  1  0  0  0  0
 48111  1  0  0  0  0
 49112  1  0  0  0  0
 50 51  1  0  0  0  0
 50113  1  0  0  0  0
 50114  1  0  0  0  0
 51 52  2  0  0  0  0
 52 53  1  0  0  0  0
 52115  1  0  0  0  0
 53 54  2  0  0  0  0
 53116  1  0  0  0  0
 54 55  1  0  0  0  0
 54117  1  0  0  0  0
 55 56  2  0  0  0  0
 55118  1  0  0  0  0
 56 51  1  0  0  0  0
 56119  1  0  0  0  0
 57 58  1  0  0  0  0
 57120  1  0  0  0  0
 57121  1  0  0  0  0
 58 59  1  0  0  0  0
 58 60  1  0  0  0  0
 58122  1  6  0  0  0
 59123  1  0  0  0  0
 60 61  1  0  0  0  0
 60124  1  0  0  0  0
 60125  1  0  0  0  0
 61 62  1  0  0  0  0
 61126  1  0  0  0  0
 61127  1  0  0  0  0
 62 63  1  0  0  0  0
 62 42  1  0  0  0  0
 62128  1  6  0  0  0
 63129  1  0  0  0  0
 64 65  2  0  0  0  0
 64130  1  0  0  0  0
 65  3  1  0  0  0  0
 65 38  1  0  0  0  0
M  END
>  <IDENTIFIER>
CNP0573909.1

>  <Energy>
1689.79

$$$$
