
 OpenBabel09072500053D

 84 89  0  0  0  0  0  0  0  0999 V2000
    9.2267    0.5409    0.1885 C   0  0  0  0  0  0  0  0  0  0  0  0
    8.0963   -0.0502    0.7866 O   0  0  0  0  0  0  0  0  0  0  0  0
    6.8999    0.4523    0.2130 C   0  0  2  0  0  0  0  0  0  0  0  0
    5.8982    0.7993    1.3302 C   0  0  0  0  0  0  0  0  0  0  0  0
    4.7047    1.4750    0.6692 C   0  0  0  0  0  0  0  0  0  0  0  0
    4.3769    2.5917    1.0465 O   0  0  0  0  0  0  0  0  0  0  0  0
    4.0007    0.8353   -0.5441 C   0  0  2  0  0  0  0  0  0  0  0  0
    4.3192    1.7576   -1.7502 C   0  0  0  0  0  0  0  0  0  0  0  0
    2.4217    0.7590   -0.2540 C   0  0  1  0  0  0  0  0  0  0  0  0
    1.4934    1.5930   -1.2007 C   0  0  0  0  0  0  0  0  0  0  0  0
    0.0486    1.6570   -0.6571 C   0  0  0  0  0  0  0  0  0  0  0  0
   -0.5455    0.2526   -0.4248 C   0  0  2  0  0  0  0  0  0  0  0  0
   -0.7927   -0.4697   -1.8033 C   0  0  0  0  0  0  0  0  0  0  0  0
   -1.7872    0.2501    0.5163 C   0  0  1  0  0  0  0  0  0  0  0  0
   -3.0614    1.1300    0.2210 C   0  0  2  0  0  0  0  0  0  0  0  0
   -4.0716    1.0053    1.3769 C   0  0  0  0  0  0  0  0  0  0  0  0
   -3.7315    1.0488   -1.1839 C   0  0  1  0  0  0  0  0  0  0  0  0
   -4.3753   -0.2835   -1.6010 C   0  0  0  0  0  0  0  0  0  0  0  0
   -5.7414   -0.4920   -0.9730 C   0  0  0  0  0  0  0  0  0  0  0  0
   -6.1858   -1.8948   -0.6511 C   0  0  0  0  0  0  0  0  0  0  0  0
   -6.5433    0.5933   -0.7872 C   0  0  0  0  0  0  0  0  0  0  0  0
   -7.9573    0.5058   -0.2470 C   0  0  0  0  0  0  0  0  0  0  0  0
   -8.8630    1.0166   -1.1906 O   0  0  0  0  0  0  0  0  0  0  0  0
   -5.9823    1.9373   -1.0995 C   0  0  0  0  0  0  0  0  0  0  0  0
   -6.6884    2.9328   -1.0744 O   0  0  0  0  0  0  0  0  0  0  0  0
   -4.6525    2.0778   -1.3346 O   0  0  0  0  0  0  0  0  0  0  0  0
   -1.8787   -1.2403    0.9760 C   0  0  2  0  0  0  0  0  0  0  0  0
   -2.2842   -1.3034    2.3015 O   0  0  0  0  0  0  0  0  0  0  0  0
   -3.3278   -2.0260    2.7843 C   0  0  0  0  0  0  0  0  0  0  0  0
   -3.6584   -1.9541    4.2412 C   0  0  0  0  0  0  0  0  0  0  0  0
   -4.0022   -2.7324    2.0494 O   0  0  0  0  0  0  0  0  0  0  0  0
   -0.4199   -1.7909    0.8408 C   0  0  0  0  0  0  0  0  0  0  0  0
    0.4134   -0.5552    0.4825 C   0  0  1  0  0  0  0  0  0  0  0  0
    1.8312   -0.6801   -0.1328 C   0  0  2  0  0  0  0  0  0  0  0  0
    2.7586   -1.5656    0.6821 C   0  0  0  0  0  0  0  0  0  0  0  0
    4.1202   -1.7167   -0.0062 C   0  0  1  0  0  0  0  0  0  0  0  0
    4.0632   -1.5849   -1.4256 O   0  0  0  0  0  0  0  0  0  0  0  0
    4.7201   -0.5547   -0.7248 C   0  0  1  0  0  0  0  0  0  0  0  0
    6.2874   -0.6177   -0.7342 C   0  0  1  0  0  0  0  0  0  0  0  0
    6.8572   -0.5538   -2.0188 O   0  0  0  0  0  0  0  0  0  0  0  0
   10.1314    0.0128    0.5539 H   0  0  0  0  0  0  0  0  0  0  0  0
    9.3134    1.6074    0.4906 H   0  0  0  0  0  0  0  0  0  0  0  0
    9.2118    0.4294   -0.9185 H   0  0  0  0  0  0  0  0  0  0  0  0
    7.0515    1.4162   -0.3345 H   0  0  0  0  0  0  0  0  0  0  0  0
    6.3564    1.4864    2.0739 H   0  0  0  0  0  0  0  0  0  0  0  0
    5.5882   -0.1280    1.8611 H   0  0  0  0  0  0  0  0  0  0  0  0
    3.9356    2.7859   -1.5899 H   0  0  0  0  0  0  0  0  0  0  0  0
    3.8960    1.3468   -2.6894 H   0  0  0  0  0  0  0  0  0  0  0  0
    5.4062    1.9049   -1.8853 H   0  0  0  0  0  0  0  0  0  0  0  0
    2.2920    1.2277    0.7477 H   0  0  0  0  0  0  0  0  0  0  0  0
    1.5127    1.1586   -2.2230 H   0  0  0  0  0  0  0  0  0  0  0  0
    1.8261    2.6460   -1.2696 H   0  0  0  0  0  0  0  0  0  0  0  0
   -0.6024    2.2439   -1.3410 H   0  0  0  0  0  0  0  0  0  0  0  0
    0.0914    2.1998    0.3123 H   0  0  0  0  0  0  0  0  0  0  0  0
   -1.4205    0.0976   -2.4977 H   0  0  0  0  0  0  0  0  0  0  0  0
   -1.2663   -1.4641   -1.6960 H   0  0  0  0  0  0  0  0  0  0  0  0
    0.1352   -0.6231   -2.3799 H   0  0  0  0  0  0  0  0  0  0  0  0
   -1.4234    0.7677    1.4402 H   0  0  0  0  0  0  0  0  0  0  0  0
   -2.6832    2.1780    0.2623 H   0  0  0  0  0  0  0  0  0  0  0  0
   -4.5302   -0.0019    1.3954 H   0  0  0  0  0  0  0  0  0  0  0  0
   -4.8749    1.7630    1.2910 H   0  0  0  0  0  0  0  0  0  0  0  0
   -3.5706    1.1850    2.3518 H   0  0  0  0  0  0  0  0  0  0  0  0
   -2.9401    1.2874   -1.9030 H   0  0  0  0  0  0  0  0  0  0  0  0
   -3.6998   -1.1595   -1.5002 H   0  0  0  0  0  0  0  0  0  0  0  0
   -4.5782   -0.1867   -2.6884 H   0  0  0  0  0  0  0  0  0  0  0  0
   -5.3999   -2.6362   -0.9054 H   0  0  0  0  0  0  0  0  0  0  0  0
   -7.0903   -2.1455   -1.2461 H   0  0  0  0  0  0  0  0  0  0  0  0
   -6.4121   -1.9840    0.4316 H   0  0  0  0  0  0  0  0  0  0  0  0
   -8.0106    1.0726    0.7111 H   0  0  0  0  0  0  0  0  0  0  0  0
   -8.2715   -0.5274   -0.0032 H   0  0  0  0  0  0  0  0  0  0  0  0
   -9.1227    1.9263   -0.8886 H   0  0  0  0  0  0  0  0  0  0  0  0
   -2.5313   -1.8433    0.3112 H   0  0  0  0  0  0  0  0  0  0  0  0
   -2.9544   -1.2713    4.7632 H   0  0  0  0  0  0  0  0  0  0  0  0
   -3.5809   -2.9644    4.6942 H   0  0  0  0  0  0  0  0  0  0  0  0
   -4.6920   -1.5715    4.3725 H   0  0  0  0  0  0  0  0  0  0  0  0
   -0.3816   -2.5039   -0.0084 H   0  0  0  0  0  0  0  0  0  0  0  0
   -0.0458   -2.3365    1.7348 H   0  0  0  0  0  0  0  0  0  0  0  0
    0.5579   -0.0187    1.4529 H   0  0  0  0  0  0  0  0  0  0  0  0
    1.7556   -1.1597   -1.1264 H   0  0  0  0  0  0  0  0  0  0  0  0
    2.3087   -2.5780    0.7581 H   0  0  0  0  0  0  0  0  0  0  0  0
    2.9044   -1.1669    1.7094 H   0  0  0  0  0  0  0  0  0  0  0  0
    4.7610   -2.5742    0.2866 H   0  0  0  0  0  0  0  0  0  0  0  0
    6.5810   -1.6105   -0.3331 H   0  0  0  0  0  0  0  0  0  0  0  0
    6.3534    0.1013   -2.5601 H   0  0  0  0  0  0  0  0  0  0  0  0
  1  2  1  0  0  0  0
  1 41  1  0  0  0  0
  1 42  1  0  0  0  0
  1 43  1  0  0  0  0
  3  2  1  0  0  0  0
  3  4  1  0  0  0  0
  3 44  1  6  0  0  0
  4  5  1  0  0  0  0
  4 45  1  0  0  0  0
  4 46  1  0  0  0  0
  5  6  2  0  0  0  0
  5  7  1  0  0  0  0
  7  8  1  6  0  0  0
  7  9  1  0  0  0  0
  8 47  1  0  0  0  0
  8 48  1  0  0  0  0
  8 49  1  0  0  0  0
  9 10  1  0  0  0  0
  9 50  1  1  0  0  0
 10 11  1  0  0  0  0
 10 51  1  0  0  0  0
 10 52  1  0  0  0  0
 11 12  1  0  0  0  0
 11 53  1  0  0  0  0
 11 54  1  0  0  0  0
 12 13  1  6  0  0  0
 12 14  1  0  0  0  0
 13 55  1  0  0  0  0
 13 56  1  0  0  0  0
 13 57  1  0  0  0  0
 14 15  1  0  0  0  0
 14 27  1  0  0  0  0
 14 58  1  1  0  0  0
 15 16  1  0  0  0  0
 15 17  1  0  0  0  0
 15 59  1  1  0  0  0
 16 60  1  0  0  0  0
 16 61  1  0  0  0  0
 16 62  1  0  0  0  0
 17 18  1  0  0  0  0
 17 63  1  6  0  0  0
 18 19  1  0  0  0  0
 18 64  1  0  0  0  0
 18 65  1  0  0  0  0
 19 20  1  0  0  0  0
 19 21  2  0  0  0  0
 20 66  1  0  0  0  0
 20 67  1  0  0  0  0
 20 68  1  0  0  0  0
 21 22  1  0  0  0  0
 21 24  1  0  0  0  0
 22 23  1  0  0  0  0
 22 69  1  0  0  0  0
 22 70  1  0  0  0  0
 23 71  1  0  0  0  0
 24 25  2  0  0  0  0
 24 26  1  0  0  0  0
 26 17  1  0  0  0  0
 27 28  1  0  0  0  0
 27 32  1  0  0  0  0
 27 72  1  6  0  0  0
 28 29  1  0  0  0  0
 29 30  1  0  0  0  0
 29 31  2  0  0  0  0
 30 73  1  0  0  0  0
 30 74  1  0  0  0  0
 30 75  1  0  0  0  0
 32 76  1  0  0  0  0
 32 77  1  0  0  0  0
 33 32  1  0  0  0  0
 33 34  1  0  0  0  0
 33 12  1  0  0  0  0
 33 78  1  1  0  0  0
 34 35  1  0  0  0  0
 34  9  1  0  0  0  0
 34 79  1  6  0  0  0
 35 80  1  0  0  0  0
 35 81  1  0  0  0  0
 36 35  1  0  0  0  0
 36 37  1  0  0  0  0
 36 82  1  1  0  0  0
 38 37  1  6  0  0  0
 38 39  1  0  0  0  0
 38  7  1  0  0  0  0
 38 36  1  0  0  0  0
 39 40  1  0  0  0  0
 39  3  1  0  0  0  0
 39 83  1  1  0  0  0
 40 84  1  0  0  0  0
M  END
>  <IDENTIFIER>
CNP0407541.1

>  <Energy>
2526.02

$$$$
