
 OpenBabel09092510443D

 52 56  0  0  0  0  0  0  0  0999 V2000
    5.9162   -0.1364    2.0942 O   0  0  0  0  0  0  0  0  0  0  0  0
    5.7525   -0.2348    0.8862 C   0  0  0  0  0  0  0  0  0  0  0  0
    4.5539    0.1025    0.3236 N   0  0  0  0  0  0  0  0  0  0  0  0
    3.4308    0.6120    1.1102 C   0  0  1  0  0  0  0  0  0  0  0  0
    3.0394    1.9882    0.6085 C   0  0  0  0  0  0  0  0  0  0  0  0
    2.2483    1.8038   -0.5504 O   0  0  0  0  0  0  0  0  0  0  0  0
    1.7730    0.4599   -0.5280 C   0  0  1  0  0  0  0  0  0  0  0  0
    2.1600   -0.1444    0.8141 C   0  0  2  0  0  0  0  0  0  0  0  0
    1.1403    0.1950    1.7487 O   0  0  0  0  0  0  0  0  0  0  0  0
    0.0933    0.8089    1.0224 C   0  0  0  0  0  0  0  0  0  0  0  0
    0.2693    0.4235   -0.4404 C   0  0  2  0  0  0  0  0  0  0  0  0
   -0.2589   -0.9122   -0.6965 N   0  0  0  0  0  0  0  0  0  0  0  0
   -1.6608   -1.1554   -0.6861 C   0  0  0  0  0  0  0  0  0  0  0  0
   -2.1498   -2.3736   -1.0347 N   0  0  0  0  0  0  0  0  0  0  0  0
   -3.4881   -2.6054   -1.0415 C   0  0  0  0  0  0  0  0  0  0  0  0
   -4.3833   -1.5935   -0.6844 C   0  0  0  0  0  0  0  0  0  0  0  0
   -3.8727   -0.3326   -0.3228 C   0  0  0  0  0  0  0  0  0  0  0  0
   -4.6983    0.8737    0.1250 C   0  0  0  0  0  0  0  0  0  0  0  0
   -5.6609    1.4715   -0.9038 C   0  0  0  0  0  0  0  0  0  0  0  0
   -6.8892    0.5772   -0.8324 C   0  0  0  0  0  0  0  0  0  0  0  0
   -6.9517    0.0969    0.6323 C   0  0  0  0  0  0  0  0  0  0  0  0
   -5.6524    0.5953    1.2832 C   0  0  0  0  0  0  0  0  0  0  0  0
   -2.5248   -0.1632   -0.3428 N   0  0  0  0  0  0  0  0  0  0  0  0
    6.8946   -0.6981    0.0639 C   0  0  0  0  0  0  0  0  0  0  0  0
    6.9266   -0.9015   -1.3150 C   0  0  0  0  0  0  0  0  0  0  0  0
    8.1759   -1.3326   -1.7805 C   0  0  0  0  0  0  0  0  0  0  0  0
    9.1285   -1.4684   -0.7806 C   0  0  0  0  0  0  0  0  0  0  0  0
    8.4193   -1.0572    0.6846 S   0  0  0  0  0  0  0  0  0  0  0  0
    4.4450    0.0347   -0.6976 H   0  0  0  0  0  0  0  0  0  0  0  0
    3.6832    0.6198    2.1926 H   0  0  0  0  0  0  0  0  0  0  0  0
    3.9327    2.6181    0.4108 H   0  0  0  0  0  0  0  0  0  0  0  0
    2.4142    2.5051    1.3684 H   0  0  0  0  0  0  0  0  0  0  0  0
    2.2028   -0.0639   -1.4098 H   0  0  0  0  0  0  0  0  0  0  0  0
    2.2562   -1.2524    0.8077 H   0  0  0  0  0  0  0  0  0  0  0  0
    0.2022    1.9092    1.1327 H   0  0  0  0  0  0  0  0  0  0  0  0
   -0.8989    0.5342    1.4315 H   0  0  0  0  0  0  0  0  0  0  0  0
   -0.2168    1.1237   -1.1552 H   0  0  0  0  0  0  0  0  0  0  0  0
    0.3744   -1.6804   -0.9688 H   0  0  0  0  0  0  0  0  0  0  0  0
   -3.8610   -3.5833   -1.3197 H   0  0  0  0  0  0  0  0  0  0  0  0
   -5.4304   -1.8282   -0.6856 H   0  0  0  0  0  0  0  0  0  0  0  0
   -3.9554    1.6514    0.4175 H   0  0  0  0  0  0  0  0  0  0  0  0
   -5.2439    1.6258   -1.9217 H   0  0  0  0  0  0  0  0  0  0  0  0
   -5.9721    2.4692   -0.5152 H   0  0  0  0  0  0  0  0  0  0  0  0
   -6.6907   -0.2935   -1.4857 H   0  0  0  0  0  0  0  0  0  0  0  0
   -7.8225    1.0481   -1.2078 H   0  0  0  0  0  0  0  0  0  0  0  0
   -7.0197   -1.0105    0.6391 H   0  0  0  0  0  0  0  0  0  0  0  0
   -7.8234    0.4979    1.1937 H   0  0  0  0  0  0  0  0  0  0  0  0
   -5.2645   -0.0099    2.1300 H   0  0  0  0  0  0  0  0  0  0  0  0
   -5.8967    1.5999    1.7021 H   0  0  0  0  0  0  0  0  0  0  0  0
    6.0878   -0.7491   -1.9784 H   0  0  0  0  0  0  0  0  0  0  0  0
    8.3804   -1.5390   -2.8224 H   0  0  0  0  0  0  0  0  0  0  0  0
   10.1529   -1.7848   -0.9225 H   0  0  0  0  0  0  0  0  0  0  0  0
  1  2  2  0  0  0  0
  2  3  1  0  0  0  0
  2 24  1  0  0  0  0
  3 29  1  0  0  0  0
  4  3  1  0  0  0  0
  4  5  1  0  0  0  0
  4 30  1  1  0  0  0
  5  6  1  0  0  0  0
  5 31  1  0  0  0  0
  5 32  1  0  0  0  0
  7  6  1  0  0  0  0
  7  8  1  0  0  0  0
  7 33  1  6  0  0  0
  8  9  1  0  0  0  0
  8  4  1  0  0  0  0
  8 34  1  6  0  0  0
  9 10  1  0  0  0  0
 10 11  1  0  0  0  0
 10 35  1  0  0  0  0
 10 36  1  0  0  0  0
 11 12  1  0  0  0  0
 11  7  1  0  0  0  0
 11 37  1  6  0  0  0
 12 13  1  0  0  0  0
 12 38  1  0  0  0  0
 13 14  2  0  0  0  0
 14 15  1  0  0  0  0
 15 16  2  0  0  0  0
 15 39  1  0  0  0  0
 16 17  1  0  0  0  0
 16 40  1  0  0  0  0
 17 18  1  0  0  0  0
 17 23  2  0  0  0  0
 18 19  1  0  0  0  0
 18 41  1  0  0  0  0
 19 20  1  0  0  0  0
 19 42  1  0  0  0  0
 19 43  1  0  0  0  0
 20 21  1  0  0  0  0
 20 44  1  0  0  0  0
 20 45  1  0  0  0  0
 21 22  1  0  0  0  0
 21 46  1  0  0  0  0
 21 47  1  0  0  0  0
 22 18  1  0  0  0  0
 22 48  1  0  0  0  0
 22 49  1  0  0  0  0
 23 13  1  0  0  0  0
 24 25  2  0  0  0  0
 25 26  1  0  0  0  0
 25 50  1  0  0  0  0
 26 27  2  0  0  0  0
 26 51  1  0  0  0  0
 27 28  1  0  0  0  0
 27 52  1  0  0  0  0
 28 24  1  0  0  0  0
M  END
>  <IDENTIFIER>
CNP0257407.1

>  <Energy>
743.736

$$$$
