
 OpenBabel09062507303D

 42 45  0  0  0  0  0  0  0  0999 V2000
    0.3334   -3.6951   -0.0285 C   0  0  0  0  0  0  0  0  0  0  0  0
    0.0789   -2.6450   -0.8854 O   0  0  0  0  0  0  0  0  0  0  0  0
   -0.8578   -1.7063   -0.6262 C   0  0  0  0  0  0  0  0  0  0  0  0
   -2.2490   -1.9784   -0.7851 C   0  0  0  0  0  0  0  0  0  0  0  0
   -2.6880   -3.1729   -1.2349 O   0  0  0  0  0  0  0  0  0  0  0  0
   -3.2049   -0.9815   -0.4813 C   0  0  0  0  0  0  0  0  0  0  0  0
   -2.7798    0.2666   -0.0058 C   0  0  0  0  0  0  0  0  0  0  0  0
   -3.6621    1.4235    0.3587 C   0  0  0  0  0  0  0  0  0  0  0  0
   -3.0743    2.6892   -0.3137 C   0  0  0  0  0  0  0  0  0  0  0  0
   -1.6401    2.9376    0.0284 N   0  0  0  0  0  0  0  0  0  0  0  0
   -0.9007    1.7834    0.5965 C   0  0  2  0  0  0  0  0  0  0  0  0
    0.5436    1.6958    0.0945 C   0  0  0  0  0  0  0  0  0  0  0  0
    0.8935    0.1711    0.0738 C   0  0  2  0  0  0  0  0  0  0  0  0
    1.4205   -0.3876    1.3934 C   0  0  0  0  0  0  0  0  0  0  0  0
    2.7074   -0.1886    1.7365 C   0  0  0  0  0  0  0  0  0  0  0  0
    3.5651    0.6857    0.8556 C   0  0  1  0  0  0  0  0  0  0  0  0
    4.9161    0.6786    1.2319 O   0  0  0  0  0  0  0  0  0  0  0  0
    3.3721    0.3982   -0.6585 C   0  0  0  0  0  0  0  0  0  0  0  0
    1.9648   -0.1697   -0.9977 C   0  0  0  0  0  0  0  0  0  0  0  0
   -0.4702   -0.4189   -0.2055 C   0  0  0  0  0  0  0  0  0  0  0  0
   -1.4313    0.5045    0.1053 C   0  0  0  0  0  0  0  0  0  0  0  0
    1.1268   -4.3354   -0.4649 H   0  0  0  0  0  0  0  0  0  0  0  0
   -0.5746   -4.3094    0.1379 H   0  0  0  0  0  0  0  0  0  0  0  0
    0.6914   -3.3071    0.9484 H   0  0  0  0  0  0  0  0  0  0  0  0
   -2.0949   -3.8839   -1.5110 H   0  0  0  0  0  0  0  0  0  0  0  0
   -4.2614   -1.1860   -0.6022 H   0  0  0  0  0  0  0  0  0  0  0  0
   -3.6194    1.5765    1.4591 H   0  0  0  0  0  0  0  0  0  0  0  0
   -4.7189    1.2421    0.0678 H   0  0  0  0  0  0  0  0  0  0  0  0
   -3.6878    3.5781   -0.0495 H   0  0  0  0  0  0  0  0  0  0  0  0
   -3.1455    2.5567   -1.4150 H   0  0  0  0  0  0  0  0  0  0  0  0
   -1.5536    3.7459    0.6875 H   0  0  0  0  0  0  0  0  0  0  0  0
   -0.9800    1.7638    1.7072 H   0  0  0  0  0  0  0  0  0  0  0  0
    1.2344    2.4073    0.5811 H   0  0  0  0  0  0  0  0  0  0  0  0
    0.4922    1.9994   -0.9783 H   0  0  0  0  0  0  0  0  0  0  0  0
    0.8099   -1.0477    2.0034 H   0  0  0  0  0  0  0  0  0  0  0  0
    3.1202   -0.6685    2.6187 H   0  0  0  0  0  0  0  0  0  0  0  0
    3.1866    1.7079    1.0353 H   0  0  0  0  0  0  0  0  0  0  0  0
    5.2403   -0.2535    1.1213 H   0  0  0  0  0  0  0  0  0  0  0  0
    4.1165   -0.3337   -1.0424 H   0  0  0  0  0  0  0  0  0  0  0  0
    3.5535    1.3575   -1.1904 H   0  0  0  0  0  0  0  0  0  0  0  0
    2.0762   -1.2745   -0.9722 H   0  0  0  0  0  0  0  0  0  0  0  0
    1.6702    0.0925   -2.0367 H   0  0  0  0  0  0  0  0  0  0  0  0
  1  2  1  0  0  0  0
  1 22  1  0  0  0  0
  1 23  1  0  0  0  0
  1 24  1  0  0  0  0
  2  3  1  0  0  0  0
  3  4  2  0  0  0  0
  4  5  1  0  0  0  0
  4  6  1  0  0  0  0
  5 25  1  0  0  0  0
  6  7  2  0  0  0  0
  6 26  1  0  0  0  0
  7  8  1  0  0  0  0
  8  9  1  0  0  0  0
  8 27  1  0  0  0  0
  8 28  1  0  0  0  0
  9 10  1  0  0  0  0
  9 29  1  0  0  0  0
  9 30  1  0  0  0  0
 10 11  1  0  0  0  0
 10 31  1  0  0  0  0
 11 12  1  0  0  0  0
 11 32  1  1  0  0  0
 12 33  1  0  0  0  0
 12 34  1  0  0  0  0
 13 12  1  0  0  0  0
 13 14  1  1  0  0  0
 13 20  1  0  0  0  0
 14 15  2  0  0  0  0
 14 35  1  0  0  0  0
 15 16  1  0  0  0  0
 15 36  1  0  0  0  0
 16 17  1  0  0  0  0
 16 18  1  0  0  0  0
 16 37  1  1  0  0  0
 17 38  1  0  0  0  0
 18 19  1  0  0  0  0
 18 39  1  0  0  0  0
 18 40  1  0  0  0  0
 19 13  1  0  0  0  0
 19 41  1  0  0  0  0
 19 42  1  0  0  0  0
 20 21  2  0  0  0  0
 20  3  1  0  0  0  0
 21  7  1  0  0  0  0
 21 11  1  0  0  0  0
M  END
>  <IDENTIFIER>
CNP0203233.1

>  <Energy>
617.978

$$$$
