
 OpenBabel09132501243D

 60 62  0  0  0  0  0  0  0  0999 V2000
    5.6922   -2.9858   -0.5004 C   0  0  0  0  0  0  0  0  0  0  0  0
    5.3776   -1.4967   -0.6633 C   0  0  0  0  0  0  0  0  0  0  0  0
    4.7839   -0.8395    0.6138 C   0  0  1  0  0  0  0  0  0  0  0  0
    5.7361   -0.9740    1.8204 C   0  0  0  0  0  0  0  0  0  0  0  0
    4.3638    0.6521    0.3833 C   0  0  2  0  0  0  0  0  0  0  0  0
    3.2774    0.7175   -0.5903 N   0  0  0  0  0  0  0  0  0  0  0  0
    2.0159    1.1417   -0.2895 C   0  0  0  0  0  0  0  0  0  0  0  0
    1.7320    1.4826    0.8506 O   0  0  0  0  0  0  0  0  0  0  0  0
    0.9502    1.1584   -1.3697 C   0  0  2  0  0  0  0  0  0  0  0  0
    1.3048    2.1591   -2.4724 C   0  0  0  0  0  0  0  0  0  0  0  0
   -0.3562    1.4972   -0.8107 N   0  0  0  0  0  0  0  0  0  0  0  0
   -1.4124    0.6344   -0.8352 C   0  0  0  0  0  0  0  0  0  0  0  0
   -1.2910   -0.4673   -1.3552 O   0  0  0  0  0  0  0  0  0  0  0  0
   -2.7552    1.0054   -0.2211 C   0  0  1  0  0  0  0  0  0  0  0  0
   -3.7135   -0.0522   -0.4133 N   0  0  0  0  0  0  0  0  0  0  0  0
   -4.5200   -0.2376   -1.4817 C   0  0  0  0  0  0  0  0  0  0  0  0
   -4.3963    0.3401   -2.5509 O   0  0  0  0  0  0  0  0  0  0  0  0
   -5.6100   -1.1120   -1.1052 C   0  0  0  0  0  0  0  0  0  0  0  0
   -6.6910   -1.6027   -1.8345 C   0  0  0  0  0  0  0  0  0  0  0  0
   -7.6112   -2.4314   -1.1686 C   0  0  0  0  0  0  0  0  0  0  0  0
   -7.4362   -2.7410    0.1974 C   0  0  0  0  0  0  0  0  0  0  0  0
   -6.3426   -2.2204    0.9115 C   0  0  0  0  0  0  0  0  0  0  0  0
   -5.4419   -1.4004    0.2340 C   0  0  0  0  0  0  0  0  0  0  0  0
   -4.1910   -0.7457    0.7406 C   0  0  2  0  0  0  0  0  0  0  0  0
   -4.3656    0.5590    1.9772 S   0  0  0  0  0  0  0  0  0  0  0  0
   -2.7731    1.2721    1.3329 C   0  0  0  0  0  0  0  0  0  0  0  0
   -1.6170    0.5872    2.0922 C   0  0  0  0  0  0  0  0  0  0  0  0
   -2.7520    2.7814    1.6310 C   0  0  0  0  0  0  0  0  0  0  0  0
    5.5173    1.5594   -0.0389 C   0  0  0  0  0  0  0  0  0  0  0  0
    6.4751    1.6976    0.7039 O   0  0  0  0  0  0  0  0  0  0  0  0
    5.5043    2.2592   -1.1974 O   0  0  0  0  0  0  0  0  0  0  0  0
    6.0547   -3.3936   -1.4678 H   0  0  0  0  0  0  0  0  0  0  0  0
    4.7792   -3.5436   -0.2014 H   0  0  0  0  0  0  0  0  0  0  0  0
    6.4916   -3.1532    0.2496 H   0  0  0  0  0  0  0  0  0  0  0  0
    4.6448   -1.4257   -1.4914 H   0  0  0  0  0  0  0  0  0  0  0  0
    6.3046   -0.9665   -0.9707 H   0  0  0  0  0  0  0  0  0  0  0  0
    3.8547   -1.3875    0.8887 H   0  0  0  0  0  0  0  0  0  0  0  0
    6.7295   -0.5288    1.6144 H   0  0  0  0  0  0  0  0  0  0  0  0
    5.8911   -2.0390    2.0862 H   0  0  0  0  0  0  0  0  0  0  0  0
    5.2942   -0.4854    2.7145 H   0  0  0  0  0  0  0  0  0  0  0  0
    4.0028    1.0389    1.3618 H   0  0  0  0  0  0  0  0  0  0  0  0
    3.4640    0.4108   -1.5561 H   0  0  0  0  0  0  0  0  0  0  0  0
    0.9312    0.1424   -1.8199 H   0  0  0  0  0  0  0  0  0  0  0  0
    1.3649    3.1880   -2.0571 H   0  0  0  0  0  0  0  0  0  0  0  0
    0.5250    2.1369   -3.2631 H   0  0  0  0  0  0  0  0  0  0  0  0
    2.2783    1.9050   -2.9417 H   0  0  0  0  0  0  0  0  0  0  0  0
   -0.4746    2.4233   -0.3754 H   0  0  0  0  0  0  0  0  0  0  0  0
   -3.1651    1.9018   -0.7395 H   0  0  0  0  0  0  0  0  0  0  0  0
   -6.8187   -1.3558   -2.8803 H   0  0  0  0  0  0  0  0  0  0  0  0
   -8.4590   -2.8347   -1.7066 H   0  0  0  0  0  0  0  0  0  0  0  0
   -8.1473   -3.3839    0.6992 H   0  0  0  0  0  0  0  0  0  0  0  0
   -6.1983   -2.4568    1.9577 H   0  0  0  0  0  0  0  0  0  0  0  0
   -3.4649   -1.5134    1.0805 H   0  0  0  0  0  0  0  0  0  0  0  0
   -1.7273    0.7483    3.1860 H   0  0  0  0  0  0  0  0  0  0  0  0
   -0.6409    1.0144    1.7915 H   0  0  0  0  0  0  0  0  0  0  0  0
   -1.5905   -0.5041    1.9021 H   0  0  0  0  0  0  0  0  0  0  0  0
   -2.8269    2.9606    2.7252 H   0  0  0  0  0  0  0  0  0  0  0  0
   -3.6161    3.2843    1.1452 H   0  0  0  0  0  0  0  0  0  0  0  0
   -1.8185    3.2532    1.2652 H   0  0  0  0  0  0  0  0  0  0  0  0
    4.7795    2.2362   -1.8348 H   0  0  0  0  0  0  0  0  0  0  0  0
  1  2  1  0  0  0  0
  1 32  1  0  0  0  0
  1 33  1  0  0  0  0
  1 34  1  0  0  0  0
  2  3  1  0  0  0  0
  2 35  1  0  0  0  0
  2 36  1  0  0  0  0
  3  4  1  0  0  0  0
  3  5  1  0  0  0  0
  3 37  1  1  0  0  0
  4 38  1  0  0  0  0
  4 39  1  0  0  0  0
  4 40  1  0  0  0  0
  5  6  1  0  0  0  0
  5 29  1  0  0  0  0
  5 41  1  1  0  0  0
  6  7  1  0  0  0  0
  6 42  1  0  0  0  0
  7  8  2  0  0  0  0
  7  9  1  0  0  0  0
  9 10  1  0  0  0  0
  9 11  1  0  0  0  0
  9 43  1  6  0  0  0
 10 44  1  0  0  0  0
 10 45  1  0  0  0  0
 10 46  1  0  0  0  0
 11 12  1  0  0  0  0
 11 47  1  0  0  0  0
 12 13  2  0  0  0  0
 14 12  1  0  0  0  0
 14 15  1  0  0  0  0
 14 48  1  6  0  0  0
 15 16  1  0  0  0  0
 16 17  2  0  0  0  0
 16 18  1  0  0  0  0
 18 19  2  0  0  0  0
 19 20  1  0  0  0  0
 19 49  1  0  0  0  0
 20 21  2  0  0  0  0
 20 50  1  0  0  0  0
 21 22  1  0  0  0  0
 21 51  1  0  0  0  0
 22 23  2  0  0  0  0
 22 52  1  0  0  0  0
 23 24  1  0  0  0  0
 23 18  1  0  0  0  0
 24 25  1  0  0  0  0
 24 15  1  0  0  0  0
 24 53  1  1  0  0  0
 25 26  1  0  0  0  0
 26 27  1  0  0  0  0
 26 28  1  0  0  0  0
 26 14  1  0  0  0  0
 27 54  1  0  0  0  0
 27 55  1  0  0  0  0
 27 56  1  0  0  0  0
 28 57  1  0  0  0  0
 28 58  1  0  0  0  0
 28 59  1  0  0  0  0
 29 30  2  0  0  0  0
 29 31  1  0  0  0  0
 31 60  1  0  0  0  0
M  END
>  <IDENTIFIER>
CNP0387979.4

>  <Energy>
495.902

$$$$
