
 OpenBabel09062509093D

 81 86  0  0  0  0  0  0  0  0999 V2000
    3.7273    0.9185   -2.4005 C   0  0  0  0  0  0  0  0  0  0  0  0
    4.2660    0.2540   -1.1241 C   0  0  1  0  0  0  0  0  0  0  0  0
    5.7042    0.8285   -0.7946 C   0  0  2  0  0  0  0  0  0  0  0  0
    6.7719    0.0095   -1.5385 C   0  0  0  0  0  0  0  0  0  0  0  0
    6.0128    0.9369    0.7420 C   0  0  0  0  0  0  0  0  0  0  0  0
    5.4214   -0.2409    1.5088 C   0  0  0  0  0  0  0  0  0  0  0  0
    3.8713   -0.3092    1.3335 C   0  0  1  0  0  0  0  0  0  0  0  0
    3.4492   -1.8199    1.2917 C   0  0  0  0  0  0  0  0  0  0  0  0
    1.9152   -2.0226    1.2575 C   0  0  0  0  0  0  0  0  0  0  0  0
    1.1941   -1.1338    0.1774 C   0  0  2  0  0  0  0  0  0  0  0  0
    1.5845   -1.7594   -1.1980 C   0  0  0  0  0  0  0  0  0  0  0  0
    1.8205    0.3305    0.3411 C   0  0  1  0  0  0  0  0  0  0  0  0
    1.0081    1.2948   -0.4930 C   0  0  0  0  0  0  0  0  0  0  0  0
   -0.3255    1.3201   -0.3602 C   0  0  0  0  0  0  0  0  0  0  0  0
   -0.9807    0.3976    0.6645 C   0  0  1  0  0  0  0  0  0  0  0  0
   -2.5829    0.5800    0.8674 C   0  0  1  0  0  0  0  0  0  0  0  0
   -2.8264    0.4223    2.4117 C   0  0  0  0  0  0  0  0  0  0  0  0
   -3.0693    2.0127    0.5058 C   0  0  0  0  0  0  0  0  0  0  0  0
   -4.5815    2.2614    0.8037 C   0  0  1  0  0  0  0  0  0  0  0  0
   -5.0217    3.4150    0.1281 O   0  0  0  0  0  0  0  0  0  0  0  0
   -5.5234    1.0333    0.5406 C   0  0  2  0  0  0  0  0  0  0  0  0
   -5.9102    0.4474    1.7672 O   0  0  0  0  0  0  0  0  0  0  0  0
   -4.9176    0.0066   -0.4826 C   0  0  1  0  0  0  0  0  0  0  0  0
   -5.8239   -1.2606   -0.5800 C   0  0  0  0  0  0  0  0  0  0  0  0
   -4.9621    0.6509   -1.9233 C   0  0  0  0  0  0  0  0  0  0  0  0
   -6.2613    1.0700   -2.2659 O   0  0  0  0  0  0  0  0  0  0  0  0
   -3.4401   -0.4580   -0.0117 C   0  0  1  0  0  0  0  0  0  0  0  0
   -2.6096   -0.8930   -1.2337 C   0  0  0  0  0  0  0  0  0  0  0  0
   -1.2422   -1.5468   -0.9538 C   0  0  0  0  0  0  0  0  0  0  0  0
   -0.4712   -1.0769    0.3458 C   0  0  1  0  0  0  0  0  0  0  0  0
   -0.9121   -2.0660    1.4698 C   0  0  0  0  0  0  0  0  0  0  0  0
    1.7790    0.6850    1.6986 O   0  0  0  0  0  0  0  0  0  0  0  0
    2.9770    0.4111    2.2963 C   0  0  0  0  0  0  0  0  0  0  0  0
    3.3177    0.8946    3.3629 O   0  0  0  0  0  0  0  0  0  0  0  0
    3.3581    0.4793    0.1084 C   0  0  2  0  0  0  0  0  0  0  0  0
    4.4061    0.7300   -3.2565 H   0  0  0  0  0  0  0  0  0  0  0  0
    3.6419    2.0176   -2.2564 H   0  0  0  0  0  0  0  0  0  0  0  0
    2.7319    0.5213   -2.6687 H   0  0  0  0  0  0  0  0  0  0  0  0
    4.3591   -0.8305   -1.2919 H   0  0  0  0  0  0  0  0  0  0  0  0
    5.7943    1.8784   -1.1548 H   0  0  0  0  0  0  0  0  0  0  0  0
    6.7653   -1.0484   -1.2014 H   0  0  0  0  0  0  0  0  0  0  0  0
    7.7806    0.4357   -1.3570 H   0  0  0  0  0  0  0  0  0  0  0  0
    6.5840    0.0329   -2.6326 H   0  0  0  0  0  0  0  0  0  0  0  0
    5.5429    1.8512    1.1634 H   0  0  0  0  0  0  0  0  0  0  0  0
    7.1065    1.0400    0.9121 H   0  0  0  0  0  0  0  0  0  0  0  0
    5.6933   -0.2523    2.5858 H   0  0  0  0  0  0  0  0  0  0  0  0
    5.8974   -1.1360    1.0495 H   0  0  0  0  0  0  0  0  0  0  0  0
    3.8309   -2.3446    2.1956 H   0  0  0  0  0  0  0  0  0  0  0  0
    3.9262   -2.3139    0.4223 H   0  0  0  0  0  0  0  0  0  0  0  0
    1.5713   -1.7279    2.2678 H   0  0  0  0  0  0  0  0  0  0  0  0
    1.6847   -3.1030    1.1413 H   0  0  0  0  0  0  0  0  0  0  0  0
    2.6487   -1.9699   -1.3124 H   0  0  0  0  0  0  0  0  0  0  0  0
    1.3208   -1.1016   -2.0452 H   0  0  0  0  0  0  0  0  0  0  0  0
    1.1039   -2.7531   -1.3177 H   0  0  0  0  0  0  0  0  0  0  0  0
    1.4770    1.9499   -1.2177 H   0  0  0  0  0  0  0  0  0  0  0  0
   -0.8723    2.0040   -0.9893 H   0  0  0  0  0  0  0  0  0  0  0  0
   -0.5246    0.7384    1.6134 H   0  0  0  0  0  0  0  0  0  0  0  0
   -2.2099    1.1602    2.9703 H   0  0  0  0  0  0  0  0  0  0  0  0
   -2.5700   -0.5721    2.8038 H   0  0  0  0  0  0  0  0  0  0  0  0
   -3.8359    0.6261    2.7680 H   0  0  0  0  0  0  0  0  0  0  0  0
   -2.9218    2.1501   -0.5746 H   0  0  0  0  0  0  0  0  0  0  0  0
   -2.4667    2.8011    1.0083 H   0  0  0  0  0  0  0  0  0  0  0  0
   -4.6909    2.5072    1.8809 H   0  0  0  0  0  0  0  0  0  0  0  0
   -5.0031    3.2335   -0.8440 H   0  0  0  0  0  0  0  0  0  0  0  0
   -6.4891    1.4175    0.1458 H   0  0  0  0  0  0  0  0  0  0  0  0
   -5.4571   -0.4176    1.9043 H   0  0  0  0  0  0  0  0  0  0  0  0
   -6.8725   -0.9937   -0.8284 H   0  0  0  0  0  0  0  0  0  0  0  0
   -5.8585   -1.8393    0.3648 H   0  0  0  0  0  0  0  0  0  0  0  0
   -5.4457   -1.9605   -1.3544 H   0  0  0  0  0  0  0  0  0  0  0  0
   -4.6082   -0.0669   -2.6971 H   0  0  0  0  0  0  0  0  0  0  0  0
   -4.2961    1.5156   -2.0402 H   0  0  0  0  0  0  0  0  0  0  0  0
   -6.6982    0.3237   -2.7536 H   0  0  0  0  0  0  0  0  0  0  0  0
   -3.5868   -1.3519    0.6133 H   0  0  0  0  0  0  0  0  0  0  0  0
   -2.4109    0.0449   -1.7984 H   0  0  0  0  0  0  0  0  0  0  0  0
   -3.1627   -1.5792   -1.9068 H   0  0  0  0  0  0  0  0  0  0  0  0
   -0.7280   -1.2937   -1.8947 H   0  0  0  0  0  0  0  0  0  0  0  0
   -1.3223   -2.6552   -0.9539 H   0  0  0  0  0  0  0  0  0  0  0  0
   -0.5408   -3.0886    1.2530 H   0  0  0  0  0  0  0  0  0  0  0  0
   -1.9918   -2.2152    1.5580 H   0  0  0  0  0  0  0  0  0  0  0  0
   -0.5528   -1.7445    2.4666 H   0  0  0  0  0  0  0  0  0  0  0  0
    3.5116    1.5834    0.2578 H   0  0  0  0  0  0  0  0  0  0  0  0
  1 36  1  0  0  0  0
  1 37  1  0  0  0  0
  1 38  1  0  0  0  0
  2  1  1  0  0  0  0
  2  3  1  0  0  0  0
  2 39  1  6  0  0  0
  3  4  1  0  0  0  0
  3  5  1  0  0  0  0
  3 40  1  6  0  0  0
  4 41  1  0  0  0  0
  4 42  1  0  0  0  0
  4 43  1  0  0  0  0
  5  6  1  0  0  0  0
  5 44  1  0  0  0  0
  5 45  1  0  0  0  0
  6 46  1  0  0  0  0
  6 47  1  0  0  0  0
  7  6  1  0  0  0  0
  7  8  1  0  0  0  0
  7 33  1  1  0  0  0
  8  9  1  0  0  0  0
  8 48  1  0  0  0  0
  8 49  1  0  0  0  0
  9 10  1  0  0  0  0
  9 50  1  0  0  0  0
  9 51  1  0  0  0  0
 10 11  1  6  0  0  0
 10 12  1  0  0  0  0
 11 52  1  0  0  0  0
 11 53  1  0  0  0  0
 11 54  1  0  0  0  0
 12 13  1  6  0  0  0
 12 32  1  0  0  0  0
 12 35  1  0  0  0  0
 13 14  2  0  0  0  0
 13 55  1  0  0  0  0
 14 56  1  0  0  0  0
 15 14  1  0  0  0  0
 15 16  1  0  0  0  0
 15 57  1  1  0  0  0
 16 17  1  1  0  0  0
 16 18  1  0  0  0  0
 17 58  1  0  0  0  0
 17 59  1  0  0  0  0
 17 60  1  0  0  0  0
 18 19  1  0  0  0  0
 18 61  1  0  0  0  0
 18 62  1  0  0  0  0
 19 20  1  0  0  0  0
 19 21  1  0  0  0  0
 19 63  1  1  0  0  0
 20 64  1  0  0  0  0
 21 22  1  0  0  0  0
 21 23  1  0  0  0  0
 21 65  1  6  0  0  0
 22 66  1  0  0  0  0
 23 24  1  6  0  0  0
 23 25  1  0  0  0  0
 23 27  1  0  0  0  0
 24 67  1  0  0  0  0
 24 68  1  0  0  0  0
 24 69  1  0  0  0  0
 25 26  1  0  0  0  0
 25 70  1  0  0  0  0
 25 71  1  0  0  0  0
 26 72  1  0  0  0  0
 27 28  1  0  0  0  0
 27 16  1  0  0  0  0
 27 73  1  1  0  0  0
 28 29  1  0  0  0  0
 28 74  1  0  0  0  0
 28 75  1  0  0  0  0
 29 30  1  0  0  0  0
 29 76  1  0  0  0  0
 29 77  1  0  0  0  0
 30 31  1  1  0  0  0
 30 10  1  0  0  0  0
 30 15  1  0  0  0  0
 31 78  1  0  0  0  0
 31 79  1  0  0  0  0
 31 80  1  0  0  0  0
 32 33  1  0  0  0  0
 33 34  2  0  0  0  0
 35  2  1  0  0  0  0
 35  7  1  0  0  0  0
 35 81  1  1  0  0  0
M  END
>  <IDENTIFIER>
CNP0252641.1

>  <Energy>
1539.32

$$$$
