
 OpenBabel09092509513D

 32 32  0  0  0  0  0  0  0  0999 V2000
   -2.9292    2.0714   -0.0301 C   0  0  0  0  0  0  0  0  0  0  0  0
   -3.1598    0.7299    0.6683 C   0  0  0  0  0  0  0  0  0  0  0  0
   -2.6026   -0.4542   -0.1493 C   0  0  2  0  0  0  0  0  0  0  0  0
   -2.9621   -1.7880    0.5168 C   0  0  0  0  0  0  0  0  0  0  0  0
   -1.0989   -0.3486   -0.3340 C   0  0  0  0  0  0  0  0  0  0  0  0
   -0.5574   -0.1979   -1.6166 C   0  0  0  0  0  0  0  0  0  0  0  0
    0.7867   -0.0968   -1.7736 N   0  0  0  0  0  0  0  0  0  0  0  0
    1.6457   -0.1431   -0.7201 C   0  0  0  0  0  0  0  0  0  0  0  0
    3.1324   -0.0292   -1.0056 C   0  0  0  0  0  0  0  0  0  0  0  0
    3.8731   -1.3160   -0.6235 C   0  0  0  0  0  0  0  0  0  0  0  0
    3.7519    1.1934   -0.3145 C   0  0  0  0  0  0  0  0  0  0  0  0
    1.1089   -0.2965    0.5760 C   0  0  0  0  0  0  0  0  0  0  0  0
    1.8320   -0.3481    1.5554 O   0  0  0  0  0  0  0  0  0  0  0  0
   -0.2532   -0.3893    0.7355 N   0  0  0  0  0  0  0  0  0  0  0  0
   -3.3722    2.8883    0.5770 H   0  0  0  0  0  0  0  0  0  0  0  0
   -3.4128    2.0706   -1.0305 H   0  0  0  0  0  0  0  0  0  0  0  0
   -1.8441    2.2732   -0.1511 H   0  0  0  0  0  0  0  0  0  0  0  0
   -4.2568    0.5980    0.7944 H   0  0  0  0  0  0  0  0  0  0  0  0
   -2.6977    0.7577    1.6789 H   0  0  0  0  0  0  0  0  0  0  0  0
   -3.1036   -0.4407   -1.1439 H   0  0  0  0  0  0  0  0  0  0  0  0
   -2.5261   -1.8625    1.5356 H   0  0  0  0  0  0  0  0  0  0  0  0
   -2.5860   -2.6347   -0.0961 H   0  0  0  0  0  0  0  0  0  0  0  0
   -4.0655   -1.8860    0.6038 H   0  0  0  0  0  0  0  0  0  0  0  0
   -1.1961   -0.1570   -2.4891 H   0  0  0  0  0  0  0  0  0  0  0  0
    3.2645    0.1099   -2.1024 H   0  0  0  0  0  0  0  0  0  0  0  0
    3.8093   -1.5172    0.4655 H   0  0  0  0  0  0  0  0  0  0  0  0
    4.9455   -1.2337   -0.9021 H   0  0  0  0  0  0  0  0  0  0  0  0
    3.4386   -2.1785   -1.1735 H   0  0  0  0  0  0  0  0  0  0  0  0
    3.6981    1.1111    0.7903 H   0  0  0  0  0  0  0  0  0  0  0  0
    3.2240    2.1179   -0.6309 H   0  0  0  0  0  0  0  0  0  0  0  0
    4.8214    1.2882   -0.5995 H   0  0  0  0  0  0  0  0  0  0  0  0
   -0.6383   -0.4979    1.7017 H   0  0  0  0  0  0  0  0  0  0  0  0
  1  2  1  0  0  0  0
  1 15  1  0  0  0  0
  1 16  1  0  0  0  0
  1 17  1  0  0  0  0
  2  3  1  0  0  0  0
  2 18  1  0  0  0  0
  2 19  1  0  0  0  0
  3  4  1  0  0  0  0
  3  5  1  0  0  0  0
  3 20  1  6  0  0  0
  4 21  1  0  0  0  0
  4 22  1  0  0  0  0
  4 23  1  0  0  0  0
  5  6  2  0  0  0  0
  6  7  1  0  0  0  0
  6 24  1  0  0  0  0
  7  8  2  0  0  0  0
  8  9  1  0  0  0  0
  8 12  1  0  0  0  0
  9 10  1  0  0  0  0
  9 11  1  0  0  0  0
  9 25  1  0  0  0  0
 10 26  1  0  0  0  0
 10 27  1  0  0  0  0
 10 28  1  0  0  0  0
 11 29  1  0  0  0  0
 11 30  1  0  0  0  0
 11 31  1  0  0  0  0
 12 13  2  0  0  0  0
 12 14  1  0  0  0  0
 14  5  1  0  0  0  0
 14 32  1  0  0  0  0
M  END
>  <IDENTIFIER>
CNP0428060.1

>  <Energy>
90.9907

$$$$
