
 OpenBabel09112510133D

 43 43  0  0  0  0  0  0  0  0999 V2000
   -4.0338    4.1304   -0.6693 C   0  0  0  0  0  0  0  0  0  0  0  0
   -4.0583    3.0389    0.1740 O   0  0  0  0  0  0  0  0  0  0  0  0
   -3.5497    1.8081   -0.1011 C   0  0  0  0  0  0  0  0  0  0  0  0
   -2.9550    1.5019   -1.3417 C   0  0  0  0  0  0  0  0  0  0  0  0
   -2.4496    0.2250   -1.5891 C   0  0  0  0  0  0  0  0  0  0  0  0
   -2.5086   -0.7649   -0.5996 C   0  0  0  0  0  0  0  0  0  0  0  0
   -1.9593   -2.1458   -0.8643 C   0  0  0  0  0  0  0  0  0  0  0  0
   -0.6984   -2.4370   -0.0348 C   0  0  0  0  0  0  0  0  0  0  0  0
    0.4039   -1.5837   -0.4515 N   0  0  0  0  0  0  0  0  0  0  0  0
    1.6546   -1.7007    0.0774 C   0  0  0  0  0  0  0  0  0  0  0  0
    1.8735   -2.5245    0.9550 O   0  0  0  0  0  0  0  0  0  0  0  0
    2.7688   -0.8513   -0.4302 C   0  0  0  0  0  0  0  0  0  0  0  0
    2.5381   -0.0291   -1.3064 O   0  0  0  0  0  0  0  0  0  0  0  0
    4.0365   -0.9986    0.0556 N   0  0  0  0  0  0  0  0  0  0  0  0
    5.1725   -0.2259   -0.4288 C   0  0  0  0  0  0  0  0  0  0  0  0
    5.7758    0.5828    0.7211 C   0  0  0  0  0  0  0  0  0  0  0  0
    6.2148   -1.1728   -1.0290 C   0  0  0  0  0  0  0  0  0  0  0  0
   -3.0990   -0.4657    0.6380 C   0  0  0  0  0  0  0  0  0  0  0  0
   -3.6314    0.8161    0.8906 C   0  0  0  0  0  0  0  0  0  0  0  0
   -4.2364    1.1311    2.0673 O   0  0  0  0  0  0  0  0  0  0  0  0
   -4.4864    0.2599    3.1074 C   0  0  0  0  0  0  0  0  0  0  0  0
   -4.5235    4.9886   -0.1651 H   0  0  0  0  0  0  0  0  0  0  0  0
   -4.5878    3.9065   -1.6056 H   0  0  0  0  0  0  0  0  0  0  0  0
   -2.9841    4.4093   -0.9030 H   0  0  0  0  0  0  0  0  0  0  0  0
   -2.8821    2.2436   -2.1254 H   0  0  0  0  0  0  0  0  0  0  0  0
   -2.0002    0.0132   -2.5513 H   0  0  0  0  0  0  0  0  0  0  0  0
   -1.6896   -2.2666   -1.9368 H   0  0  0  0  0  0  0  0  0  0  0  0
   -2.7523   -2.8905   -0.6367 H   0  0  0  0  0  0  0  0  0  0  0  0
   -0.4114   -3.4965   -0.2119 H   0  0  0  0  0  0  0  0  0  0  0  0
   -0.9030   -2.3041    1.0498 H   0  0  0  0  0  0  0  0  0  0  0  0
    0.2422   -0.8896   -1.1969 H   0  0  0  0  0  0  0  0  0  0  0  0
    4.2146   -1.6986    0.7926 H   0  0  0  0  0  0  0  0  0  0  0  0
    4.8666    0.4894   -1.2239 H   0  0  0  0  0  0  0  0  0  0  0  0
    6.1212   -0.0903    1.5348 H   0  0  0  0  0  0  0  0  0  0  0  0
    5.0142    1.2798    1.1304 H   0  0  0  0  0  0  0  0  0  0  0  0
    6.6393    1.1804    0.3576 H   0  0  0  0  0  0  0  0  0  0  0  0
    6.5728   -1.8969   -0.2658 H   0  0  0  0  0  0  0  0  0  0  0  0
    7.0834   -0.5967   -1.4138 H   0  0  0  0  0  0  0  0  0  0  0  0
    5.7669   -1.7378   -1.8742 H   0  0  0  0  0  0  0  0  0  0  0  0
   -3.1528   -1.2406    1.3914 H   0  0  0  0  0  0  0  0  0  0  0  0
   -5.0068    0.8066    3.9204 H   0  0  0  0  0  0  0  0  0  0  0  0
   -3.5350   -0.1499    3.5068 H   0  0  0  0  0  0  0  0  0  0  0  0
   -5.1447   -0.5666    2.7624 H   0  0  0  0  0  0  0  0  0  0  0  0
  1  2  1  0  0  0  0
  1 22  1  0  0  0  0
  1 23  1  0  0  0  0
  1 24  1  0  0  0  0
  2  3  1  0  0  0  0
  3  4  2  0  0  0  0
  4  5  1  0  0  0  0
  4 25  1  0  0  0  0
  5  6  2  0  0  0  0
  5 26  1  0  0  0  0
  6  7  1  0  0  0  0
  6 18  1  0  0  0  0
  7  8  1  0  0  0  0
  7 27  1  0  0  0  0
  7 28  1  0  0  0  0
  8  9  1  0  0  0  0
  8 29  1  0  0  0  0
  8 30  1  0  0  0  0
  9 10  1  0  0  0  0
  9 31  1  0  0  0  0
 10 11  2  0  0  0  0
 10 12  1  0  0  0  0
 12 13  2  0  0  0  0
 12 14  1  0  0  0  0
 14 15  1  0  0  0  0
 14 32  1  0  0  0  0
 15 16  1  0  0  0  0
 15 17  1  0  0  0  0
 15 33  1  0  0  0  0
 16 34  1  0  0  0  0
 16 35  1  0  0  0  0
 16 36  1  0  0  0  0
 17 37  1  0  0  0  0
 17 38  1  0  0  0  0
 17 39  1  0  0  0  0
 18 19  2  0  0  0  0
 18 40  1  0  0  0  0
 19 20  1  0  0  0  0
 19  3  1  0  0  0  0
 20 21  1  0  0  0  0
 21 41  1  0  0  0  0
 21 42  1  0  0  0  0
 21 43  1  0  0  0  0
M  END
>  <IDENTIFIER>
CNP0561886.0

>  <Energy>
148.104

$$$$
