
 OpenBabel09122515523D

 72 76  0  0  0  0  0  0  0  0999 V2000
    4.0618    0.1468   -3.1747 O   0  0  0  0  0  0  0  0  0  0  0  0
    3.0526    0.4691   -2.5696 C   0  0  0  0  0  0  0  0  0  0  0  0
    1.9021    0.7644   -3.2943 C   0  0  0  0  0  0  0  0  0  0  0  0
    0.7337    1.1463   -2.6158 C   0  0  0  0  0  0  0  0  0  0  0  0
   -0.5303    1.5104   -3.3285 C   0  0  0  0  0  0  0  0  0  0  0  0
   -1.6614    1.8668   -2.5705 C   0  0  0  0  0  0  0  0  0  0  0  0
   -2.8612    2.2270   -3.1896 C   0  0  0  0  0  0  0  0  0  0  0  0
   -2.9549    2.2428   -4.5861 C   0  0  0  0  0  0  0  0  0  0  0  0
   -4.1045    2.5913   -5.1987 O   0  0  0  0  0  0  0  0  0  0  0  0
   -1.8431    1.8941   -5.3546 C   0  0  0  0  0  0  0  0  0  0  0  0
   -0.6413    1.5309   -4.7381 C   0  0  0  0  0  0  0  0  0  0  0  0
    0.7527    1.2059   -1.2829 O   0  0  0  0  0  0  0  0  0  0  0  0
    1.8241    0.9391   -0.5349 C   0  0  0  0  0  0  0  0  0  0  0  0
    1.7486    1.0699    0.8797 C   0  0  0  0  0  0  0  0  0  0  0  0
    0.4308    1.5001    1.5312 C   0  0  1  0  0  0  0  0  0  0  0  0
   -0.0993    2.6207    0.8337 O   0  0  0  0  0  0  0  0  0  0  0  0
   -1.2375    3.1511    1.4997 C   0  0  1  0  0  0  0  0  0  0  0  0
   -1.7004    4.4056    0.7473 C   0  0  0  0  0  0  0  0  0  0  0  0
   -0.6667    5.3488    0.6794 O   0  0  0  0  0  0  0  0  0  0  0  0
   -2.3790    2.1017    1.5510 C   0  0  2  0  0  0  0  0  0  0  0  0
   -3.5132    2.6042    2.2141 O   0  0  0  0  0  0  0  0  0  0  0  0
   -1.8717    0.8218    2.2364 C   0  0  1  0  0  0  0  0  0  0  0  0
   -2.8618   -0.1754    2.2513 O   0  0  0  0  0  0  0  0  0  0  0  0
   -0.5808    0.3296    1.5519 C   0  0  2  0  0  0  0  0  0  0  0  0
   -0.0315   -0.7269    2.3234 O   0  0  0  0  0  0  0  0  0  0  0  0
   -0.2659   -1.9987    1.7523 C   0  0  1  0  0  0  0  0  0  0  0  0
    0.7302   -2.2873    0.7912 O   0  0  0  0  0  0  0  0  0  0  0  0
    0.3822   -3.4480    0.0263 C   0  0  1  0  0  0  0  0  0  0  0  0
    1.6245   -3.9014   -0.7673 C   0  0  0  0  0  0  0  0  0  0  0  0
    2.6844   -4.2885    0.0617 O   0  0  0  0  0  0  0  0  0  0  0  0
   -0.2364   -4.6235    0.8983 C   0  0  2  0  0  0  0  0  0  0  0  0
   -1.6488   -4.6599    0.8693 O   0  0  0  0  0  0  0  0  0  0  0  0
    0.2027   -4.4560    2.3651 C   0  0  1  0  0  0  0  0  0  0  0  0
    1.5974   -4.6418    2.4651 O   0  0  0  0  0  0  0  0  0  0  0  0
   -0.2364   -3.0518    2.8933 C   0  0  2  0  0  0  0  0  0  0  0  0
   -1.4805   -3.0863    3.5502 O   0  0  0  0  0  0  0  0  0  0  0  0
    2.9195    0.8038    1.6487 C   0  0  0  0  0  0  0  0  0  0  0  0
    2.9652    0.8758    2.9998 O   0  0  0  0  0  0  0  0  0  0  0  0
    4.1012    0.4252    1.0119 C   0  0  0  0  0  0  0  0  0  0  0  0
    4.1769    0.2987   -0.3752 C   0  0  0  0  0  0  0  0  0  0  0  0
    5.3457   -0.0653   -0.9447 O   0  0  0  0  0  0  0  0  0  0  0  0
    3.0367    0.5591   -1.1627 C   0  0  0  0  0  0  0  0  0  0  0  0
    1.9486    0.6979   -4.3704 H   0  0  0  0  0  0  0  0  0  0  0  0
   -1.6194    1.8677   -1.4929 H   0  0  0  0  0  0  0  0  0  0  0  0
   -3.7155    2.4971   -2.5818 H   0  0  0  0  0  0  0  0  0  0  0  0
   -4.8970    2.8400   -4.7020 H   0  0  0  0  0  0  0  0  0  0  0  0
   -1.9078    1.9061   -6.4356 H   0  0  0  0  0  0  0  0  0  0  0  0
    0.1824    1.2770   -5.3846 H   0  0  0  0  0  0  0  0  0  0  0  0
    0.6135    1.7980    2.5795 H   0  0  0  0  0  0  0  0  0  0  0  0
   -0.9599    3.4680    2.5331 H   0  0  0  0  0  0  0  0  0  0  0  0
   -2.5969    4.8569    1.2322 H   0  0  0  0  0  0  0  0  0  0  0  0
   -1.9953    4.1363   -0.2904 H   0  0  0  0  0  0  0  0  0  0  0  0
   -0.6374    5.8019    1.5625 H   0  0  0  0  0  0  0  0  0  0  0  0
   -2.6755    1.8472    0.5123 H   0  0  0  0  0  0  0  0  0  0  0  0
   -3.2375    2.8506    3.1361 H   0  0  0  0  0  0  0  0  0  0  0  0
   -1.6249    1.0713    3.2932 H   0  0  0  0  0  0  0  0  0  0  0  0
   -3.0961   -0.3784    1.3081 H   0  0  0  0  0  0  0  0  0  0  0  0
   -0.7918    0.0423    0.4931 H   0  0  0  0  0  0  0  0  0  0  0  0
   -1.2681   -2.0367    1.2611 H   0  0  0  0  0  0  0  0  0  0  0  0
   -0.3278   -3.1658   -0.7829 H   0  0  0  0  0  0  0  0  0  0  0  0
    1.9535   -3.0836   -1.4507 H   0  0  0  0  0  0  0  0  0  0  0  0
    1.3589   -4.7596   -1.4213 H   0  0  0  0  0  0  0  0  0  0  0  0
    3.1993   -3.4659    0.2712 H   0  0  0  0  0  0  0  0  0  0  0  0
    0.0940   -5.6048    0.4923 H   0  0  0  0  0  0  0  0  0  0  0  0
   -2.0127   -3.9470    0.2881 H   0  0  0  0  0  0  0  0  0  0  0  0
   -0.2455   -5.2369    3.0180 H   0  0  0  0  0  0  0  0  0  0  0  0
    2.0590   -3.7643    2.4382 H   0  0  0  0  0  0  0  0  0  0  0  0
    0.5090   -2.7673    3.6690 H   0  0  0  0  0  0  0  0  0  0  0  0
   -2.1610   -3.4217    2.9136 H   0  0  0  0  0  0  0  0  0  0  0  0
    2.2289    1.0629    3.5907 H   0  0  0  0  0  0  0  0  0  0  0  0
    4.9812    0.2226    1.6116 H   0  0  0  0  0  0  0  0  0  0  0  0
    6.1444   -0.2439   -0.4272 H   0  0  0  0  0  0  0  0  0  0  0  0
  1  2  2  0  0  0  0
  2  3  1  0  0  0  0
  3  4  2  0  0  0  0
  3 43  1  0  0  0  0
  4  5  1  0  0  0  0
  4 12  1  0  0  0  0
  5  6  2  0  0  0  0
  6  7  1  0  0  0  0
  6 44  1  0  0  0  0
  7  8  2  0  0  0  0
  7 45  1  0  0  0  0
  8  9  1  0  0  0  0
  8 10  1  0  0  0  0
  9 46  1  0  0  0  0
 10 11  2  0  0  0  0
 10 47  1  0  0  0  0
 11  5  1  0  0  0  0
 11 48  1  0  0  0  0
 12 13  1  0  0  0  0
 13 14  2  0  0  0  0
 14 37  1  0  0  0  0
 15 14  1  0  0  0  0
 15 16  1  0  0  0  0
 15 49  1  1  0  0  0
 16 17  1  0  0  0  0
 17 18  1  0  0  0  0
 17 20  1  0  0  0  0
 17 50  1  1  0  0  0
 18 19  1  0  0  0  0
 18 51  1  0  0  0  0
 18 52  1  0  0  0  0
 19 53  1  0  0  0  0
 20 21  1  0  0  0  0
 20 22  1  0  0  0  0
 20 54  1  6  0  0  0
 21 55  1  0  0  0  0
 22 23  1  0  0  0  0
 22 24  1  0  0  0  0
 22 56  1  1  0  0  0
 23 57  1  0  0  0  0
 24 25  1  0  0  0  0
 24 15  1  0  0  0  0
 24 58  1  6  0  0  0
 26 25  1  0  0  0  0
 26 27  1  0  0  0  0
 26 59  1  6  0  0  0
 27 28  1  0  0  0  0
 28 29  1  0  0  0  0
 28 31  1  0  0  0  0
 28 60  1  6  0  0  0
 29 30  1  0  0  0  0
 29 61  1  0  0  0  0
 29 62  1  0  0  0  0
 30 63  1  0  0  0  0
 31 32  1  0  0  0  0
 31 33  1  0  0  0  0
 31 64  1  6  0  0  0
 32 65  1  0  0  0  0
 33 34  1  0  0  0  0
 33 35  1  0  0  0  0
 33 66  1  1  0  0  0
 34 67  1  0  0  0  0
 35 36  1  0  0  0  0
 35 26  1  0  0  0  0
 35 68  1  1  0  0  0
 36 69  1  0  0  0  0
 37 38  1  0  0  0  0
 37 39  2  0  0  0  0
 38 70  1  0  0  0  0
 39 40  1  0  0  0  0
 39 71  1  0  0  0  0
 40 41  1  0  0  0  0
 40 42  2  0  0  0  0
 41 72  1  0  0  0  0
 42  2  1  0  0  0  0
 42 13  1  0  0  0  0
M  END
>  <IDENTIFIER>
CNP0177349.10

>  <Energy>
762.488

$$$$
