
 OpenBabel09062501033D

 23 24  0  0  0  0  0  0  0  0999 V2000
   -3.0228    0.2652   -0.1083 C   0  0  0  0  0  0  0  0  0  0  0  0
   -1.6744    0.2535    0.6090 C   0  0  2  0  0  0  0  0  0  0  0  0
   -0.7629    1.2778    0.0873 C   0  0  0  0  0  0  0  0  0  0  0  0
   -0.8342    2.4958    0.1220 O   0  0  0  0  0  0  0  0  0  0  0  0
    0.2048    0.4050   -0.5796 C   0  0  2  0  0  0  0  0  0  0  0  0
   -0.6344   -0.7621    0.0272 C   0  0  1  0  0  0  0  0  0  0  0  0
    0.3305   -1.3407    1.0700 C   0  0  0  0  0  0  0  0  0  0  0  0
    1.6792   -1.0167    0.4679 C   0  0  0  0  0  0  0  0  0  0  0  0
    1.5313    0.3807    0.0518 N   0  0  0  0  0  0  0  0  0  0  0  0
    2.5951    0.7982   -0.8673 C   0  0  0  0  0  0  0  0  0  0  0  0
   -3.5999    1.1645    0.1951 H   0  0  0  0  0  0  0  0  0  0  0  0
   -3.5980   -0.6403    0.1771 H   0  0  0  0  0  0  0  0  0  0  0  0
   -2.8944    0.2742   -1.2125 H   0  0  0  0  0  0  0  0  0  0  0  0
   -1.7608    0.2720    1.7167 H   0  0  0  0  0  0  0  0  0  0  0  0
    0.1732    0.4990   -1.6898 H   0  0  0  0  0  0  0  0  0  0  0  0
   -0.9318   -1.4620   -0.7858 H   0  0  0  0  0  0  0  0  0  0  0  0
    0.1548   -2.4109    1.3070 H   0  0  0  0  0  0  0  0  0  0  0  0
    0.2749   -0.7531    2.0146 H   0  0  0  0  0  0  0  0  0  0  0  0
    1.8507   -1.6761   -0.4169 H   0  0  0  0  0  0  0  0  0  0  0  0
    2.5078   -1.1528    1.1957 H   0  0  0  0  0  0  0  0  0  0  0  0
    3.5774    0.7469   -0.3509 H   0  0  0  0  0  0  0  0  0  0  0  0
    2.4277    1.8516   -1.1780 H   0  0  0  0  0  0  0  0  0  0  0  0
    2.6264    0.1541   -1.7739 H   0  0  0  0  0  0  0  0  0  0  0  0
  1 11  1  0  0  0  0
  1 12  1  0  0  0  0
  1 13  1  0  0  0  0
  2  1  1  0  0  0  0
  2  3  1  0  0  0  0
  2 14  1  1  0  0  0
  3  4  2  0  0  0  0
  3  5  1  0  0  0  0
  5  6  1  0  0  0  0
  5  9  1  0  0  0  0
  5 15  1  6  0  0  0
  6  7  1  0  0  0  0
  6  2  1  0  0  0  0
  6 16  1  6  0  0  0
  7  8  1  0  0  0  0
  7 17  1  0  0  0  0
  7 18  1  0  0  0  0
  8  9  1  0  0  0  0
  8 19  1  0  0  0  0
  8 20  1  0  0  0  0
  9 10  1  0  0  0  0
 10 21  1  0  0  0  0
 10 22  1  0  0  0  0
 10 23  1  0  0  0  0
M  END
>  <IDENTIFIER>
CNP0344754.0

>  <Energy>
685.364

$$$$
