
 OpenBabel09112518083D

 49 52  0  0  0  0  0  0  0  0999 V2000
    5.0702    3.2066    0.1254 C   0  0  0  0  0  0  0  0  0  0  0  0
    5.0177    1.8400   -0.0626 O   0  0  0  0  0  0  0  0  0  0  0  0
    3.8854    1.0954   -0.0911 C   0  0  0  0  0  0  0  0  0  0  0  0
    2.5942    1.6748    0.0473 C   0  0  0  0  0  0  0  0  0  0  0  0
    1.4417    0.8784    0.0177 C   0  0  0  0  0  0  0  0  0  0  0  0
    1.5869   -0.4983   -0.1422 C   0  0  0  0  0  0  0  0  0  0  0  0
    2.8241   -1.0655   -0.2752 C   0  0  0  0  0  0  0  0  0  0  0  0
    3.9962   -0.3053   -0.2623 C   0  0  0  0  0  0  0  0  0  0  0  0
    5.2064   -0.8912   -0.4012 O   0  0  0  0  0  0  0  0  0  0  0  0
    5.7755   -1.0887   -1.6401 C   0  0  0  0  0  0  0  0  0  0  0  0
    2.5909   -2.4839   -0.4083 C   0  0  0  0  0  0  0  0  0  0  0  0
    3.4498   -3.3411   -0.5424 O   0  0  0  0  0  0  0  0  0  0  0  0
    1.2673   -2.7501   -0.3517 O   0  0  0  0  0  0  0  0  0  0  0  0
    0.5360   -1.5742   -0.1995 C   0  0  1  0  0  0  0  0  0  0  0  0
   -0.2622   -1.6092    1.0226 N   0  0  0  0  0  0  0  0  0  0  0  0
    0.2313   -1.8582    2.2593 C   0  0  0  0  0  0  0  0  0  0  0  0
    1.4163   -2.0552    2.4823 O   0  0  0  0  0  0  0  0  0  0  0  0
   -0.8400   -2.0528    3.2740 C   0  0  0  0  0  0  0  0  0  0  0  0
   -2.0221   -1.4208    2.5491 C   0  0  0  0  0  0  0  0  0  0  0  0
   -1.7139   -1.6124    1.0578 C   0  0  1  0  0  0  0  0  0  0  0  0
   -2.3887   -0.5137    0.2592 C   0  0  0  0  0  0  0  0  0  0  0  0
   -1.7241    0.3678   -0.2642 O   0  0  0  0  0  0  0  0  0  0  0  0
   -3.7377   -0.5420    0.0859 N   0  0  0  0  0  0  0  0  0  0  0  0
   -4.4113    0.4253   -0.7064 C   0  0  0  0  0  0  0  0  0  0  0  0
   -4.9760    0.0259   -1.9226 C   0  0  0  0  0  0  0  0  0  0  0  0
   -5.6226    0.9537   -2.7396 C   0  0  0  0  0  0  0  0  0  0  0  0
   -5.7334    2.2871   -2.3340 C   0  0  0  0  0  0  0  0  0  0  0  0
   -6.6284    3.5513   -3.4510 Br  0  0  0  0  0  0  0  0  0  0  0  0
   -5.1914    2.6918   -1.1096 C   0  0  0  0  0  0  0  0  0  0  0  0
   -4.5203    1.7705   -0.2952 C   0  0  0  0  0  0  0  0  0  0  0  0
   -3.8231    2.3686    1.3881 Br  0  0  0  0  0  0  0  0  0  0  0  0
    6.1283    3.5373    0.1042 H   0  0  0  0  0  0  0  0  0  0  0  0
    4.6331    3.4730    1.1121 H   0  0  0  0  0  0  0  0  0  0  0  0
    4.5178    3.7269   -0.6862 H   0  0  0  0  0  0  0  0  0  0  0  0
    2.4718    2.7412    0.1781 H   0  0  0  0  0  0  0  0  0  0  0  0
    0.4710    1.3344    0.1271 H   0  0  0  0  0  0  0  0  0  0  0  0
    6.7616   -1.5794   -1.5136 H   0  0  0  0  0  0  0  0  0  0  0  0
    5.9226   -0.1144   -2.1541 H   0  0  0  0  0  0  0  0  0  0  0  0
    5.1263   -1.7417   -2.2618 H   0  0  0  0  0  0  0  0  0  0  0  0
   -0.1143   -1.4335   -1.0891 H   0  0  0  0  0  0  0  0  0  0  0  0
   -0.6591   -1.5367    4.2417 H   0  0  0  0  0  0  0  0  0  0  0  0
   -0.9713   -3.1456    3.4214 H   0  0  0  0  0  0  0  0  0  0  0  0
   -1.9096   -0.3263    2.7457 H   0  0  0  0  0  0  0  0  0  0  0  0
   -3.0353   -1.7118    2.8964 H   0  0  0  0  0  0  0  0  0  0  0  0
   -2.0408   -2.6064    0.6793 H   0  0  0  0  0  0  0  0  0  0  0  0
   -4.2648   -1.3651    0.4151 H   0  0  0  0  0  0  0  0  0  0  0  0
   -4.8880   -1.0038   -2.2468 H   0  0  0  0  0  0  0  0  0  0  0  0
   -6.0346    0.6367   -3.6890 H   0  0  0  0  0  0  0  0  0  0  0  0
   -5.2924    3.7221   -0.7917 H   0  0  0  0  0  0  0  0  0  0  0  0
  1  2  1  0  0  0  0
  1 32  1  0  0  0  0
  1 33  1  0  0  0  0
  1 34  1  0  0  0  0
  2  3  1  0  0  0  0
  3  4  2  0  0  0  0
  4  5  1  0  0  0  0
  4 35  1  0  0  0  0
  5  6  2  0  0  0  0
  5 36  1  0  0  0  0
  6  7  1  0  0  0  0
  7  8  2  0  0  0  0
  7 11  1  0  0  0  0
  8  9  1  0  0  0  0
  8  3  1  0  0  0  0
  9 10  1  0  0  0  0
 10 37  1  0  0  0  0
 10 38  1  0  0  0  0
 10 39  1  0  0  0  0
 11 12  2  0  0  0  0
 11 13  1  0  0  0  0
 13 14  1  0  0  0  0
 14 15  1  0  0  0  0
 14  6  1  0  0  0  0
 14 40  1  6  0  0  0
 15 16  1  0  0  0  0
 16 17  2  0  0  0  0
 16 18  1  0  0  0  0
 18 19  1  0  0  0  0
 18 41  1  0  0  0  0
 18 42  1  0  0  0  0
 19 20  1  0  0  0  0
 19 43  1  0  0  0  0
 19 44  1  0  0  0  0
 20 21  1  0  0  0  0
 20 15  1  0  0  0  0
 20 45  1  6  0  0  0
 21 22  2  0  0  0  0
 21 23  1  0  0  0  0
 23 24  1  0  0  0  0
 23 46  1  0  0  0  0
 24 25  2  0  0  0  0
 25 26  1  0  0  0  0
 25 47  1  0  0  0  0
 26 27  2  0  0  0  0
 26 48  1  0  0  0  0
 27 28  1  0  0  0  0
 27 29  1  0  0  0  0
 29 30  2  0  0  0  0
 29 49  1  0  0  0  0
 30 31  1  0  0  0  0
 30 24  1  0  0  0  0
M  END
>  <IDENTIFIER>
CNP0376843.2

>  <Energy>
651.95

$$$$
