
 OpenBabel09052515442D

137136  0  0  0  0  0  0  0  0999 V2000
   -7.7942    4.5000    0.0000 C   0  0  0  0  0  0  0  0  0  0  0  0
   -6.4952    3.7500    0.0000 C   0  0  0  0  0  0  0  0  0  0  0  0
   -5.1962    3.0000    0.0000 C   0  0  0  0  0  0  0  0  0  0  0  0
   -3.5718    3.2307   -0.0078 C   0  0  0  0  0  0  0  0  0  0  0  0
   -2.6233    1.8642    0.0152 C   0  0  0  0  0  0  0  0  0  0  0  0
   -0.9802    1.9490   -0.0026 C   0  0  0  0  0  0  0  0  0  0  0  0
    0.0229    0.6580    0.0255 C   0  0  0  0  0  0  0  0  0  0  0  0
    1.4326    0.7981   -0.0036 C   0  0  0  0  0  0  0  0  0  0  0  0
    2.8451   -0.0398    0.0015 C   0  0  0  0  0  0  0  0  0  0  0  0
    3.5396   -1.5442    0.0537 C   0  0  0  0  0  0  0  0  0  0  0  0
    5.1962   -1.5000    0.0000 C   0  0  0  0  0  0  0  0  0  0  0  0
    6.4952   -2.2500    0.0000 C   0  0  0  0  0  0  0  0  0  0  0  0
    7.7942   -3.0000    0.0000 C   0  0  0  0  0  0  0  0  0  0  0  0
    9.0933   -3.7500    0.0000 C   0  0  0  0  0  0  0  0  0  0  0  0
   10.3923   -4.5000    0.0000 C   0  0  0  0  0  0  0  0  0  0  0  0
   11.6913   -5.2500    0.0000 C   0  0  0  0  0  0  0  0  0  0  0  0
   13.2343   -4.7077   -0.0071 C   0  0  0  0  0  0  0  0  0  0  0  0
   14.4259   -5.6883    0.4850 C   0  0  0  0  0  0  0  0  0  0  0  0
   14.3117   -6.1268    1.6202 O   0  0  0  0  0  0  0  0  0  0  0  0
   15.6352   -5.9696   -0.2297 O   0  0  0  0  0  0  0  0  0  0  0  0
   16.8875   -6.7500    0.0000 C   0  0  2  0  0  0  0  0  0  0  0  0
   16.1375   -8.0490    0.0000 C   0  0  0  0  0  0  0  0  0  0  0  0
   16.4084   -9.4667   -0.0610 O   0  0  0  0  0  0  0  0  0  0  0  0
   15.4042  -10.4315   -0.4746 C   0  0  0  0  0  0  0  0  0  0  0  0
   14.4642  -10.0628   -1.1624 O   0  0  0  0  0  0  0  0  0  0  0  0
   15.3875  -11.9462    0.0000 C   0  0  0  0  0  0  0  0  0  0  0  0
   14.6375  -13.2452    0.0000 C   0  0  0  0  0  0  0  0  0  0  0  0
   13.8875  -14.5442    0.0000 C   0  0  0  0  0  0  0  0  0  0  0  0
   13.1375  -15.8433    0.0000 C   0  0  0  0  0  0  0  0  0  0  0  0
   12.3875  -17.1423    0.0000 C   0  0  0  0  0  2  0  0  0  0  0  0
   11.6375  -18.4413    0.0000 C   0  0  0  0  0  0  0  0  0  0  0  0
   11.2480  -20.0608    0.2256 C   0  0  0  0  0  0  0  0  0  0  0  0
    9.7497  -20.7164   -0.2438 C   0  0  0  0  0  0  0  0  0  0  0  0
    9.3875  -22.3385    0.0000 C   0  0  0  0  0  0  0  0  0  0  0  0
    8.6375  -23.6375    0.0000 C   0  0  0  0  0  0  0  0  0  0  0  0
    7.8875  -24.9365    0.0000 C   0  0  0  0  0  0  0  0  0  0  0  0
    7.1375  -26.2356    0.0000 C   0  0  0  0  0  0  0  0  0  0  0  0
    6.3875  -27.5346    0.0000 C   0  0  0  0  0  2  0  0  0  0  0  0
    5.6375  -28.8336    0.0000 C   0  0  0  0  0  0  0  0  0  0  0  0
    4.2607  -29.1544    0.0258 C   0  0  0  0  0  0  0  0  0  0  0  0
    3.7094  -30.6672    0.0061 C   0  0  0  0  0  0  0  0  0  0  0  0
    2.1248  -31.1161    0.0392 C   0  0  0  0  0  0  0  0  0  0  0  0
    1.8875  -32.7308    0.0000 C   0  0  0  0  0  0  0  0  0  0  0  0
    1.1375  -34.0298    0.0000 C   0  0  0  0  0  2  0  0  0  0  0  0
    0.3875  -35.3288    0.0000 C   0  0  0  0  0  0  0  0  0  0  0  0
    1.3231  -36.5356    0.0601 C   0  0  0  0  0  0  0  0  0  0  0  0
    0.5056  -37.8353    0.0561 C   0  0  0  0  0  0  0  0  0  0  0  0
    1.4060  -39.0641    0.1161 C   0  0  0  0  0  0  0  0  0  0  0  0
   17.6375   -5.4510    0.0000 C   0  0  0  0  0  0  0  0  0  0  0  0
   18.0072   -4.3650   -0.8854 O   0  0  0  0  0  0  0  0  0  0  0  0
   17.6375   -2.8529    0.0000 P   0  0  3  0  0  0  0  0  0  0  0  0
   17.1795   -2.1315   -1.3007 O   0  0  0  0  0  0  0  0  0  0  0  0
   16.3385   -3.6029    0.0000 O   0  0  0  0  0  0  0  0  0  0  0  0
   18.9365   -2.1029    0.0000 O   0  0  0  0  0  0  0  0  0  0  0  0
   18.9365   -0.6029    0.0000 C   0  0  0  0  0  2  0  0  0  0  0  0
   18.9365    0.8971    0.0000 C   0  0  0  0  0  2  0  0  0  0  0  0
   18.9365    2.3971    0.0000 N   0  0  0  0  0  0  0  0  0  0  0  0
   -7.6607    5.6096   -0.0061 H   0  0  0  0  0  0  0  0  0  0  0  0
   -8.3955    4.2150   -0.8919 H   0  0  0  0  0  0  0  0  0  0  0  0
   -8.3900    4.2240    0.8983 H   0  0  0  0  0  0  0  0  0  0  0  0
   -6.1642    4.3027    0.9129 H   0  0  0  0  0  0  0  0  0  0  0  0
   -6.1712    4.2898   -0.9230 H   0  0  0  0  0  0  0  0  0  0  0  0
   -5.3200    2.3137   -0.8704 H   0  0  0  0  0  0  0  0  0  0  0  0
   -5.3130    2.3297    0.8838 H   0  0  0  0  0  0  0  0  0  0  0  0
   -3.3141    3.8131   -0.9173 H   0  0  0  0  0  0  0  0  0  0  0  0
   -3.3082    3.8445    0.8787 H   0  0  0  0  0  0  0  0  0  0  0  0
   -2.9034    1.2945    0.9262 H   0  0  0  0  0  0  0  0  0  0  0  0
   -2.9177    1.2518   -0.8629 H   0  0  0  0  0  0  0  0  0  0  0  0
   -0.7205    2.5222   -0.9173 H   0  0  0  0  0  0  0  0  0  0  0  0
   -0.7005    2.5754    0.8705 H   0  0  0  0  0  0  0  0  0  0  0  0
   -0.4063   -0.3374    0.0660 H   0  0  0  0  0  0  0  0  0  0  0  0
    1.6890    1.8535   -0.0467 H   0  0  0  0  0  0  0  0  0  0  0  0
    3.3123    0.3677   -0.9198 H   0  0  0  0  0  0  0  0  0  0  0  0
    3.3540    0.4458    0.8611 H   0  0  0  0  0  0  0  0  0  0  0  0
    3.1714   -2.1380   -0.8089 H   0  0  0  0  0  0  0  0  0  0  0  0
    3.2247   -2.0514    0.9896 H   0  0  0  0  0  0  0  0  0  0  0  0
    5.3827   -0.7764    0.8303 H   0  0  0  0  0  0  0  0  0  0  0  0
    5.3284   -0.8650   -0.9121 H   0  0  0  0  0  0  0  0  0  0  0  0
    5.9927   -2.8250   -0.8443 H   0  0  0  0  0  0  0  0  0  0  0  0
    6.2326   -2.6796    1.0028 H   0  0  0  0  0  0  0  0  0  0  0  0
    7.9883   -2.6247   -1.0512 H   0  0  0  0  0  0  0  0  0  0  0  0
    7.3073   -4.0288   -0.1009 H   0  0  0  0  0  0  0  0  0  0  0  0
    8.8933   -4.1235    1.0516 H   0  0  0  0  0  0  0  0  0  0  0  0
    9.5828   -2.7217    0.0906 H   0  0  0  0  0  0  0  0  0  0  0  0
   10.6553   -4.0889   -1.0078 H   0  0  0  0  0  0  0  0  0  0  0  0
   10.8780   -3.9304    0.8562 H   0  0  0  0  0  0  0  0  0  0  0  0
   11.6411   -6.0156   -0.8084 H   0  0  0  0  0  0  0  0  0  0  0  0
   11.6425   -5.8636    0.9340 H   0  0  0  0  0  0  0  0  0  0  0  0
   13.4701   -4.2896   -1.0076 H   0  0  0  0  0  0  0  0  0  0  0  0
   13.2590   -3.8646    0.7149 H   0  0  0  0  0  0  0  0  0  0  0  0
   17.1124   -6.9937    1.0738 H   0  0  0  0  0  0  0  0  0  0  0  0
   15.6268   -7.9651   -0.9950 H   0  0  0  0  0  0  0  0  0  0  0  0
   15.3392   -8.0336    0.7781 H   0  0  0  0  0  0  0  0  0  0  0  0
   15.3534  -11.7049    1.0905 H   0  0  0  0  0  0  0  0  0  0  0  0
   16.4598  -12.2070   -0.2140 H   0  0  0  0  0  0  0  0  0  0  0  0
   14.9963  -13.4251   -1.0504 H   0  0  0  0  0  0  0  0  0  0  0  0
   15.3753  -13.7305    0.7016 H   0  0  0  0  0  0  0  0  0  0  0  0
   13.1549  -14.1524   -0.7632 H   0  0  0  0  0  0  0  0  0  0  0  0
   13.4038  -14.2570    0.9763 H   0  0  0  0  0  0  0  0  0  0  0  0
   13.6070  -16.1603   -0.9636 H   0  0  0  0  0  0  0  0  0  0  0  0
   13.7786  -16.2670    0.8122 H   0  0  0  0  0  0  0  0  0  0  0  0
   11.3994  -18.4168   -1.0839 H   0  0  0  0  0  0  0  0  0  0  0  0
   10.7414  -18.0367    0.5152 H   0  0  0  0  0  0  0  0  0  0  0  0
   11.3587  -20.2655    1.3111 H   0  0  0  0  0  0  0  0  0  0  0  0
   12.0288  -20.6502   -0.2997 H   0  0  0  0  0  0  0  0  0  0  0  0
    8.9627  -20.1291    0.2743 H   0  0  0  0  0  0  0  0  0  0  0  0
    9.6426  -20.5225   -1.3317 H   0  0  0  0  0  0  0  0  0  0  0  0
   10.3422  -22.7049   -0.4561 H   0  0  0  0  0  0  0  0  0  0  0  0
    9.6343  -22.3289    1.0908 H   0  0  0  0  0  0  0  0  0  0  0  0
    7.7829  -22.9883    0.3743 H   0  0  0  0  0  0  0  0  0  0  0  0
    8.6704  -23.6510   -1.1242 H   0  0  0  0  0  0  0  0  0  0  0  0
    7.7588  -24.8587    1.1176 H   0  0  0  0  0  0  0  0  0  0  0  0
    6.9546  -24.5279   -0.5093 H   0  0  0  0  0  0  0  0  0  0  0  0
    7.3829  -26.4323   -1.0756 H   0  0  0  0  0  0  0  0  0  0  0  0
    7.9396  -26.7753    0.5667 H   0  0  0  0  0  0  0  0  0  0  0  0
    6.3018  -29.6909   -0.0323 H   0  0  0  0  0  0  0  0  0  0  0  0
    3.5378  -28.3463    0.0575 H   0  0  0  0  0  0  0  0  0  0  0  0
    4.1836  -31.1681    0.8764 H   0  0  0  0  0  0  0  0  0  0  0  0
    4.1352  -31.1258   -0.9112 H   0  0  0  0  0  0  0  0  0  0  0  0
    1.6656  -30.7128    0.9663 H   0  0  0  0  0  0  0  0  0  0  0  0
    1.6077  -30.6605   -0.8314 H   0  0  0  0  0  0  0  0  0  0  0  0
    2.4786  -32.9438   -0.9153 H   0  0  0  0  0  0  0  0  0  0  0  0
    2.5486  -32.9926    0.8526 H   0  0  0  0  0  0  0  0  0  0  0  0
   -0.2266  -35.3730   -0.9247 H   0  0  0  0  0  0  0  0  0  0  0  0
   -0.2936  -35.3350    0.8777 H   0  0  0  0  0  0  0  0  0  0  0  0
    2.0024  -36.5208   -0.8207 H   0  0  0  0  0  0  0  0  0  0  0  0
    1.9344  -36.4833    0.9881 H   0  0  0  0  0  0  0  0  0  0  0  0
   -0.1765  -37.8496    0.9345 H   0  0  0  0  0  0  0  0  0  0  0  0
   -0.1076  -37.8872   -0.8704 H   0  0  0  0  0  0  0  0  0  0  0  0
    0.7794  -39.9813    0.1113 H   0  0  0  0  0  0  0  0  0  0  0  0
    2.0821  -39.0905   -0.7645 H   0  0  0  0  0  0  0  0  0  0  0  0
    2.0127  -39.0527    1.0462 H   0  0  0  0  0  0  0  0  0  0  0  0
   18.6541   -5.8964    0.1046 H   0  0  0  0  0  0  0  0  0  0  0  0
   17.5964   -5.0823    1.0711 H   0  0  0  0  0  0  0  0  0  0  0  0
   15.8209   -3.1935    0.7403 H   0  0  0  0  0  0  0  0  0  0  0  0
   19.7786    2.7100   -0.5326 H   0  0  0  0  0  0  0  0  0  0  0  0
   18.0906    2.7099   -0.5266 H   0  0  0  0  0  0  0  0  0  0  0  0
  1  2  1  0  0  0  0
  1 58  1  0  0  0  0
  1 59  1  0  0  0  0
  1 60  1  0  0  0  0
  2  3  1  0  0  0  0
  2 61  1  0  0  0  0
  2 62  1  0  0  0  0
  3  4  1  0  0  0  0
  3 63  1  0  0  0  0
  3 64  1  0  0  0  0
  4  5  1  0  0  0  0
  4 65  1  0  0  0  0
  4 66  1  0  0  0  0
  5  6  1  0  0  0  0
  5 67  1  0  0  0  0
  5 68  1  0  0  0  0
  6  7  1  0  0  0  0
  6 69  1  0  0  0  0
  6 70  1  0  0  0  0
  7  8  2  3  0  0  0
  7 71  1  0  0  0  0
  8  9  1  0  0  0  0
  8 72  1  0  0  0  0
  9 10  1  0  0  0  0
  9 73  1  0  0  0  0
  9 74  1  0  0  0  0
 10 11  1  0  0  0  0
 10 75  1  0  0  0  0
 10 76  1  0  0  0  0
 11 12  1  0  0  0  0
 11 77  1  0  0  0  0
 11 78  1  0  0  0  0
 12 13  1  0  0  0  0
 12 79  1  0  0  0  0
 12 80  1  0  0  0  0
 13 14  1  0  0  0  0
 13 81  1  0  0  0  0
 13 82  1  0  0  0  0
 14 15  1  0  0  0  0
 14 83  1  0  0  0  0
 14 84  1  0  0  0  0
 15 16  1  0  0  0  0
 15 85  1  0  0  0  0
 15 86  1  0  0  0  0
 16 17  1  0  0  0  0
 16 87  1  0  0  0  0
 16 88  1  0  0  0  0
 17 18  1  0  0  0  0
 17 89  1  0  0  0  0
 17 90  1  0  0  0  0
 18 19  2  0  0  0  0
 18 20  1  0  0  0  0
 20 21  1  0  0  0  0
 21 22  1  0  0  0  0
 21 49  1  0  0  0  0
 21 91  1  6  0  0  0
 22 23  1  0  0  0  0
 22 92  1  0  0  0  0
 22 93  1  0  0  0  0
 23 24  1  0  0  0  0
 24 25  2  0  0  0  0
 24 26  1  0  0  0  0
 26 27  1  0  0  0  0
 26 94  1  0  0  0  0
 26 95  1  0  0  0  0
 27 28  1  0  0  0  0
 27 96  1  0  0  0  0
 27 97  1  0  0  0  0
 28 29  1  0  0  0  0
 28 98  1  0  0  0  0
 28 99  1  0  0  0  0
 29 30  1  0  0  0  0
 29100  1  0  0  0  0
 29101  1  0  0  0  0
 30 31  1  0  0  0  0
 31 32  1  0  0  0  0
 31102  1  0  0  0  0
 31103  1  0  0  0  0
 32 33  1  0  0  0  0
 32104  1  0  0  0  0
 32105  1  0  0  0  0
 33 34  1  0  0  0  0
 33106  1  0  0  0  0
 33107  1  0  0  0  0
 34 35  1  0  0  0  0
 34108  1  0  0  0  0
 34109  1  0  0  0  0
 35 36  1  0  0  0  0
 35110  1  0  0  0  0
 35111  1  0  0  0  0
 36 37  1  0  0  0  0
 36112  1  0  0  0  0
 36113  1  0  0  0  0
 37 38  1  0  0  0  0
 37114  1  0  0  0  0
 37115  1  0  0  0  0
 38 39  1  0  0  0  0
 39 40  2  3  0  0  0
 39116  1  0  0  0  0
 40 41  1  0  0  0  0
 40117  1  0  0  0  0
 41 42  1  0  0  0  0
 41118  1  0  0  0  0
 41119  1  0  0  0  0
 42 43  1  0  0  0  0
 42120  1  0  0  0  0
 42121  1  0  0  0  0
 43 44  1  0  0  0  0
 43122  1  0  0  0  0
 43123  1  0  0  0  0
 44 45  1  0  0  0  0
 45 46  1  0  0  0  0
 45124  1  0  0  0  0
 45125  1  0  0  0  0
 46 47  1  0  0  0  0
 46126  1  0  0  0  0
 46127  1  0  0  0  0
 47 48  1  0  0  0  0
 47128  1  0  0  0  0
 47129  1  0  0  0  0
 48130  1  0  0  0  0
 48131  1  0  0  0  0
 48132  1  0  0  0  0
 49 50  1  0  0  0  0
 49133  1  0  0  0  0
 49134  1  0  0  0  0
 50 51  1  0  0  0  0
 51 52  2  0  0  0  0
 51 53  1  0  0  0  0
 51 54  1  0  0  0  0
 53135  1  0  0  0  0
 54 55  1  0  0  0  0
 55 56  1  0  0  0  0
 56 57  1  0  0  0  0
 57136  1  0  0  0  0
 57137  1  0  0  0  0
M  END
>  <IDENTIFIER>
CNP0037859.1

>  <Energy>
10522.3

$$$$
