
 OpenBabel09082508073D

 45 45  0  0  0  0  0  0  0  0999 V2000
   -3.7699   -2.0358   -1.3529 C   0  0  0  0  0  0  0  0  0  0  0  0
   -3.6994   -1.2019   -0.2907 C   0  0  0  0  0  0  0  0  0  0  0  0
   -4.5951   -1.4777    0.8878 C   0  0  0  0  0  0  0  0  0  0  0  0
   -5.2647   -2.4990    0.9171 O   0  0  0  0  0  0  0  0  0  0  0  0
   -4.7237   -0.6088    1.9167 O   0  0  0  0  0  0  0  0  0  0  0  0
   -2.7595    0.0173   -0.2709 C   0  0  1  0  0  0  0  0  0  0  0  0
   -1.6982   -0.1251    0.8521 C   0  0  0  0  0  0  0  0  0  0  0  0
   -0.8489    1.1553    0.9690 C   0  0  0  0  0  0  0  0  0  0  0  0
   -0.0948    1.4968   -0.3529 C   0  0  1  0  0  0  0  0  0  0  0  0
    0.5807    2.8837   -0.2069 C   0  0  0  0  0  0  0  0  0  0  0  0
    1.0105    0.4256   -0.6874 C   0  0  0  0  0  0  0  0  0  0  0  0
    2.1219    0.2576    0.3732 C   0  0  0  0  0  0  0  0  0  0  0  0
    3.1632   -0.7805   -0.0672 C   0  0  0  0  0  0  0  0  0  0  0  0
    4.2841   -0.9346    0.9835 C   0  0  2  0  0  0  0  0  0  0  0  0
    5.3591   -1.9206    0.5174 C   0  0  0  0  0  0  0  0  0  0  0  0
    3.7634   -1.3376    2.2256 O   0  0  0  0  0  0  0  0  0  0  0  0
   -1.1351    1.5618   -1.5326 C   0  0  2  0  0  0  0  0  0  0  0  0
   -1.9487    2.7143   -1.4847 O   0  0  0  0  0  0  0  0  0  0  0  0
   -2.0197    0.2934   -1.6099 C   0  0  0  0  0  0  0  0  0  0  0  0
   -4.4475   -2.8842   -1.3607 H   0  0  0  0  0  0  0  0  0  0  0  0
   -3.1748   -1.9095   -2.2470 H   0  0  0  0  0  0  0  0  0  0  0  0
   -4.3014    0.2584    1.9496 H   0  0  0  0  0  0  0  0  0  0  0  0
   -3.4086    0.8929   -0.0640 H   0  0  0  0  0  0  0  0  0  0  0  0
   -1.0534   -1.0071    0.6548 H   0  0  0  0  0  0  0  0  0  0  0  0
   -2.1724   -0.3015    1.8364 H   0  0  0  0  0  0  0  0  0  0  0  0
   -0.1398    1.0600    1.8155 H   0  0  0  0  0  0  0  0  0  0  0  0
   -1.5323    1.9846    1.2483 H   0  0  0  0  0  0  0  0  0  0  0  0
    1.2856    2.9121    0.6473 H   0  0  0  0  0  0  0  0  0  0  0  0
   -0.1707    3.6761   -0.0069 H   0  0  0  0  0  0  0  0  0  0  0  0
    1.1278    3.1528   -1.1360 H   0  0  0  0  0  0  0  0  0  0  0  0
    1.4961    0.7148   -1.6460 H   0  0  0  0  0  0  0  0  0  0  0  0
    0.5578   -0.5716   -0.8449 H   0  0  0  0  0  0  0  0  0  0  0  0
    1.6790   -0.0774    1.3326 H   0  0  0  0  0  0  0  0  0  0  0  0
    2.6523    1.2177    0.5313 H   0  0  0  0  0  0  0  0  0  0  0  0
    3.6154   -0.4525   -1.0293 H   0  0  0  0  0  0  0  0  0  0  0  0
    2.6659   -1.7629   -0.2283 H   0  0  0  0  0  0  0  0  0  0  0  0
    4.7747    0.0539    1.1204 H   0  0  0  0  0  0  0  0  0  0  0  0
    4.9231   -2.9311    0.3667 H   0  0  0  0  0  0  0  0  0  0  0  0
    6.1631   -1.9879    1.2813 H   0  0  0  0  0  0  0  0  0  0  0  0
    5.8090   -1.5755   -0.4379 H   0  0  0  0  0  0  0  0  0  0  0  0
    3.3161   -2.2138    2.0941 H   0  0  0  0  0  0  0  0  0  0  0  0
   -0.5724    1.6450   -2.4883 H   0  0  0  0  0  0  0  0  0  0  0  0
   -2.3987    2.7678   -0.6071 H   0  0  0  0  0  0  0  0  0  0  0  0
   -1.3829   -0.5786   -1.8638 H   0  0  0  0  0  0  0  0  0  0  0  0
   -2.7532    0.4254   -2.4352 H   0  0  0  0  0  0  0  0  0  0  0  0
  1  2  2  0  0  0  0
  1 20  1  0  0  0  0
  1 21  1  0  0  0  0
  2  3  1  0  0  0  0
  3  4  2  0  0  0  0
  3  5  1  0  0  0  0
  5 22  1  0  0  0  0
  6  2  1  0  0  0  0
  6  7  1  0  0  0  0
  6 23  1  1  0  0  0
  7  8  1  0  0  0  0
  7 24  1  0  0  0  0
  7 25  1  0  0  0  0
  8  9  1  0  0  0  0
  8 26  1  0  0  0  0
  8 27  1  0  0  0  0
  9 10  1  1  0  0  0
  9 11  1  0  0  0  0
  9 17  1  0  0  0  0
 10 28  1  0  0  0  0
 10 29  1  0  0  0  0
 10 30  1  0  0  0  0
 11 12  1  0  0  0  0
 11 31  1  0  0  0  0
 11 32  1  0  0  0  0
 12 13  1  0  0  0  0
 12 33  1  0  0  0  0
 12 34  1  0  0  0  0
 13 14  1  0  0  0  0
 13 35  1  0  0  0  0
 13 36  1  0  0  0  0
 14 15  1  0  0  0  0
 14 16  1  0  0  0  0
 14 37  1  1  0  0  0
 15 38  1  0  0  0  0
 15 39  1  0  0  0  0
 15 40  1  0  0  0  0
 16 41  1  0  0  0  0
 17 18  1  0  0  0  0
 17 19  1  0  0  0  0
 17 42  1  6  0  0  0
 18 43  1  0  0  0  0
 19  6  1  0  0  0  0
 19 44  1  0  0  0  0
 19 45  1  0  0  0  0
M  END
>  <IDENTIFIER>
CNP0359137.0

>  <Energy>
219.661

$$$$
