
 OpenBabel09062513463D

 76 79  0  0  0  0  0  0  0  0999 V2000
    8.8274   -0.4721   -0.9006 C   0  0  0  0  0  0  0  0  0  0  0  0
    7.4957   -0.5360   -1.6803 C   0  0  0  0  0  0  0  0  0  0  0  0
    7.6627   -1.6594   -2.7437 C   0  0  0  0  0  0  0  0  0  0  0  0
    7.2559    0.7984   -2.4129 C   0  0  0  0  0  0  0  0  0  0  0  0
    7.0684    0.8065   -3.6210 O   0  0  0  0  0  0  0  0  0  0  0  0
    7.2757    1.9928   -1.7793 O   0  0  0  0  0  0  0  0  0  0  0  0
    6.3289   -0.8401   -0.7022 C   0  0  0  0  0  0  0  0  0  0  0  0
    6.0734    0.0037    0.4020 C   0  0  0  0  0  0  0  0  0  0  0  0
    5.0259   -0.2506    1.2881 C   0  0  0  0  0  0  0  0  0  0  0  0
    4.1920   -1.3629    1.1095 C   0  0  0  0  0  0  0  0  0  0  0  0
    3.0364   -1.6452    2.0493 C   0  0  1  0  0  0  0  0  0  0  0  0
    3.3338   -1.2797    3.3768 O   0  0  0  0  0  0  0  0  0  0  0  0
    1.6965   -1.0618    1.5377 C   0  0  0  0  0  0  0  0  0  0  0  0
    1.7106    0.4632    1.3066 C   0  0  0  0  0  0  0  0  0  0  0  0
    0.3869    1.0250    0.7619 C   0  0  0  0  0  0  0  0  0  0  0  0
   -0.7063    0.8838    1.7522 N   0  0  0  0  0  0  0  0  0  0  0  0
   -1.4788   -0.3902    1.6291 C   0  0  0  0  0  0  0  0  0  0  0  0
   -2.9636   -0.1942    1.2329 C   0  0  0  0  0  0  0  0  0  0  0  0
   -3.0245    0.7931    0.0419 C   0  0  1  0  0  0  0  0  0  0  0  0
   -4.4196    0.9160   -0.7125 C   0  0  0  0  0  0  0  0  0  0  0  0
   -4.2860    1.8350   -1.7811 O   0  0  0  0  0  0  0  0  0  0  0  0
   -5.5271    1.3762    0.2661 C   0  0  0  0  0  0  0  0  0  0  0  0
   -6.1135    2.6613    0.1768 C   0  0  0  0  0  0  0  0  0  0  0  0
   -7.1093    3.0594    1.0736 C   0  0  0  0  0  0  0  0  0  0  0  0
   -7.5499    2.1869    2.0674 C   0  0  0  0  0  0  0  0  0  0  0  0
   -7.0011    0.9096    2.1629 C   0  0  0  0  0  0  0  0  0  0  0  0
   -6.0041    0.5055    1.2719 C   0  0  0  0  0  0  0  0  0  0  0  0
   -4.8810   -0.3851   -1.4019 C   0  0  0  0  0  0  0  0  0  0  0  0
   -6.1607   -0.4097   -2.0029 C   0  0  0  0  0  0  0  0  0  0  0  0
   -6.6335   -1.5539   -2.6507 C   0  0  0  0  0  0  0  0  0  0  0  0
   -5.8364   -2.6943   -2.7278 C   0  0  0  0  0  0  0  0  0  0  0  0
   -4.5632   -2.6909   -2.1617 C   0  0  0  0  0  0  0  0  0  0  0  0
   -4.0846   -1.5522   -1.5073 C   0  0  0  0  0  0  0  0  0  0  0  0
   -2.4831    2.1735    0.5423 C   0  0  0  0  0  0  0  0  0  0  0  0
   -1.5841    2.0657    1.7956 C   0  0  0  0  0  0  0  0  0  0  0  0
    4.4320   -2.2166    0.0271 C   0  0  0  0  0  0  0  0  0  0  0  0
    5.4798   -1.9652   -0.8618 C   0  0  0  0  0  0  0  0  0  0  0  0
    9.6747   -0.2590   -1.5879 H   0  0  0  0  0  0  0  0  0  0  0  0
    9.0237   -1.4404   -0.3907 H   0  0  0  0  0  0  0  0  0  0  0  0
    8.8190    0.3201   -0.1251 H   0  0  0  0  0  0  0  0  0  0  0  0
    8.5170   -1.4352   -3.4197 H   0  0  0  0  0  0  0  0  0  0  0  0
    6.7551   -1.7534   -3.3784 H   0  0  0  0  0  0  0  0  0  0  0  0
    7.8695   -2.6389   -2.2596 H   0  0  0  0  0  0  0  0  0  0  0  0
    7.5221    2.1149   -0.8571 H   0  0  0  0  0  0  0  0  0  0  0  0
    6.6782    0.8669    0.6077 H   0  0  0  0  0  0  0  0  0  0  0  0
    4.8712    0.4332    2.1115 H   0  0  0  0  0  0  0  0  0  0  0  0
    2.8859   -2.7472    2.0798 H   0  0  0  0  0  0  0  0  0  0  0  0
    3.2094   -0.3039    3.4786 H   0  0  0  0  0  0  0  0  0  0  0  0
    0.9182   -1.3321    2.2787 H   0  0  0  0  0  0  0  0  0  0  0  0
    1.4499   -1.5514    0.5697 H   0  0  0  0  0  0  0  0  0  0  0  0
    2.4976    0.7002    0.5593 H   0  0  0  0  0  0  0  0  0  0  0  0
    1.9486    1.0022    2.2464 H   0  0  0  0  0  0  0  0  0  0  0  0
    0.1229    0.5694   -0.2183 H   0  0  0  0  0  0  0  0  0  0  0  0
    0.5870    2.1022    0.5621 H   0  0  0  0  0  0  0  0  0  0  0  0
   -1.4415   -0.9438    2.5908 H   0  0  0  0  0  0  0  0  0  0  0  0
   -1.0198   -1.0515    0.8611 H   0  0  0  0  0  0  0  0  0  0  0  0
   -3.5289    0.2215    2.0923 H   0  0  0  0  0  0  0  0  0  0  0  0
   -3.3915   -1.1921    1.0205 H   0  0  0  0  0  0  0  0  0  0  0  0
   -2.2868    0.4184   -0.7020 H   0  0  0  0  0  0  0  0  0  0  0  0
   -3.9192    2.6939   -1.4564 H   0  0  0  0  0  0  0  0  0  0  0  0
   -5.8100    3.3750   -0.5744 H   0  0  0  0  0  0  0  0  0  0  0  0
   -7.5407    4.0492    0.9966 H   0  0  0  0  0  0  0  0  0  0  0  0
   -8.3213    2.4986    2.7596 H   0  0  0  0  0  0  0  0  0  0  0  0
   -7.3504    0.2281    2.9279 H   0  0  0  0  0  0  0  0  0  0  0  0
   -5.6158   -0.4980    1.3672 H   0  0  0  0  0  0  0  0  0  0  0  0
   -6.8017    0.4622   -1.9636 H   0  0  0  0  0  0  0  0  0  0  0  0
   -7.6199   -1.5544   -3.0961 H   0  0  0  0  0  0  0  0  0  0  0  0
   -6.2022   -3.5790   -3.2330 H   0  0  0  0  0  0  0  0  0  0  0  0
   -3.9401   -3.5733   -2.2337 H   0  0  0  0  0  0  0  0  0  0  0  0
   -3.0848   -1.6092   -1.1101 H   0  0  0  0  0  0  0  0  0  0  0  0
   -3.3050    2.8591    0.8393 H   0  0  0  0  0  0  0  0  0  0  0  0
   -1.9308    2.6484   -0.2978 H   0  0  0  0  0  0  0  0  0  0  0  0
   -2.2327    1.9573    2.6928 H   0  0  0  0  0  0  0  0  0  0  0  0
   -1.0171    3.0076    1.9616 H   0  0  0  0  0  0  0  0  0  0  0  0
    3.8013   -3.0826   -0.1338 H   0  0  0  0  0  0  0  0  0  0  0  0
    5.5989   -2.6686   -1.6712 H   0  0  0  0  0  0  0  0  0  0  0  0
  1  2  1  0  0  0  0
  1 38  1  0  0  0  0
  1 39  1  0  0  0  0
  1 40  1  0  0  0  0
  2  3  1  0  0  0  0
  2  4  1  0  0  0  0
  2  7  1  0  0  0  0
  3 41  1  0  0  0  0
  3 42  1  0  0  0  0
  3 43  1  0  0  0  0
  4  5  2  0  0  0  0
  4  6  1  0  0  0  0
  6 44  1  0  0  0  0
  7  8  2  0  0  0  0
  8  9  1  0  0  0  0
  8 45  1  0  0  0  0
  9 10  2  0  0  0  0
  9 46  1  0  0  0  0
 10 11  1  0  0  0  0
 10 36  1  0  0  0  0
 11 12  1  0  0  0  0
 11 13  1  0  0  0  0
 11 47  1  1  0  0  0
 12 48  1  0  0  0  0
 13 14  1  0  0  0  0
 13 49  1  0  0  0  0
 13 50  1  0  0  0  0
 14 15  1  0  0  0  0
 14 51  1  0  0  0  0
 14 52  1  0  0  0  0
 15 16  1  0  0  0  0
 15 53  1  0  0  0  0
 15 54  1  0  0  0  0
 16 17  1  0  0  0  0
 17 18  1  0  0  0  0
 17 55  1  0  0  0  0
 17 56  1  0  0  0  0
 18 19  1  0  0  0  0
 18 57  1  0  0  0  0
 18 58  1  0  0  0  0
 19 20  1  0  0  0  0
 19 34  1  0  0  0  0
 19 59  1  6  0  0  0
 20 21  1  0  0  0  0
 20 22  1  0  0  0  0
 20 28  1  0  0  0  0
 21 60  1  0  0  0  0
 22 23  2  0  0  0  0
 23 24  1  0  0  0  0
 23 61  1  0  0  0  0
 24 25  2  0  0  0  0
 24 62  1  0  0  0  0
 25 26  1  0  0  0  0
 25 63  1  0  0  0  0
 26 27  2  0  0  0  0
 26 64  1  0  0  0  0
 27 22  1  0  0  0  0
 27 65  1  0  0  0  0
 28 29  2  0  0  0  0
 29 30  1  0  0  0  0
 29 66  1  0  0  0  0
 30 31  2  0  0  0  0
 30 67  1  0  0  0  0
 31 32  1  0  0  0  0
 31 68  1  0  0  0  0
 32 33  2  0  0  0  0
 32 69  1  0  0  0  0
 33 28  1  0  0  0  0
 33 70  1  0  0  0  0
 34 35  1  0  0  0  0
 34 71  1  0  0  0  0
 34 72  1  0  0  0  0
 35 16  1  0  0  0  0
 35 73  1  0  0  0  0
 35 74  1  0  0  0  0
 36 37  2  0  0  0  0
 36 75  1  0  0  0  0
 37  7  1  0  0  0  0
 37 76  1  0  0  0  0
M  END
>  <IDENTIFIER>
CNP0337836.2

>  <Energy>
649.319

$$$$
