
 OpenBabel09042515522D

160159  0  0  0  0  0  0  0  0999 V2000
   27.2798   15.7500    0.0000 C   0  0  0  0  0  0  0  0  0  0  0  0
   25.9808   15.0000    0.0000 C   0  0  0  0  0  0  0  0  0  0  0  0
   24.3297   14.6888    0.0102 C   0  0  0  0  0  0  0  0  0  0  0  0
   23.7284   13.0968    0.0033 C   0  0  0  0  0  0  0  0  0  0  0  0
   22.0836   12.7500    0.0000 C   0  0  0  0  0  0  0  0  0  0  0  0
   20.7846   12.0000    0.0000 C   0  0  0  0  0  2  0  0  0  0  0  0
   19.4856   11.2500    0.0000 C   0  0  0  0  0  0  0  0  0  0  0  0
   18.1865   10.5000    0.0000 C   0  0  0  0  0  0  0  0  0  0  0  0
   16.8875    9.7500    0.0000 C   0  0  0  0  0  2  0  0  0  0  0  0
   15.5885    9.0000    0.0000 C   0  0  0  0  0  0  0  0  0  0  0  0
   13.9554    8.6331   -0.1550 C   0  0  0  0  0  0  0  0  0  0  0  0
   13.3287    7.0846    0.1695 C   0  0  0  0  0  0  0  0  0  0  0  0
   11.6913    6.7500    0.0000 C   0  0  0  0  0  0  0  0  0  0  0  0
   10.3923    6.0000    0.0000 C   0  0  0  0  0  0  0  0  0  0  0  0
    9.0933    5.2500    0.0000 C   0  0  0  0  0  0  0  0  0  0  0  0
    7.7942    4.5000    0.0000 C   0  0  0  0  0  0  0  0  0  0  0  0
    6.4952    3.7500    0.0000 C   0  0  0  0  0  0  0  0  0  0  0  0
    5.1962    3.0000    0.0000 C   0  0  0  0  0  0  0  0  0  0  0  0
    3.6434    2.7023   -0.4497 C   0  0  0  0  0  0  0  0  0  0  0  0
    2.9838    1.2587    0.0677 C   0  0  0  0  0  0  0  0  0  0  0  0
    1.4691    0.7665   -0.3587 C   0  0  0  0  0  0  0  0  0  0  0  0
    0.7032   -0.5048    0.3165 C   0  0  0  0  0  0  0  0  0  0  0  0
    0.6500   -0.5109    1.5363 O   0  0  0  0  0  0  0  0  0  0  0  0
   -0.0881   -1.4788   -0.3874 O   0  0  0  0  0  0  0  0  0  0  0  0
   -1.2990   -2.2500    0.0000 C   0  0  2  0  0  0  0  0  0  0  0  0
   -2.0490   -0.9510   -0.0000 C   0  0  0  0  0  0  0  0  0  0  0  0
   -2.4958    0.3009    0.6370 O   0  0  0  0  0  0  0  0  0  0  0  0
   -3.7243    0.9810    0.2217 C   0  0  0  0  0  0  0  0  0  0  0  0
   -4.4062    0.4134   -0.6194 O   0  0  0  0  0  0  0  0  0  0  0  0
   -4.3527    2.4294    0.6914 C   0  0  0  0  0  0  0  0  0  0  0  0
   -5.7990    2.9462    0.0000 C   0  0  0  0  0  0  0  0  0  0  0  0
   -6.5490    4.2452    0.0000 C   0  0  0  0  0  0  0  0  0  0  0  0
   -7.2990    5.5442    0.0000 C   0  0  0  0  0  0  0  0  0  0  0  0
   -8.0490    6.8433    0.0000 C   0  0  0  0  0  0  0  0  0  0  0  0
   -8.7990    8.1423    0.0000 C   0  0  0  0  0  0  0  0  0  0  0  0
   -9.5490    9.4413    0.0000 C   0  0  0  0  0  0  0  0  0  0  0  0
   -9.8698   11.0908    0.0287 C   0  0  0  0  0  0  0  0  0  0  0  0
  -11.4493   11.7018   -0.1542 C   0  0  0  0  0  0  0  0  0  0  0  0
  -11.7990   13.3385    0.0000 C   0  0  0  0  0  0  0  0  0  0  0  0
  -12.5490   14.6375    0.0000 C   0  0  0  0  0  0  0  0  0  0  0  0
  -13.2990   15.9365    0.0000 C   0  0  0  0  0  0  0  0  0  0  0  0
  -14.0490   17.2356    0.0000 C   0  0  0  0  0  0  0  0  0  0  0  0
  -12.0000   16.6865    0.0000 C   0  0  0  0  0  0  0  0  0  0  0  0
   -0.5490   -3.5490    0.0000 C   0  0  0  0  0  0  0  0  0  0  0  0
    0.7094   -4.0347    0.6055 O   0  0  0  0  0  0  0  0  0  0  0  0
    1.4214   -5.2208    0.1327 C   0  0  0  0  0  0  0  0  0  0  0  0
    1.0888   -5.6514   -0.9599 O   0  0  0  0  0  0  0  0  0  0  0  0
    2.6138   -6.1253    0.8556 C   0  0  0  0  0  0  0  0  0  0  0  0
    3.2010   -7.4462    0.0000 C   0  0  0  0  0  0  0  0  0  0  0  0
    3.9510   -8.7452    0.0000 C   0  0  0  0  0  0  0  0  0  0  0  0
    4.7010  -10.0442    0.0000 C   0  0  0  0  0  0  0  0  0  0  0  0
    5.4510  -11.3433    0.0000 C   0  0  0  0  0  0  0  0  0  0  0  0
    6.2010  -12.6423    0.0000 C   0  0  0  0  0  0  0  0  0  0  0  0
    6.9510  -13.9413    0.0000 C   0  0  0  0  0  0  0  0  0  0  0  0
    7.4365  -15.4943   -0.4172 C   0  0  0  0  0  0  0  0  0  0  0  0
    8.7100  -16.2792    0.3946 C   0  0  0  0  0  0  0  0  0  0  0  0
    9.2010  -17.8385    0.0000 C   0  0  0  0  0  0  0  0  0  0  0  0
    9.9510  -19.1375    0.0000 C   0  0  3  0  0  3  0  0  0  0  0  0
   10.7010  -20.4365    0.0000 C   0  0  0  0  0  0  0  0  0  0  0  0
   11.2500  -18.3875    0.0000 C   0  0  0  0  0  2  0  0  0  0  0  0
   12.5490  -17.6375    0.0000 C   0  0  0  0  0  0  0  0  0  0  0  0
   27.9869   14.8880   -0.1063 H   0  0  0  0  0  0  0  0  0  0  0  0
   27.1068   16.2808   -0.9632 H   0  0  0  0  0  0  0  0  0  0  0  0
   28.2064   16.2850    0.0000 H   0  0  0  0  0  0  0  0  0  0  0  0
   26.1854   14.3862    0.9076 H   0  0  0  0  0  0  0  0  0  0  0  0
   26.1501   14.3520   -0.8980 H   0  0  0  0  0  0  0  0  0  0  0  0
   23.9011   15.1958   -0.8800 H   0  0  0  0  0  0  0  0  0  0  0  0
   23.9090   15.1899    0.9074 H   0  0  0  0  0  0  0  0  0  0  0  0
   24.1578   12.5994   -0.8917 H   0  0  0  0  0  0  0  0  0  0  0  0
   24.1575   12.5930    0.8948 H   0  0  0  0  0  0  0  0  0  0  0  0
   21.8362   13.3713    0.8859 H   0  0  0  0  0  0  0  0  0  0  0  0
   21.8373   13.3736   -0.8846 H   0  0  0  0  0  0  0  0  0  0  0  0
   19.8547   10.6944   -0.8960 H   0  0  0  0  0  0  0  0  0  0  0  0
   19.8547   10.6943    0.8959 H   0  0  0  0  0  0  0  0  0  0  0  0
   17.8174   11.0556    0.8960 H   0  0  0  0  0  0  0  0  0  0  0  0
   17.8174   11.0557   -0.8959 H   0  0  0  0  0  0  0  0  0  0  0  0
   15.9505    8.1791   -0.6536 H   0  0  0  0  0  0  0  0  0  0  0  0
   15.6914    8.6257    1.0399 H   0  0  0  0  0  0  0  0  0  0  0  0
   13.4092    9.3386    0.5060 H   0  0  0  0  0  0  0  0  0  0  0  0
   13.6726    8.8787   -1.2001 H   0  0  0  0  0  0  0  0  0  0  0  0
   13.5985    6.8462    1.2195 H   0  0  0  0  0  0  0  0  0  0  0  0
   13.8740    6.3690   -0.4813 H   0  0  0  0  0  0  0  0  0  0  0  0
   11.6309    7.1057   -1.0566 H   0  0  0  0  0  0  0  0  0  0  0  0
   11.3662    7.6609    0.5723 H   0  0  0  0  0  0  0  0  0  0  0  0
   10.8819    5.1806   -0.5886 H   0  0  0  0  0  0  0  0  0  0  0  0
   10.6122    5.8924    1.1146 H   0  0  0  0  0  0  0  0  0  0  0  0
    8.6412    6.0658    0.6398 H   0  0  0  0  0  0  0  0  0  0  0  0
    9.4580    4.4280    0.7080 H   0  0  0  0  0  0  0  0  0  0  0  0
    7.4478    5.2944   -0.7432 H   0  0  0  0  0  0  0  0  0  0  0  0
    8.2575    3.6618   -0.6115 H   0  0  0  0  0  0  0  0  0  0  0  0
    6.3432    3.7357   -1.1304 H   0  0  0  0  0  0  0  0  0  0  0  0
    5.9620    4.6247    0.4596 H   0  0  0  0  0  0  0  0  0  0  0  0
    5.5943    2.0097   -0.3433 H   0  0  0  0  0  0  0  0  0  0  0  0
    5.0789    2.8292    1.0977 H   0  0  0  0  0  0  0  0  0  0  0  0
    3.6136    2.7007   -1.5594 H   0  0  0  0  0  0  0  0  0  0  0  0
    3.0026    3.5355   -0.0919 H   0  0  0  0  0  0  0  0  0  0  0  0
    3.6717    0.4448   -0.2432 H   0  0  0  0  0  0  0  0  0  0  0  0
    3.0016    1.2990    1.1771 H   0  0  0  0  0  0  0  0  0  0  0  0
    1.4213    0.6625   -1.4623 H   0  0  0  0  0  0  0  0  0  0  0  0
    0.8291    1.6348   -0.0937 H   0  0  0  0  0  0  0  0  0  0  0  0
   -1.8842   -2.6174   -0.9031 H   0  0  0  0  0  0  0  0  0  0  0  0
   -3.0318   -1.4651    0.1821 H   0  0  0  0  0  0  0  0  0  0  0  0
   -2.0622   -0.6241   -1.0817 H   0  0  0  0  0  0  0  0  0  0  0  0
   -3.5852    3.1956    0.4561 H   0  0  0  0  0  0  0  0  0  0  0  0
   -4.4912    2.4109    1.7923 H   0  0  0  0  0  0  0  0  0  0  0  0
   -6.5374    2.1337    0.2123 H   0  0  0  0  0  0  0  0  0  0  0  0
   -5.5776    2.8057   -1.0844 H   0  0  0  0  0  0  0  0  0  0  0  0
   -6.6228    4.0209    1.1112 H   0  0  0  0  0  0  0  0  0  0  0  0
   -5.6085    4.7825   -0.2837 H   0  0  0  0  0  0  0  0  0  0  0  0
   -8.2363    4.9830    0.2757 H   0  0  0  0  0  0  0  0  0  0  0  0
   -6.8313    5.9138    0.9803 H   0  0  0  0  0  0  0  0  0  0  0  0
   -7.0533    7.3065   -0.3350 H   0  0  0  0  0  0  0  0  0  0  0  0
   -8.6045    6.5418   -0.9330 H   0  0  0  0  0  0  0  0  0  0  0  0
   -8.3315    8.5761   -0.9454 H   0  0  0  0  0  0  0  0  0  0  0  0
   -8.2401    8.4741    0.9136 H   0  0  0  0  0  0  0  0  0  0  0  0
  -10.2191    9.2459   -0.8802 H   0  0  0  0  0  0  0  0  0  0  0  0
  -10.2164    9.2056    0.8640 H   0  0  0  0  0  0  0  0  0  0  0  0
   -9.4763   11.4709    0.9951 H   0  0  0  0  0  0  0  0  0  0  0  0
   -9.2639   11.5561   -0.7766 H   0  0  0  0  0  0  0  0  0  0  0  0
  -12.0965   11.1728    0.5768 H   0  0  0  0  0  0  0  0  0  0  0  0
  -11.7815   11.3928   -1.1675 H   0  0  0  0  0  0  0  0  0  0  0  0
  -10.9203   13.6695   -0.6079 H   0  0  0  0  0  0  0  0  0  0  0  0
  -11.4337   13.4212    1.0495 H   0  0  0  0  0  0  0  0  0  0  0  0
  -13.4368   14.0457    0.3546 H   0  0  0  0  0  0  0  0  0  0  0  0
  -12.6818   14.5810   -1.1155 H   0  0  0  0  0  0  0  0  0  0  0  0
  -13.5187   15.8744    1.1072 H   0  0  0  0  0  0  0  0  0  0  0  0
  -13.9568   17.4567   -1.0956 H   0  0  0  0  0  0  0  0  0  0  0  0
  -15.0703   16.7922    0.1057 H   0  0  0  0  0  0  0  0  0  0  0  0
  -14.5840   18.1623    0.0000 H   0  0  0  0  0  0  0  0  0  0  0  0
  -11.4492   16.3806    0.9418 H   0  0  0  0  0  0  0  0  0  0  0  0
  -11.6456   16.5461   -1.0583 H   0  0  0  0  0  0  0  0  0  0  0  0
  -11.0734   17.2215    0.0000 H   0  0  0  0  0  0  0  0  0  0  0  0
   -1.3077   -4.3052    0.3094 H   0  0  0  0  0  0  0  0  0  0  0  0
   -0.3607   -3.7943   -1.0849 H   0  0  0  0  0  0  0  0  0  0  0  0
    2.1755   -6.5087    1.8000 H   0  0  0  0  0  0  0  0  0  0  0  0
    3.4690   -5.4686    1.1163 H   0  0  0  0  0  0  0  0  0  0  0  0
    3.6258   -6.9294   -0.8919 H   0  0  0  0  0  0  0  0  0  0  0  0
    2.1633   -7.7754   -0.2922 H   0  0  0  0  0  0  0  0  0  0  0  0
    3.3162   -9.1055    0.8533 H   0  0  0  0  0  0  0  0  0  0  0  0
    3.4853   -9.0704   -0.9793 H   0  0  0  0  0  0  0  0  0  0  0  0
    5.3689   -9.6872   -0.8439 H   0  0  0  0  0  0  0  0  0  0  0  0
    5.2942   -9.6671    0.8847 H   0  0  0  0  0  0  0  0  0  0  0  0
    4.7464  -11.6207   -0.8517 H   0  0  0  0  0  0  0  0  0  0  0  0
    4.9625  -11.6276    0.9778 H   0  0  0  0  0  0  0  0  0  0  0  0
    5.2896  -13.3219   -0.0364 H   0  0  0  0  0  0  0  0  0  0  0  0
    6.5887  -12.4317   -1.0343 H   0  0  0  0  0  0  0  0  0  0  0  0
    6.8129  -14.1768    1.0853 H   0  0  0  0  0  0  0  0  0  0  0  0
    7.9877  -13.5199   -0.0085 H   0  0  0  0  0  0  0  0  0  0  0  0
    7.7126  -15.4675   -1.4922 H   0  0  0  0  0  0  0  0  0  0  0  0
    6.5423  -16.1457   -0.3232 H   0  0  0  0  0  0  0  0  0  0  0  0
    9.6013  -15.6285    0.2734 H   0  0  0  0  0  0  0  0  0  0  0  0
    8.4546  -16.2866    1.4751 H   0  0  0  0  0  0  0  0  0  0  0  0
    8.2070  -18.3076    0.1583 H   0  0  0  0  0  0  0  0  0  0  0  0
    9.2253  -17.6547   -1.1042 H   0  0  0  0  0  0  0  0  0  0  0  0
    9.8389  -21.0256    0.3762 H   0  0  0  0  0  0  0  0  0  0  0  0
   10.7231  -20.5506   -1.1105 H   0  0  0  0  0  0  0  0  0  0  0  0
   11.2360  -21.3631    0.0000 H   0  0  0  0  0  0  0  0  0  0  0  0
   13.0505  -18.3462   -0.6906 H   0  0  0  0  0  0  0  0  0  0  0  0
   12.1465  -16.7804   -0.5781 H   0  0  0  0  0  0  0  0  0  0  0  0
   13.4756  -17.1025    0.0000 H   0  0  0  0  0  0  0  0  0  0  0  0
  1  2  1  0  0  0  0
  1 62  1  0  0  0  0
  1 63  1  0  0  0  0
  1 64  1  0  0  0  0
  2  3  1  0  0  0  0
  2 65  1  0  0  0  0
  2 66  1  0  0  0  0
  3  4  1  0  0  0  0
  3 67  1  0  0  0  0
  3 68  1  0  0  0  0
  4  5  1  0  0  0  0
  4 69  1  0  0  0  0
  4 70  1  0  0  0  0
  5  6  1  0  0  0  0
  5 71  1  0  0  0  0
  5 72  1  0  0  0  0
  6  7  1  0  0  0  0
  7  8  1  0  0  0  0
  7 73  1  0  0  0  0
  7 74  1  0  0  0  0
  8  9  1  0  0  0  0
  8 75  1  0  0  0  0
  8 76  1  0  0  0  0
  9 10  1  0  0  0  0
 10 11  1  0  0  0  0
 10 77  1  0  0  0  0
 10 78  1  0  0  0  0
 11 12  1  0  0  0  0
 11 79  1  0  0  0  0
 11 80  1  0  0  0  0
 12 13  1  0  0  0  0
 12 81  1  0  0  0  0
 12 82  1  0  0  0  0
 13 14  1  0  0  0  0
 13 83  1  0  0  0  0
 13 84  1  0  0  0  0
 14 15  1  0  0  0  0
 14 85  1  0  0  0  0
 14 86  1  0  0  0  0
 15 16  1  0  0  0  0
 15 87  1  0  0  0  0
 15 88  1  0  0  0  0
 16 17  1  0  0  0  0
 16 89  1  0  0  0  0
 16 90  1  0  0  0  0
 17 18  1  0  0  0  0
 17 91  1  0  0  0  0
 17 92  1  0  0  0  0
 18 19  1  0  0  0  0
 18 93  1  0  0  0  0
 18 94  1  0  0  0  0
 19 20  1  0  0  0  0
 19 95  1  0  0  0  0
 19 96  1  0  0  0  0
 20 21  1  0  0  0  0
 20 97  1  0  0  0  0
 20 98  1  0  0  0  0
 21 22  1  0  0  0  0
 21 99  1  0  0  0  0
 21100  1  0  0  0  0
 22 23  2  0  0  0  0
 22 24  1  0  0  0  0
 24 25  1  0  0  0  0
 25 26  1  0  0  0  0
 25 44  1  0  0  0  0
 25101  1  6  0  0  0
 26 27  1  0  0  0  0
 26102  1  0  0  0  0
 26103  1  0  0  0  0
 27 28  1  0  0  0  0
 28 29  2  0  0  0  0
 28 30  1  0  0  0  0
 30 31  1  0  0  0  0
 30104  1  0  0  0  0
 30105  1  0  0  0  0
 31 32  1  0  0  0  0
 31106  1  0  0  0  0
 31107  1  0  0  0  0
 32 33  1  0  0  0  0
 32108  1  0  0  0  0
 32109  1  0  0  0  0
 33 34  1  0  0  0  0
 33110  1  0  0  0  0
 33111  1  0  0  0  0
 34 35  1  0  0  0  0
 34112  1  0  0  0  0
 34113  1  0  0  0  0
 35 36  1  0  0  0  0
 35114  1  0  0  0  0
 35115  1  0  0  0  0
 36 37  1  0  0  0  0
 36116  1  0  0  0  0
 36117  1  0  0  0  0
 37 38  1  0  0  0  0
 37118  1  0  0  0  0
 37119  1  0  0  0  0
 38 39  1  0  0  0  0
 38120  1  0  0  0  0
 38121  1  0  0  0  0
 39 40  1  0  0  0  0
 39122  1  0  0  0  0
 39123  1  0  0  0  0
 40 41  1  0  0  0  0
 40124  1  0  0  0  0
 40125  1  0  0  0  0
 41 42  1  0  0  0  0
 41 43  1  0  0  0  0
 41126  1  0  0  0  0
 42127  1  0  0  0  0
 42128  1  0  0  0  0
 42129  1  0  0  0  0
 43130  1  0  0  0  0
 43131  1  0  0  0  0
 43132  1  0  0  0  0
 44 45  1  0  0  0  0
 44133  1  0  0  0  0
 44134  1  0  0  0  0
 45 46  1  0  0  0  0
 46 47  2  0  0  0  0
 46 48  1  0  0  0  0
 48 49  1  0  0  0  0
 48135  1  0  0  0  0
 48136  1  0  0  0  0
 49 50  1  0  0  0  0
 49137  1  0  0  0  0
 49138  1  0  0  0  0
 50 51  1  0  0  0  0
 50139  1  0  0  0  0
 50140  1  0  0  0  0
 51 52  1  0  0  0  0
 51141  1  0  0  0  0
 51142  1  0  0  0  0
 52 53  1  0  0  0  0
 52143  1  0  0  0  0
 52144  1  0  0  0  0
 53 54  1  0  0  0  0
 53145  1  0  0  0  0
 53146  1  0  0  0  0
 54 55  1  0  0  0  0
 54147  1  0  0  0  0
 54148  1  0  0  0  0
 55 56  1  0  0  0  0
 55149  1  0  0  0  0
 55150  1  0  0  0  0
 56 57  1  0  0  0  0
 56151  1  0  0  0  0
 56152  1  0  0  0  0
 57 58  1  0  0  0  0
 57153  1  0  0  0  0
 57154  1  0  0  0  0
 58 59  1  0  0  0  0
 58 60  1  0  0  0  0
 59155  1  0  0  0  0
 59156  1  0  0  0  0
 59157  1  0  0  0  0
 60 61  1  0  0  0  0
 61158  1  0  0  0  0
 61159  1  0  0  0  0
 61160  1  0  0  0  0
M  END
>  <IDENTIFIER>
CNP0587612.2

>  <Energy>
14205.7

$$$$
