
 OpenBabel09052522513D

 23 23  0  0  0  0  0  0  0  0999 V2000
   -3.0818   -0.8068   -1.1121 N   0  0  0  0  0  0  0  0  0  0  0  0
   -1.9118    0.0155   -0.7700 C   0  0  1  0  0  0  0  0  0  0  0  0
   -2.3494    1.3405   -0.1492 C   0  0  0  0  0  0  0  0  0  0  0  0
   -3.5361    1.5612    0.0394 O   0  0  0  0  0  0  0  0  0  0  0  0
   -1.4634    2.2986    0.1977 O   0  0  0  0  0  0  0  0  0  0  0  0
   -0.9950   -0.7612    0.1708 C   0  0  0  0  0  0  0  0  0  0  0  0
   -1.4942   -1.6551    0.8402 O   0  0  0  0  0  0  0  0  0  0  0  0
    0.4850   -0.5105    0.2922 C   0  0  0  0  0  0  0  0  0  0  0  0
    1.1603    0.3709   -0.5787 C   0  0  0  0  0  0  0  0  0  0  0  0
    2.5368    0.5913   -0.4517 C   0  0  0  0  0  0  0  0  0  0  0  0
    3.1853    1.4376   -1.2780 O   0  0  0  0  0  0  0  0  0  0  0  0
    3.2426   -0.0763    0.5439 C   0  0  0  0  0  0  0  0  0  0  0  0
    2.5977   -0.9318    1.3746 N   0  0  0  0  0  0  0  0  0  0  0  0
    1.2606   -1.1695    1.2813 C   0  0  0  0  0  0  0  0  0  0  0  0
    0.6930   -2.0327    2.1471 O   0  0  0  0  0  0  0  0  0  0  0  0
   -3.6656   -0.3111   -1.8253 H   0  0  0  0  0  0  0  0  0  0  0  0
   -3.6723   -0.9865   -0.2664 H   0  0  0  0  0  0  0  0  0  0  0  0
   -1.3841    0.2029   -1.7264 H   0  0  0  0  0  0  0  0  0  0  0  0
   -0.5128    2.2139    0.0761 H   0  0  0  0  0  0  0  0  0  0  0  0
    0.6393    0.8948   -1.3650 H   0  0  0  0  0  0  0  0  0  0  0  0
    2.7286    1.9225   -1.9801 H   0  0  0  0  0  0  0  0  0  0  0  0
    4.3072    0.0809    0.6585 H   0  0  0  0  0  0  0  0  0  0  0  0
    1.2149   -2.4856    2.8243 H   0  0  0  0  0  0  0  0  0  0  0  0
  1 16  1  0  0  0  0
  1 17  1  0  0  0  0
  2  1  1  0  0  0  0
  2  3  1  0  0  0  0
  2  6  1  0  0  0  0
  2 18  1  6  0  0  0
  3  4  2  0  0  0  0
  3  5  1  0  0  0  0
  5 19  1  0  0  0  0
  6  7  2  0  0  0  0
  6  8  1  0  0  0  0
  8  9  2  0  0  0  0
  9 10  1  0  0  0  0
  9 20  1  0  0  0  0
 10 11  1  0  0  0  0
 10 12  2  0  0  0  0
 11 21  1  0  0  0  0
 12 13  1  0  0  0  0
 12 22  1  0  0  0  0
 13 14  2  0  0  0  0
 14 15  1  0  0  0  0
 14  8  1  0  0  0  0
 15 23  1  0  0  0  0
M  END
>  <IDENTIFIER>
CNP0454924.0

>  <Energy>
149.446

$$$$
