
 OpenBabel09062523543D

 73 77  0  0  0  0  0  0  0  0999 V2000
   -8.4298   -1.1139   -1.0548 C   0  0  0  0  0  0  0  0  0  0  0  0
   -7.9521    0.3195   -0.7399 C   0  0  1  0  0  0  0  0  0  0  0  0
   -8.4921    1.2531   -1.7425 N   0  0  0  0  0  0  0  0  0  0  0  0
   -8.3917    0.7407    0.6930 C   0  0  0  0  0  0  0  0  0  0  0  0
   -9.8868    0.8237    0.8987 C   0  0  0  0  0  0  0  0  0  0  0  0
  -10.5871    1.9905    0.5458 C   0  0  0  0  0  0  0  0  0  0  0  0
  -11.9671    2.0751    0.7507 C   0  0  0  0  0  0  0  0  0  0  0  0
  -12.6597    0.9963    1.3060 C   0  0  0  0  0  0  0  0  0  0  0  0
  -11.9721   -0.1665    1.6635 C   0  0  0  0  0  0  0  0  0  0  0  0
  -10.5901   -0.2523    1.4678 C   0  0  0  0  0  0  0  0  0  0  0  0
   -6.4324    0.3461   -0.7804 C   0  0  0  0  0  0  0  0  0  0  0  0
   -5.8458    1.0550   -1.5894 O   0  0  0  0  0  0  0  0  0  0  0  0
   -5.7306   -0.3776    0.1307 O   0  0  0  0  0  0  0  0  0  0  0  0
   -4.3815   -0.3895    0.1897 C   0  0  0  0  0  0  0  0  0  0  0  0
   -3.6300   -1.1288   -0.7267 C   0  0  0  0  0  0  0  0  0  0  0  0
   -2.2331   -1.1338   -0.6503 C   0  0  0  0  0  0  0  0  0  0  0  0
   -1.5553   -0.3821    0.3391 C   0  0  0  0  0  0  0  0  0  0  0  0
   -0.0505   -0.3578    0.4373 C   0  0  0  0  0  0  0  0  0  0  0  0
    0.5989    0.7704    0.9814 C   0  0  0  0  0  0  0  0  0  0  0  0
    1.9201    0.8318    1.0746 O   0  0  0  0  0  0  0  0  0  0  0  0
    2.7172   -0.1520    0.6862 C   0  0  0  0  0  0  0  0  0  0  0  0
    4.1007   -0.0042    0.8319 C   0  0  0  0  0  0  0  0  0  0  0  0
    4.9633   -1.0309    0.4415 C   0  0  0  0  0  0  0  0  0  0  0  0
    6.2986   -0.8929    0.5896 O   0  0  0  0  0  0  0  0  0  0  0  0
    7.1180   -0.4182   -0.3834 C   0  0  0  0  0  0  0  0  0  0  0  0
    6.6594   -0.0098   -1.4424 O   0  0  0  0  0  0  0  0  0  0  0  0
    8.6138   -0.4082   -0.1692 C   0  0  2  0  0  0  0  0  0  0  0  0
    8.9354   -1.0421    1.1155 N   0  0  0  0  0  0  0  0  0  0  0  0
    9.1490    1.0395   -0.2159 C   0  0  0  0  0  0  0  0  0  0  0  0
   10.6502    1.0850   -0.0727 C   0  0  0  0  0  0  0  0  0  0  0  0
   11.2362    1.6438    1.0760 C   0  0  0  0  0  0  0  0  0  0  0  0
   12.6267    1.6714    1.2155 C   0  0  0  0  0  0  0  0  0  0  0  0
   13.4427    1.1533    0.2066 C   0  0  0  0  0  0  0  0  0  0  0  0
   12.8693    0.6034   -0.9431 C   0  0  0  0  0  0  0  0  0  0  0  0
   11.4783    0.5644   -1.0827 C   0  0  0  0  0  0  0  0  0  0  0  0
    4.4446   -2.2124   -0.0903 C   0  0  0  0  0  0  0  0  0  0  0  0
    3.0610   -2.3799   -0.2468 C   0  0  0  0  0  0  0  0  0  0  0  0
    2.5894   -3.5372   -0.7591 O   0  0  0  0  0  0  0  0  0  0  0  0
    2.1782   -1.3392    0.1387 C   0  0  0  0  0  0  0  0  0  0  0  0
    0.7737   -1.4313    0.0105 C   0  0  0  0  0  0  0  0  0  0  0  0
    0.2741   -2.4486   -0.4363 O   0  0  0  0  0  0  0  0  0  0  0  0
   -2.3396    0.3646    1.2483 C   0  0  0  0  0  0  0  0  0  0  0  0
   -3.7334    0.3494    1.1785 C   0  0  0  0  0  0  0  0  0  0  0  0
   -9.5385   -1.1731   -1.0451 H   0  0  0  0  0  0  0  0  0  0  0  0
   -8.0338   -1.8361   -0.3085 H   0  0  0  0  0  0  0  0  0  0  0  0
   -8.0796   -1.4249   -2.0627 H   0  0  0  0  0  0  0  0  0  0  0  0
   -9.5347    1.1906   -1.7759 H   0  0  0  0  0  0  0  0  0  0  0  0
   -8.1505    0.9922   -2.6968 H   0  0  0  0  0  0  0  0  0  0  0  0
   -7.9451    1.7212    0.9715 H   0  0  0  0  0  0  0  0  0  0  0  0
   -7.9749    0.0064    1.4189 H   0  0  0  0  0  0  0  0  0  0  0  0
  -10.0619    2.8363    0.1193 H   0  0  0  0  0  0  0  0  0  0  0  0
  -12.4989    2.9780    0.4800 H   0  0  0  0  0  0  0  0  0  0  0  0
  -13.7287    1.0627    1.4616 H   0  0  0  0  0  0  0  0  0  0  0  0
  -12.5099   -1.0013    2.0937 H   0  0  0  0  0  0  0  0  0  0  0  0
  -10.0707   -1.1597    1.7503 H   0  0  0  0  0  0  0  0  0  0  0  0
   -4.1283   -1.7014   -1.4990 H   0  0  0  0  0  0  0  0  0  0  0  0
   -1.7039   -1.7085   -1.3938 H   0  0  0  0  0  0  0  0  0  0  0  0
    0.0403    1.6336    1.3104 H   0  0  0  0  0  0  0  0  0  0  0  0
    4.5049    0.9098    1.2515 H   0  0  0  0  0  0  0  0  0  0  0  0
    9.0703   -1.0125   -0.9836 H   0  0  0  0  0  0  0  0  0  0  0  0
    8.5762   -0.4589    1.9078 H   0  0  0  0  0  0  0  0  0  0  0  0
    9.9705   -1.1450    1.2195 H   0  0  0  0  0  0  0  0  0  0  0  0
    8.6645    1.6111    0.6067 H   0  0  0  0  0  0  0  0  0  0  0  0
    8.8718    1.5334   -1.1731 H   0  0  0  0  0  0  0  0  0  0  0  0
   10.6176    2.0451    1.8689 H   0  0  0  0  0  0  0  0  0  0  0  0
   13.0712    2.0936    2.1073 H   0  0  0  0  0  0  0  0  0  0  0  0
   14.5192    1.1780    0.3160 H   0  0  0  0  0  0  0  0  0  0  0  0
   13.5029    0.2058   -1.7254 H   0  0  0  0  0  0  0  0  0  0  0  0
   11.0475    0.1352   -1.9788 H   0  0  0  0  0  0  0  0  0  0  0  0
    5.1234   -3.0049   -0.3813 H   0  0  0  0  0  0  0  0  0  0  0  0
    3.1728   -4.2665   -1.0131 H   0  0  0  0  0  0  0  0  0  0  0  0
   -1.8896    0.9489    2.0376 H   0  0  0  0  0  0  0  0  0  0  0  0
   -4.3128    0.9222    1.8920 H   0  0  0  0  0  0  0  0  0  0  0  0
  1 44  1  0  0  0  0
  1 45  1  0  0  0  0
  1 46  1  0  0  0  0
  2  1  1  0  0  0  0
  2  3  1  0  0  0  0
  2  4  1  0  0  0  0
  2 11  1  6  0  0  0
  3 47  1  0  0  0  0
  3 48  1  0  0  0  0
  4  5  1  0  0  0  0
  4 49  1  0  0  0  0
  4 50  1  0  0  0  0
  5  6  2  0  0  0  0
  6  7  1  0  0  0  0
  6 51  1  0  0  0  0
  7  8  2  0  0  0  0
  7 52  1  0  0  0  0
  8  9  1  0  0  0  0
  8 53  1  0  0  0  0
  9 10  2  0  0  0  0
  9 54  1  0  0  0  0
 10  5  1  0  0  0  0
 10 55  1  0  0  0  0
 11 12  2  0  0  0  0
 11 13  1  0  0  0  0
 13 14  1  0  0  0  0
 14 15  2  0  0  0  0
 15 16  1  0  0  0  0
 15 56  1  0  0  0  0
 16 17  2  0  0  0  0
 16 57  1  0  0  0  0
 17 18  1  0  0  0  0
 17 42  1  0  0  0  0
 18 19  2  0  0  0  0
 19 20  1  0  0  0  0
 19 58  1  0  0  0  0
 20 21  1  0  0  0  0
 21 22  2  0  0  0  0
 22 23  1  0  0  0  0
 22 59  1  0  0  0  0
 23 24  1  0  0  0  0
 23 36  2  0  0  0  0
 24 25  1  0  0  0  0
 25 26  2  0  0  0  0
 25 27  1  0  0  0  0
 27 28  1  0  0  0  0
 27 29  1  0  0  0  0
 27 60  1  6  0  0  0
 28 61  1  0  0  0  0
 28 62  1  0  0  0  0
 29 30  1  0  0  0  0
 29 63  1  0  0  0  0
 29 64  1  0  0  0  0
 30 31  2  0  0  0  0
 31 32  1  0  0  0  0
 31 65  1  0  0  0  0
 32 33  2  0  0  0  0
 32 66  1  0  0  0  0
 33 34  1  0  0  0  0
 33 67  1  0  0  0  0
 34 35  2  0  0  0  0
 34 68  1  0  0  0  0
 35 30  1  0  0  0  0
 35 69  1  0  0  0  0
 36 37  1  0  0  0  0
 36 70  1  0  0  0  0
 37 38  1  0  0  0  0
 37 39  2  0  0  0  0
 38 71  1  0  0  0  0
 39 40  1  0  0  0  0
 39 21  1  0  0  0  0
 40 41  2  0  0  0  0
 40 18  1  0  0  0  0
 42 43  2  0  0  0  0
 42 72  1  0  0  0  0
 43 14  1  0  0  0  0
 43 73  1  0  0  0  0
M  END
>  <IDENTIFIER>
CNP0219378.4

>  <Energy>
616.527

$$$$
