
 OpenBabel09092505463D

122131  0  0  0  0  0  0  0  0999 V2000
   -0.3640   -4.4181    2.1596 C   0  0  0  0  0  0  0  0  0  0  0  0
   -0.5371   -3.5972    0.8774 C   0  0  2  0  0  0  0  0  0  0  0  0
    0.7272   -3.6704    0.0087 C   0  0  0  0  0  0  0  0  0  0  0  0
    0.5125   -2.8076   -1.2008 C   0  0  0  0  0  0  0  0  0  0  0  0
    0.5321   -3.3067   -2.3169 O   0  0  0  0  0  0  0  0  0  0  0  0
    0.2000   -1.3237   -1.0029 C   0  0  2  0  0  0  0  0  0  0  0  0
   -0.1217   -0.7282   -2.2401 O   0  0  0  0  0  0  0  0  0  0  0  0
    1.3851   -0.5229   -0.3884 C   0  0  0  0  0  0  0  0  0  0  0  0
    1.1163    0.5860    0.4413 C   0  0  0  0  0  0  0  0  0  0  0  0
   -0.2943    0.9681    0.6800 C   0  0  0  0  0  0  0  0  0  0  0  0
   -1.3049    0.1703    0.3638 C   0  0  0  0  0  0  0  0  0  0  0  0
   -1.0807   -1.2742   -0.0882 C   0  0  1  0  0  0  0  0  0  0  0  0
   -2.1739   -1.8487   -0.8370 O   0  0  0  0  0  0  0  0  0  0  0  0
   -3.4636   -1.3743   -0.4813 C   0  0  2  0  0  0  0  0  0  0  0  0
   -4.5245   -2.4606   -0.7173 C   0  0  0  0  0  0  0  0  0  0  0  0
   -5.8960   -1.9252   -0.2049 C   0  0  1  0  0  0  0  0  0  0  0  0
   -5.8754   -1.6717    1.2792 N   0  0  0  0  0  0  0  0  0  0  0  0
   -7.1770   -1.2158    1.8094 C   0  0  0  0  0  0  0  0  0  0  0  0
   -5.4746   -2.8720    2.0458 C   0  0  0  0  0  0  0  0  0  0  0  0
   -6.1626   -0.6494   -1.0691 C   0  0  1  0  0  0  0  0  0  0  0  0
   -7.3618    0.0186   -0.7367 O   0  0  0  0  0  0  0  0  0  0  0  0
   -8.4996   -0.4231   -1.4475 C   0  0  2  0  0  0  0  0  0  0  0  0
   -8.9580    0.7236   -2.4074 C   0  0  0  0  0  0  0  0  0  0  0  0
  -10.4577    0.5726   -2.6875 C   0  0  1  0  0  0  0  0  0  0  0  0
  -10.7010   -0.6354   -3.3747 O   0  0  0  0  0  0  0  0  0  0  0  0
  -11.2332    0.6695   -1.3336 C   0  0  1  0  0  0  0  0  0  0  0  0
  -12.4517   -0.0311   -1.4042 O   0  0  0  0  0  0  0  0  0  0  0  0
  -10.3240    0.2505   -0.1341 C   0  0  1  0  0  0  0  0  0  0  0  0
  -11.0977   -0.0678    1.1452 C   0  0  0  0  0  0  0  0  0  0  0  0
   -9.5007   -0.8343   -0.5054 O   0  0  0  0  0  0  0  0  0  0  0  0
   -4.9989    0.3690   -0.9729 C   0  0  1  0  0  0  0  0  0  0  0  0
   -4.9448    1.1935    0.3264 C   0  0  0  0  0  0  0  0  0  0  0  0
   -3.7457   -0.2265   -1.2757 O   0  0  0  0  0  0  0  0  0  0  0  0
   -0.8554   -2.1230    1.2064 C   0  0  0  0  0  0  0  0  0  0  0  0
    2.1682    1.3711    0.9698 C   0  0  0  0  0  0  0  0  0  0  0  0
    1.8846    2.3891    1.8101 O   0  0  0  0  0  0  0  0  0  0  0  0
    3.5214    1.1077    0.6127 C   0  0  0  0  0  0  0  0  0  0  0  0
    4.6330    1.8548    1.1295 C   0  0  0  0  0  0  0  0  0  0  0  0
    4.5154    2.8692    2.0216 O   0  0  0  0  0  0  0  0  0  0  0  0
    5.9435    1.5323    0.7212 C   0  0  0  0  0  0  0  0  0  0  0  0
    7.1890    2.2445    1.2706 C   0  0  1  0  0  0  0  0  0  0  0  0
    7.8716    3.0816    0.1521 C   0  0  0  0  0  0  0  0  0  0  0  0
    8.7240    4.2418    0.7363 C   0  0  1  0  0  0  0  0  0  0  0  0
    7.9782    5.4304    0.8942 O   0  0  0  0  0  0  0  0  0  0  0  0
    9.2999    3.7993    2.0905 C   0  0  2  0  0  0  0  0  0  0  0  0
   10.0684    2.6364    1.9048 O   0  0  0  0  0  0  0  0  0  0  0  0
    8.1096    3.4848    3.0632 C   0  0  1  0  0  0  0  0  0  0  0  0
    7.7445    4.7125    3.9089 C   0  0  0  0  0  0  0  0  0  0  0  0
    6.9165    3.0638    2.3919 O   0  0  0  0  0  0  0  0  0  0  0  0
    6.1389    0.5239   -0.2272 C   0  0  0  0  0  0  0  0  0  0  0  0
    5.0883   -0.1991   -0.8148 C   0  0  0  0  0  0  0  0  0  0  0  0
    5.3089   -1.2367   -1.7977 C   0  0  0  0  0  0  0  0  0  0  0  0
    6.4981   -1.4575   -2.4935 C   0  0  0  0  0  0  0  0  0  0  0  0
    6.8792   -2.7052   -3.2283 C   0  0  0  0  0  0  0  0  0  0  0  0
    8.0668   -2.6389   -3.7052 N   0  0  0  0  0  0  0  0  0  0  0  0
    8.5722   -1.3544   -3.4704 C   0  0  0  0  0  0  0  0  0  0  0  0
    9.7885   -0.8652   -3.9447 C   0  0  0  0  0  0  0  0  0  0  0  0
   10.0877    0.4870   -3.7378 C   0  0  0  0  0  0  0  0  0  0  0  0
    9.1543    1.3236   -3.1050 C   0  0  0  0  0  0  0  0  0  0  0  0
    7.9333    0.8059   -2.6440 C   0  0  0  0  0  0  0  0  0  0  0  0
    7.6714   -0.5724   -2.7803 C   0  0  0  0  0  0  0  0  0  0  0  0
    4.1715   -2.0557   -2.0753 C   0  0  0  0  0  0  0  0  0  0  0  0
    4.2170   -2.9815   -2.8621 O   0  0  0  0  0  0  0  0  0  0  0  0
    2.9827   -1.7661   -1.5837 O   0  0  0  0  0  0  0  0  0  0  0  0
    2.7230   -0.7586   -0.7739 C   0  0  0  0  0  0  0  0  0  0  0  0
    3.7778    0.0553   -0.3186 C   0  0  0  0  0  0  0  0  0  0  0  0
   -0.1599   -5.4809    1.9086 H   0  0  0  0  0  0  0  0  0  0  0  0
   -1.2946   -4.3782    2.7656 H   0  0  0  0  0  0  0  0  0  0  0  0
    0.4775   -4.0247    2.7691 H   0  0  0  0  0  0  0  0  0  0  0  0
   -1.3915   -4.0315    0.3103 H   0  0  0  0  0  0  0  0  0  0  0  0
    0.9249   -4.7240   -0.2887 H   0  0  0  0  0  0  0  0  0  0  0  0
    1.6078   -3.2923    0.5726 H   0  0  0  0  0  0  0  0  0  0  0  0
    0.6801   -0.7797   -2.8248 H   0  0  0  0  0  0  0  0  0  0  0  0
   -0.5624    1.9395    1.0732 H   0  0  0  0  0  0  0  0  0  0  0  0
   -2.2799    0.5795    0.5634 H   0  0  0  0  0  0  0  0  0  0  0  0
   -3.4945   -1.1649    0.6076 H   0  0  0  0  0  0  0  0  0  0  0  0
   -4.2416   -3.4095   -0.2219 H   0  0  0  0  0  0  0  0  0  0  0  0
   -4.5752   -2.6940   -1.8041 H   0  0  0  0  0  0  0  0  0  0  0  0
   -6.6804   -2.6822   -0.4315 H   0  0  0  0  0  0  0  0  0  0  0  0
   -7.3785   -0.1664    1.5326 H   0  0  0  0  0  0  0  0  0  0  0  0
   -7.1678   -1.1809    2.9205 H   0  0  0  0  0  0  0  0  0  0  0  0
   -8.0033   -1.8844    1.4844 H   0  0  0  0  0  0  0  0  0  0  0  0
   -4.4066   -3.1146    1.8843 H   0  0  0  0  0  0  0  0  0  0  0  0
   -6.1146   -3.7448    1.7897 H   0  0  0  0  0  0  0  0  0  0  0  0
   -5.5399   -2.6863    3.1402 H   0  0  0  0  0  0  0  0  0  0  0  0
   -6.1665   -0.9636   -2.1420 H   0  0  0  0  0  0  0  0  0  0  0  0
   -8.3181   -1.3242   -2.0782 H   0  0  0  0  0  0  0  0  0  0  0  0
   -8.3362    0.7378   -3.3280 H   0  0  0  0  0  0  0  0  0  0  0  0
   -8.8256    1.7107   -1.9100 H   0  0  0  0  0  0  0  0  0  0  0  0
  -10.8235    1.3857   -3.3510 H   0  0  0  0  0  0  0  0  0  0  0  0
  -10.5690   -1.3969   -2.7556 H   0  0  0  0  0  0  0  0  0  0  0  0
  -11.4822    1.7330   -1.1208 H   0  0  0  0  0  0  0  0  0  0  0  0
  -12.2551   -0.9972   -1.2988 H   0  0  0  0  0  0  0  0  0  0  0  0
   -9.6649    1.1108    0.1380 H   0  0  0  0  0  0  0  0  0  0  0  0
  -11.7649   -0.9426    1.0009 H   0  0  0  0  0  0  0  0  0  0  0  0
  -11.7051    0.8097    1.4533 H   0  0  0  0  0  0  0  0  0  0  0  0
  -10.3831   -0.3082    1.9614 H   0  0  0  0  0  0  0  0  0  0  0  0
   -5.1970    1.1191   -1.7709 H   0  0  0  0  0  0  0  0  0  0  0  0
   -4.7418    0.5795    1.2223 H   0  0  0  0  0  0  0  0  0  0  0  0
   -5.9043    1.7298    0.4803 H   0  0  0  0  0  0  0  0  0  0  0  0
   -4.1466    1.9605    0.2402 H   0  0  0  0  0  0  0  0  0  0  0  0
   -1.7672   -2.0838    1.8411 H   0  0  0  0  0  0  0  0  0  0  0  0
   -0.0159   -1.6997    1.8022 H   0  0  0  0  0  0  0  0  0  0  0  0
    1.0286    2.6127    2.1910 H   0  0  0  0  0  0  0  0  0  0  0  0
    3.7521    3.2398    2.4657 H   0  0  0  0  0  0  0  0  0  0  0  0
    7.8747    1.4412    1.6308 H   0  0  0  0  0  0  0  0  0  0  0  0
    7.1462    3.5227   -0.5670 H   0  0  0  0  0  0  0  0  0  0  0  0
    8.5186    2.3774   -0.4100 H   0  0  0  0  0  0  0  0  0  0  0  0
    9.5258    4.4769    0.0037 H   0  0  0  0  0  0  0  0  0  0  0  0
    7.0153    5.2128    0.9952 H   0  0  0  0  0  0  0  0  0  0  0  0
    9.9611    4.5728    2.5472 H   0  0  0  0  0  0  0  0  0  0  0  0
   10.9092    2.9164    1.4565 H   0  0  0  0  0  0  0  0  0  0  0  0
    8.4331    2.7161    3.8003 H   0  0  0  0  0  0  0  0  0  0  0  0
    7.3848    5.5574    3.2908 H   0  0  0  0  0  0  0  0  0  0  0  0
    8.6237    5.0511    4.4974 H   0  0  0  0  0  0  0  0  0  0  0  0
    6.9364    4.4437    4.6225 H   0  0  0  0  0  0  0  0  0  0  0  0
    7.1561    0.2744   -0.4431 H   0  0  0  0  0  0  0  0  0  0  0  0
    6.3358   -3.6339   -3.2848 H   0  0  0  0  0  0  0  0  0  0  0  0
   10.4737   -1.5060   -4.4841 H   0  0  0  0  0  0  0  0  0  0  0  0
   11.0197    0.8977   -4.1037 H   0  0  0  0  0  0  0  0  0  0  0  0
    9.3676    2.3790   -2.9922 H   0  0  0  0  0  0  0  0  0  0  0  0
    7.2187    1.4954   -2.2282 H   0  0  0  0  0  0  0  0  0  0  0  0
  1 67  1  0  0  0  0
  1 68  1  0  0  0  0
  1 69  1  0  0  0  0
  2  1  1  0  0  0  0
  2  3  1  0  0  0  0
  2 70  1  6  0  0  0
  3  4  1  0  0  0  0
  3 71  1  0  0  0  0
  3 72  1  0  0  0  0
  4  5  2  0  0  0  0
  4  6  1  0  0  0  0
  6  7  1  6  0  0  0
  6  8  1  0  0  0  0
  7 73  1  0  0  0  0
  8  9  2  0  0  0  0
  9 10  1  0  0  0  0
  9 35  1  0  0  0  0
 10 11  2  0  0  0  0
 10 74  1  0  0  0  0
 11 12  1  0  0  0  0
 11 75  1  0  0  0  0
 12 13  1  6  0  0  0
 12 34  1  0  0  0  0
 12  6  1  0  0  0  0
 14 13  1  0  0  0  0
 14 15  1  0  0  0  0
 14 76  1  1  0  0  0
 15 16  1  0  0  0  0
 15 77  1  0  0  0  0
 15 78  1  0  0  0  0
 16 17  1  0  0  0  0
 16 20  1  0  0  0  0
 16 79  1  6  0  0  0
 17 18  1  0  0  0  0
 17 19  1  0  0  0  0
 18 80  1  0  0  0  0
 18 81  1  0  0  0  0
 18 82  1  0  0  0  0
 19 83  1  0  0  0  0
 19 84  1  0  0  0  0
 19 85  1  0  0  0  0
 20 21  1  0  0  0  0
 20 31  1  0  0  0  0
 20 86  1  6  0  0  0
 22 21  1  0  0  0  0
 22 23  1  0  0  0  0
 22 87  1  6  0  0  0
 23 24  1  0  0  0  0
 23 88  1  0  0  0  0
 23 89  1  0  0  0  0
 24 25  1  0  0  0  0
 24 26  1  0  0  0  0
 24 90  1  6  0  0  0
 25 91  1  0  0  0  0
 26 27  1  0  0  0  0
 26 28  1  0  0  0  0
 26 92  1  1  0  0  0
 27 93  1  0  0  0  0
 28 29  1  0  0  0  0
 28 30  1  0  0  0  0
 28 94  1  1  0  0  0
 29 95  1  0  0  0  0
 29 96  1  0  0  0  0
 29 97  1  0  0  0  0
 30 22  1  0  0  0  0
 31 32  1  0  0  0  0
 31 33  1  0  0  0  0
 31 98  1  6  0  0  0
 32 99  1  0  0  0  0
 32100  1  0  0  0  0
 32101  1  0  0  0  0
 33 14  1  0  0  0  0
 34  2  1  0  0  0  0
 34102  1  0  0  0  0
 34103  1  0  0  0  0
 35 36  1  0  0  0  0
 35 37  2  0  0  0  0
 36104  1  0  0  0  0
 37 38  1  0  0  0  0
 38 39  1  0  0  0  0
 38 40  2  0  0  0  0
 39105  1  0  0  0  0
 40 50  1  0  0  0  0
 41 40  1  0  0  0  0
 41 42  1  0  0  0  0
 41106  1  1  0  0  0
 42 43  1  0  0  0  0
 42107  1  0  0  0  0
 42108  1  0  0  0  0
 43 44  1  0  0  0  0
 43 45  1  0  0  0  0
 43109  1  6  0  0  0
 44110  1  0  0  0  0
 45 46  1  0  0  0  0
 45 47  1  0  0  0  0
 45111  1  1  0  0  0
 46112  1  0  0  0  0
 47 48  1  0  0  0  0
 47 49  1  0  0  0  0
 47113  1  1  0  0  0
 48114  1  0  0  0  0
 48115  1  0  0  0  0
 48116  1  0  0  0  0
 49 41  1  0  0  0  0
 50 51  2  0  0  0  0
 50117  1  0  0  0  0
 51 52  1  0  0  0  0
 52 53  2  3  0  0  0
 52 62  1  0  0  0  0
 53 54  1  0  0  0  0
 54 55  2  0  0  0  0
 54118  1  0  0  0  0
 55 56  1  0  0  0  0
 56 57  2  0  0  0  0
 57 58  1  0  0  0  0
 57119  1  0  0  0  0
 58 59  2  0  0  0  0
 58120  1  0  0  0  0
 59 60  1  0  0  0  0
 59121  1  0  0  0  0
 60 61  2  0  0  0  0
 60122  1  0  0  0  0
 61 53  1  0  0  0  0
 61 56  1  0  0  0  0
 62 63  2  0  0  0  0
 62 64  1  0  0  0  0
 64 65  1  0  0  0  0
 65 66  2  0  0  0  0
 65  8  1  0  0  0  0
 66 37  1  0  0  0  0
 66 51  1  0  0  0  0
M  END
>  <IDENTIFIER>
CNP0074114.1

>  <Energy>
1785.86

$$$$
