
 OpenBabel09132504123D

 40 43  0  0  0  0  0  0  0  0999 V2000
    3.4015    2.5104    0.1389 O   0  0  0  0  0  0  0  0  0  0  0  0
    3.1457    1.3182    0.2330 C   0  0  0  0  0  0  0  0  0  0  0  0
    4.2575    0.3580    0.6307 C   0  0  0  0  0  0  0  0  0  0  0  0
    4.0012   -1.0365    0.0873 C   0  0  0  0  0  0  0  0  0  0  0  0
    2.7596   -1.4455   -0.2160 C   0  0  0  0  0  0  0  0  0  0  0  0
    1.6136   -0.5625    0.1973 C   0  0  2  0  0  0  0  0  0  0  0  0
    0.2159   -0.9676   -0.3255 C   0  0  1  0  0  0  0  0  0  0  0  0
   -0.2021   -2.4076    0.0167 C   0  0  0  0  0  0  0  0  0  0  0  0
   -1.5790   -2.6770   -0.5947 C   0  0  0  0  0  0  0  0  0  0  0  0
   -2.6013   -1.6650   -0.0701 C   0  0  0  0  0  0  0  0  0  0  0  0
   -2.1722   -0.2778   -0.3569 N   0  0  1  0  0  0  0  0  0  0  0  0
   -3.2663    0.6668   -0.0099 C   0  0  0  0  0  0  0  0  0  0  0  0
   -2.7925    2.0974    0.2953 C   0  0  0  0  0  0  0  0  0  0  0  0
   -1.5411    2.4006   -0.5120 C   0  0  0  0  0  0  0  0  0  0  0  0
   -0.4124    1.5222    0.0552 C   0  0  2  0  0  0  0  0  0  0  0  0
    0.8886    1.6673   -0.7451 C   0  0  0  0  0  0  0  0  0  0  0  0
    1.9176    0.8304   -0.1274 N   0  0  0  0  0  0  0  0  0  0  0  0
   -0.8495    0.0206    0.2479 C   0  0  2  0  0  0  0  0  0  0  0  0
    4.5255    0.3866    1.7069 H   0  0  0  0  0  0  0  0  0  0  0  0
    5.1479    0.7037    0.0619 H   0  0  0  0  0  0  0  0  0  0  0  0
    4.8470   -1.6789   -0.1390 H   0  0  0  0  0  0  0  0  0  0  0  0
    2.6078   -2.4046   -0.6974 H   0  0  0  0  0  0  0  0  0  0  0  0
    1.5915   -0.6291    1.3100 H   0  0  0  0  0  0  0  0  0  0  0  0
    0.2404   -0.8813   -1.4356 H   0  0  0  0  0  0  0  0  0  0  0  0
   -0.2402   -2.5441    1.1200 H   0  0  0  0  0  0  0  0  0  0  0  0
    0.5130   -3.1439   -0.4027 H   0  0  0  0  0  0  0  0  0  0  0  0
   -1.9084   -3.7089   -0.3471 H   0  0  0  0  0  0  0  0  0  0  0  0
   -1.5154   -2.5878   -1.7020 H   0  0  0  0  0  0  0  0  0  0  0  0
   -2.7293   -1.8068    1.0275 H   0  0  0  0  0  0  0  0  0  0  0  0
   -3.5764   -1.8734   -0.5642 H   0  0  0  0  0  0  0  0  0  0  0  0
   -3.8997    0.3194    0.8381 H   0  0  0  0  0  0  0  0  0  0  0  0
   -3.9176    0.7117   -0.9096 H   0  0  0  0  0  0  0  0  0  0  0  0
   -2.5353    2.1976    1.3738 H   0  0  0  0  0  0  0  0  0  0  0  0
   -3.6196    2.8086    0.0826 H   0  0  0  0  0  0  0  0  0  0  0  0
   -1.2557    3.4699   -0.4087 H   0  0  0  0  0  0  0  0  0  0  0  0
   -1.7317    2.1864   -1.5876 H   0  0  0  0  0  0  0  0  0  0  0  0
   -0.1729    1.9076    1.0744 H   0  0  0  0  0  0  0  0  0  0  0  0
    1.1961    2.7339   -0.8062 H   0  0  0  0  0  0  0  0  0  0  0  0
    0.7103    1.3202   -1.7855 H   0  0  0  0  0  0  0  0  0  0  0  0
   -0.9316   -0.1407    1.3498 H   0  0  0  0  0  0  0  0  0  0  0  0
  1  2  2  0  0  0  0
  2  3  1  0  0  0  0
  3  4  1  0  0  0  0
  3 19  1  0  0  0  0
  3 20  1  0  0  0  0
  4  5  2  0  0  0  0
  4 21  1  0  0  0  0
  5 22  1  0  0  0  0
  6  5  1  0  0  0  0
  6  7  1  0  0  0  0
  6 23  1  1  0  0  0
  7  8  1  0  0  0  0
  7 24  1  6  0  0  0
  8  9  1  0  0  0  0
  8 25  1  0  0  0  0
  8 26  1  0  0  0  0
  9 10  1  0  0  0  0
  9 27  1  0  0  0  0
  9 28  1  0  0  0  0
 10 29  1  0  0  0  0
 10 30  1  0  0  0  0
 11 10  1  1  0  0  0
 11 12  1  0  0  0  0
 12 13  1  0  0  0  0
 12 31  1  0  0  0  0
 12 32  1  0  0  0  0
 13 14  1  0  0  0  0
 13 33  1  0  0  0  0
 13 34  1  0  0  0  0
 14 35  1  0  0  0  0
 14 36  1  0  0  0  0
 15 14  1  0  0  0  0
 15 16  1  0  0  0  0
 15 18  1  0  0  0  0
 15 37  1  1  0  0  0
 16 17  1  0  0  0  0
 16 38  1  0  0  0  0
 16 39  1  0  0  0  0
 17  2  1  0  0  0  0
 17  6  1  0  0  0  0
 18  7  1  0  0  0  0
 18 11  1  0  0  0  0
 18 40  1  1  0  0  0
M  END
>  <IDENTIFIER>
CNP0185440.4

>  <Energy>
441.828

$$$$
