
 OpenBabel09082521472D

262274  0  0  0  0  0  0  0  0999 V2000
   17.2981    1.9284    0.0000 C   0  0  0  0  0  0  0  0  0  0  0  0
   15.7981    1.9284    0.0000 O   0  0  0  0  0  0  0  0  0  0  0  0
   15.1787    3.2325    0.0211 C   0  0  0  0  0  0  0  0  0  0  0  0
   13.7563    3.3319    0.0341 C   0  0  0  0  0  0  0  0  0  0  0  0
   13.0388    4.5635    0.0417 C   0  0  0  0  0  0  0  0  0  0  0  0
   11.4975    4.6218   -0.0215 C   0  0  0  0  0  0  0  0  0  0  0  0
   10.6352    3.6057    0.3057 C   0  0  0  0  0  0  0  0  0  0  0  0
    9.1238    3.5484    0.0541 C   0  0  0  0  0  0  0  0  0  0  0  0
    8.7148    4.3976   -0.7154 O   0  0  0  0  0  0  0  0  0  0  0  0
    8.2512    2.5419    0.5634 O   0  0  0  0  0  0  0  0  0  0  0  0
    7.0970    1.8183    0.0019 C   0  0  2  0  0  0  0  0  0  0  0  0
    7.4447    0.2852    0.2750 C   0  0  2  0  0  0  0  0  0  0  0  0
    8.4710   -0.1588    1.3685 O   0  0  0  0  0  0  0  0  0  0  0  0
   10.0035   -0.4078    1.6050 C   0  0  2  0  0  0  0  0  0  0  0  0
   10.4725   -1.6833    2.2576 O   0  0  0  0  0  0  0  0  0  0  0  0
   11.8176   -2.4015    2.1333 C   0  0  2  0  0  0  0  0  0  0  0  0
   12.2652   -3.9838    1.8147 C   0  0  0  0  0  0  0  0  0  0  0  0
   11.7118   -5.0454    2.5737 O   0  0  0  0  0  0  0  0  0  0  0  0
   12.8427   -1.7756    1.0575 C   0  0  1  0  0  0  0  0  0  0  0  0
   14.1743   -1.8848    1.5461 O   0  0  0  0  0  0  0  0  0  0  0  0
   12.5605   -0.3817    0.5073 C   0  0  2  0  0  0  0  0  0  0  0  0
   13.5294    0.4728    1.0566 O   0  0  0  0  0  0  0  0  0  0  0  0
   11.1058    0.1978    0.6586 C   0  0  1  0  0  0  0  0  0  0  0  0
   10.6305    0.8337   -0.5032 O   0  0  0  0  0  0  0  0  0  0  0  0
    5.9905   -0.3774    0.4692 C   0  0  1  0  0  0  0  0  0  0  0  0
    6.1015   -1.6192   -0.1153 O   0  0  0  0  0  0  0  0  0  0  0  0
    6.3056   -2.6625    0.7559 C   0  0  2  0  0  0  0  0  0  0  0  0
    7.6838   -2.7139    1.1788 O   0  0  0  0  0  0  0  0  0  0  0  0
    8.4681   -2.6600    0.0000 C   0  0  1  0  0  0  0  0  0  0  0  0
    9.9681   -2.6600    0.0000 C   0  0  0  0  0  0  0  0  0  0  0  0
    8.3139   -4.1151   -0.7321 C   0  0  2  0  0  0  0  0  0  0  0  0
    9.1623   -5.1749   -0.1921 O   0  0  0  0  0  0  0  0  0  0  0  0
    9.1010   -6.4035   -0.9670 C   0  0  2  0  0  0  0  0  0  0  0  0
   10.4109   -6.9101   -1.2531 O   0  0  0  0  0  0  0  0  0  0  0  0
   10.7633   -8.1901   -0.7524 C   0  0  0  0  0  0  0  0  0  0  0  0
   10.0315   -9.4274   -1.3576 C   0  0  1  0  0  0  0  0  0  0  0  0
   10.6709  -10.5123   -0.6456 O   0  0  0  0  0  0  0  0  0  0  0  0
    8.4050   -9.3410   -1.3192 C   0  0  2  0  0  0  0  0  0  0  0  0
    7.4488  -10.1665   -2.3165 O   0  0  0  0  0  0  0  0  0  0  0  0
    6.7983  -11.6133   -2.3496 C   0  0  2  0  0  0  0  0  0  0  0  0
    5.2795  -12.1029   -1.7523 O   0  0  0  0  0  0  0  0  0  0  0  0
    5.3363  -12.8894    0.0000 C   0  0  2  0  0  0  0  0  0  0  0  0
    3.9660  -13.4995   -0.0000 C   0  0  0  0  0  0  0  0  0  0  0  0
    2.5957  -14.1096    0.0000 O   0  0  0  0  0  0  0  0  0  0  0  0
    7.8911  -13.3704   -0.5814 C   0  0  1  0  0  0  0  0  0  0  0  0
    8.3416  -14.6190   -1.0092 O   0  0  0  0  0  0  0  0  0  0  0  0
    8.0615  -12.4861   -1.8954 C   0  0  2  0  0  0  0  0  0  0  0  0
    8.7620  -13.0539   -2.9847 O   0  0  0  0  0  0  0  0  0  0  0  0
    7.5796   -7.6994    0.0000 C   0  0  1  0  0  0  0  0  0  0  0  0
    6.8296   -6.4004    0.0000 O   0  0  0  0  0  0  0  0  0  0  0  0
    6.9064   -4.6125   -0.8938 C   0  0  1  0  0  0  0  0  0  0  0  0
    6.8296   -6.4004    0.0000 O   0  0  0  0  0  0  0  0  0  0  0  0
    7.5796   -7.6994    0.0000 C   0  0  2  0  0  0  0  0  0  0  0  0
    7.7369   -8.4224    1.8574 O   0  0  0  0  0  0  0  0  0  0  0  0
    7.3258   -9.6577    1.5332 C   0  0  0  0  0  0  0  0  0  0  0  0
    6.3660   -9.8013    0.0000 C   0  0  2  0  0  0  0  0  0  0  0  0
    5.0975   -9.6966    0.6884 O   0  0  0  0  0  0  0  0  0  0  0  0
    6.2092  -11.2931   -0.0000 C   0  0  0  0  0  0  0  0  0  0  0  0
    6.0524  -12.7849    0.0000 O   0  0  0  0  0  0  0  0  0  0  0  0
    5.9114  -14.3659   -1.4326 C   0  0  0  0  0  0  0  0  0  0  0  0
    6.3186  -14.2501   -2.5845 O   0  0  0  0  0  0  0  0  0  0  0  0
    4.6999  -15.5193   -1.4034 C   0  0  0  0  0  0  0  0  0  0  0  0
    4.3685  -16.3785    0.0000 C   0  0  1  0  0  0  0  0  0  0  0  0
    4.2117  -17.8703   -0.0000 C   0  0  0  0  0  0  0  0  0  0  0  0
    2.9683  -16.3171    0.0163 O   0  0  0  0  0  0  0  0  0  0  0  0
    5.8603  -16.5353    0.0000 C   0  0  0  0  0  0  0  0  0  0  0  0
    7.3521  -16.6921    0.0000 C   0  0  0  0  0  0  0  0  0  0  0  0
    8.0481  -17.2987   -0.8338 O   0  0  0  0  0  0  0  0  0  0  0  0
    7.9973  -16.2154    1.1015 O   0  0  0  0  0  0  0  0  0  0  0  0
    5.9298   -8.6876   -1.0370 C   0  0  1  0  0  0  0  0  0  0  0  0
    4.7932   -7.8420   -0.7955 O   0  0  0  0  0  0  0  0  0  0  0  0
    5.8382   -3.8791   -0.0605 C   0  0  1  0  0  0  0  0  0  0  0  0
    4.7518   -3.5759   -0.9035 O   0  0  0  0  0  0  0  0  0  0  0  0
    4.5936    0.0860   -0.2033 C   0  0  2  0  0  0  0  0  0  0  0  0
    3.4177   -0.5221    0.5270 O   0  0  0  0  0  0  0  0  0  0  0  0
    2.2500   -1.2990    0.0000 C   0  0  0  0  0  0  0  0  0  0  0  0
    2.7224   -1.9360   -0.9540 O   0  0  0  0  0  0  0  0  0  0  0  0
    0.7500   -1.2990    0.0000 C   0  0  2  0  0  0  0  0  0  0  0  0
    1.4455    0.6499    0.3532 C   0  0  0  0  0  0  0  0  0  0  0  0
    0.5738    1.4513   -0.2127 C   0  0  0  0  0  0  0  0  0  0  0  0
   -0.7500    1.2990    0.0000 C   0  0  0  0  0  0  0  0  0  0  0  0
   -2.1595    1.8121    0.0000 C   0  0  0  0  0  0  0  0  0  0  0  0
   -0.4895    2.7762    0.0000 C   0  0  0  0  0  0  0  0  0  0  0  0
   -1.2398   -0.0553   -0.8668 C   0  0  0  0  0  0  0  0  0  0  0  0
   -0.7500   -1.2990    0.0000 C   0  0  1  0  0  0  0  0  0  0  0  0
   -1.6376   -2.5607   -0.0276 C   0  0  0  0  0  0  0  0  0  0  0  0
   -2.9853   -2.6089    0.0391 C   0  0  0  0  0  0  0  0  0  0  0  0
   -3.7866   -3.8817    0.2045 C   0  0  0  0  0  0  0  0  0  0  0  0
   -3.0000   -5.1962    0.0000 C   0  0  2  0  0  0  0  0  0  0  0  0
   -3.7500   -6.4952    0.0000 C   0  0  1  0  0  0  0  0  0  0  0  0
   -4.5000   -7.7942    0.0000 C   0  0  0  0  0  0  0  0  0  0  0  0
   -4.8678   -6.5164    1.4147 C   0  0  0  0  0  0  0  0  0  0  0  0
   -5.8582   -7.9319    1.9334 C   0  0  2  0  0  0  0  0  0  0  0  0
   -6.8149   -7.8107    2.9642 O   0  0  0  0  0  0  0  0  0  0  0  0
   -5.0049   -9.5032    1.7471 C   0  0  2  0  0  0  0  0  0  0  0  0
   -5.7091  -10.9164    1.8170 O   0  0  0  0  0  0  0  0  0  0  0  0
   -6.4535  -11.6754    0.6644 C   0  0  2  0  0  0  0  0  0  0  0  0
   -5.7732  -12.8414    0.1021 O   0  0  0  0  0  0  0  0  0  0  0  0
   -5.9521  -14.1075    0.6990 C   0  0  2  0  0  0  0  0  0  0  0  0
   -4.9017  -15.1094    0.1091 C   0  0  0  0  0  0  0  0  0  0  0  0
   -5.0987  -16.4156    0.5987 O   0  0  0  0  0  0  0  0  0  0  0  0
   -7.4082  -14.5879    0.5096 C   0  0  1  0  0  0  0  0  0  0  0  0
   -7.5179  -15.6374   -0.4297 O   0  0  0  0  0  0  0  0  0  0  0  0
   -8.3074  -13.4255    0.0602 C   0  0  2  0  0  0  0  0  0  0  0  0
   -9.6376  -13.8408    0.2539 O   0  0  0  0  0  0  0  0  0  0  0  0
   -7.9838  -12.0796    0.8240 C   0  0  1  0  0  0  0  0  0  0  0  0
   -8.8431  -11.1073    0.2694 O   0  0  0  0  0  0  0  0  0  0  0  0
   -3.7500   -9.0933    0.0000 C   0  0  1  0  0  0  0  0  0  0  0  0
   -4.0105  -10.5705    0.0000 C   0  0  0  0  0  0  0  0  0  0  0  0
   -2.2334   -9.7669   -0.0480 C   0  0  0  0  0  0  0  0  0  0  0  0
   -1.7035  -10.3269    0.9297 O   0  0  0  0  0  0  0  0  0  0  0  0
   -1.4944   -9.7320   -1.1818 O   0  0  0  0  0  0  0  0  0  0  0  0
   -2.8643   -7.6744    0.0685 C   0  0  2  0  0  0  0  0  0  0  0  0
   -2.0173   -7.4498    1.3349 C   0  0  0  0  0  0  0  0  0  0  0  0
   -0.9732   -6.5917    0.8116 C   0  0  0  0  0  0  0  0  0  0  0  0
   -1.5000   -5.1962    0.0000 C   0  0  2  0  0  0  0  0  0  0  0  0
    0.0000   -5.1962    0.0000 C   0  0  0  0  0  0  0  0  0  0  0  0
   -0.7960   -3.6906    0.1330 C   0  0  1  0  0  0  0  0  0  0  0  0
    0.3065   -3.0850   -1.0722 C   0  0  0  0  0  0  0  0  0  0  0  0
    0.7500   -1.2990    0.0000 O   0  0  0  0  0  0  0  0  0  0  0  0
   -0.3025   -3.3911    1.7078 C   0  0  0  0  0  0  0  0  0  0  0  0
    0.9964   -2.6413    1.5749 C   0  0  0  0  0  0  0  0  0  0  0  0
    4.4837    1.5175   -0.6368 O   0  0  0  0  0  0  0  0  0  0  0  0
    5.3886    2.4414    0.0000 C   0  0  2  0  0  0  0  0  0  0  0  0
    6.1386    3.7404    0.0000 C   0  0  0  0  0  0  0  0  0  0  0  0
   13.7764    5.7752    0.0198 C   0  0  0  0  0  0  0  0  0  0  0  0
   15.1906    5.8313    0.0142 C   0  0  0  0  0  0  0  0  0  0  0  0
   15.7981    7.1245    0.0000 O   0  0  0  0  0  0  0  0  0  0  0  0
   17.2981    7.1245    0.0000 C   0  0  0  0  0  0  0  0  0  0  0  0
   15.9180    4.5287    0.0158 C   0  0  0  0  0  0  0  0  0  0  0  0
   17.2981    4.5264    0.0000 O   0  0  0  0  0  0  0  0  0  0  0  0
   18.0481    3.2274    0.0000 C   0  0  0  0  0  0  0  0  0  0  0  0
   17.3088    1.1764    0.8970 H   0  0  0  0  0  0  0  0  0  0  0  0
   17.3086    1.1787   -0.8990 H   0  0  0  0  0  0  0  0  0  0  0  0
   18.3681    1.9284    0.0000 H   0  0  0  0  0  0  0  0  0  0  0  0
   13.1815    2.4347   -0.0079 H   0  0  0  0  0  0  0  0  0  0  0  0
   11.0624    5.5468   -0.3823 H   0  0  0  0  0  0  0  0  0  0  0  0
   11.0947    2.7923    0.7338 H   0  0  0  0  0  0  0  0  0  0  0  0
    7.2792    1.8822   -1.1045 H   0  0  0  0  0  0  0  0  0  0  0  0
    7.8528   -0.0254   -0.7050 H   0  0  0  0  0  0  0  0  0  0  0  0
   10.0926    0.2303    2.5149 H   0  0  0  0  0  0  0  0  0  0  0  0
   11.0165   -3.1120    1.9836 H   0  0  0  0  0  0  0  0  0  0  0  0
   13.3697   -4.1120    1.8948 H   0  0  0  0  0  0  0  0  0  0  0  0
   12.1267   -4.2725    0.7193 H   0  0  0  0  0  0  0  0  0  0  0  0
   11.8349   -5.8692    2.0115 H   0  0  0  0  0  0  0  0  0  0  0  0
   12.9048   -2.3581    0.0941 H   0  0  0  0  0  0  0  0  0  0  0  0
   14.7182   -2.4580    0.9286 H   0  0  0  0  0  0  0  0  0  0  0  0
   12.7525   -0.4002   -0.6032 H   0  0  0  0  0  0  0  0  0  0  0  0
   14.3684    0.2638    0.5670 H   0  0  0  0  0  0  0  0  0  0  0  0
   11.4160    1.0038    1.3143 H   0  0  0  0  0  0  0  0  0  0  0  0
   10.1294    0.1895   -1.0526 H   0  0  0  0  0  0  0  0  0  0  0  0
    5.8015   -0.3480    1.5665 H   0  0  0  0  0  0  0  0  0  0  0  0
    5.6076   -2.5692    1.6192 H   0  0  0  0  0  0  0  0  0  0  0  0
    8.1008   -2.0190   -0.8176 H   0  0  0  0  0  0  0  0  0  0  0  0
   10.4001   -3.3409   -0.7695 H   0  0  0  0  0  0  0  0  0  0  0  0
   10.0915   -1.7827   -0.6299 H   0  0  0  0  0  0  0  0  0  0  0  0
   11.0381   -2.6600    0.0000 H   0  0  0  0  0  0  0  0  0  0  0  0
    8.6755   -3.9579   -1.7818 H   0  0  0  0  0  0  0  0  0  0  0  0
    8.7016   -6.2008   -1.9813 H   0  0  0  0  0  0  0  0  0  0  0  0
   11.8376   -8.3378   -1.0040 H   0  0  0  0  0  0  0  0  0  0  0  0
   10.8992   -8.2113    0.3511 H   0  0  0  0  0  0  0  0  0  0  0  0
   10.3339   -9.5509   -2.4075 H   0  0  0  0  0  0  0  0  0  0  0  0
   10.0921  -11.1692   -0.1762 H   0  0  0  0  0  0  0  0  0  0  0  0
    8.5527   -9.9698   -0.5138 H   0  0  0  0  0  0  0  0  0  0  0  0
    6.6966  -11.8067   -3.4394 H   0  0  0  0  0  0  0  0  0  0  0  0
    4.6883  -12.3094    1.1915 H   0  0  0  0  0  0  0  0  0  0  0  0
    3.4642  -12.4965   -0.2077 H   0  0  0  0  0  0  0  0  0  0  0  0
    4.1766  -14.0998    0.9378 H   0  0  0  0  0  0  0  0  0  0  0  0
    2.1939  -13.9807   -0.9019 H   0  0  0  0  0  0  0  0  0  0  0  0
    8.5657  -12.9778    0.2171 H   0  0  0  0  0  0  0  0  0  0  0  0
    9.0992  -14.8668   -0.4392 H   0  0  0  0  0  0  0  0  0  0  0  0
    8.7498  -11.7569   -1.5440 H   0  0  0  0  0  0  0  0  0  0  0  0
    9.7404  -12.8883   -2.8484 H   0  0  0  0  0  0  0  0  0  0  0  0
    6.0298   -7.8265    1.0731 H   0  0  0  0  0  0  0  0  0  0  0  0
    7.1741   -5.7480    1.5084 H   0  0  0  0  0  0  0  0  0  0  0  0
    6.6272   -4.7308   -1.9693 H   0  0  0  0  0  0  0  0  0  0  0  0
    9.1814   -7.5204    0.9149 H   0  0  0  0  0  0  0  0  0  0  0  0
    8.2441  -10.2869    1.5495 H   0  0  0  0  0  0  0  0  0  0  0  0
    6.7335   -9.9694    2.4303 H   0  0  0  0  0  0  0  0  0  0  0  0
    4.3052  -10.1049    0.2179 H   0  0  0  0  0  0  0  0  0  0  0  0
    6.3731  -11.4436    1.1261 H   0  0  0  0  0  0  0  0  0  0  0  0
    7.2403  -11.2878   -0.0765 H   0  0  0  0  0  0  0  0  0  0  0  0
    4.8537  -16.2128   -2.2717 H   0  0  0  0  0  0  0  0  0  0  0  0
    3.7871  -15.0911   -1.8603 H   0  0  0  0  0  0  0  0  0  0  0  0
    3.8885  -18.0007    1.0721 H   0  0  0  0  0  0  0  0  0  0  0  0
    5.0953  -18.5911    0.0103 H   0  0  0  0  0  0  0  0  0  0  0  0
    4.0999  -18.9344    0.0000 H   0  0  0  0  0  0  0  0  0  0  0  0
    2.7008  -16.1708    0.9687 H   0  0  0  0  0  0  0  0  0  0  0  0
    5.8943  -16.8647    1.0843 H   0  0  0  0  0  0  0  0  0  0  0  0
    6.0293  -17.1857   -0.9380 H   0  0  0  0  0  0  0  0  0  0  0  0
    8.9499  -16.3310    1.2328 H   0  0  0  0  0  0  0  0  0  0  0  0
    6.0210   -8.6537   -2.1370 H   0  0  0  0  0  0  0  0  0  0  0  0
    3.9368   -8.3282   -0.7466 H   0  0  0  0  0  0  0  0  0  0  0  0
    5.4921   -4.5941    0.7132 H   0  0  0  0  0  0  0  0  0  0  0  0
    3.9456   -4.0328   -0.5525 H   0  0  0  0  0  0  0  0  0  0  0  0
    4.5973   -0.3726   -1.2179 H   0  0  0  0  0  0  0  0  0  0  0  0
    1.9323    0.9153    1.3845 H   0  0  0  0  0  0  0  0  0  0  0  0
    2.2582    1.0268   -0.3323 H   0  0  0  0  0  0  0  0  0  0  0  0
    0.6481    1.3524   -1.3676 H   0  0  0  0  0  0  0  0  0  0  0  0
    0.1987    0.8789    0.7359 H   0  0  0  0  0  0  0  0  0  0  0  0
   -2.3716    2.3643    0.9880 H   0  0  0  0  0  0  0  0  0  0  0  0
   -2.6500    0.9853    0.5818 H   0  0  0  0  0  0  0  0  0  0  0  0
   -3.1650    2.1781    0.0000 H   0  0  0  0  0  0  0  0  0  0  0  0
   -0.4506    3.1177    1.0959 H   0  0  0  0  0  0  0  0  0  0  0  0
   -0.7282    3.2220   -1.0430 H   0  0  0  0  0  0  0  0  0  0  0  0
   -0.3037    3.8299    0.0000 H   0  0  0  0  0  0  0  0  0  0  0  0
   -0.9876   -0.0482   -1.9453 H   0  0  0  0  0  0  0  0  0  0  0  0
   -2.3351   -0.2404   -0.9973 H   0  0  0  0  0  0  0  0  0  0  0  0
   -1.1127   -0.9562    1.0318 H   0  0  0  0  0  0  0  0  0  0  0  0
   -3.5553   -1.6891    0.0601 H   0  0  0  0  0  0  0  0  0  0  0  0
   -4.2517   -3.8488    1.2081 H   0  0  0  0  0  0  0  0  0  0  0  0
   -4.6104   -3.8583   -0.5480 H   0  0  0  0  0  0  0  0  0  0  0  0
   -2.9428   -5.1279   -1.1110 H   0  0  0  0  0  0  0  0  0  0  0  0
   -5.0444   -7.5148   -0.9946 H   0  0  0  0  0  0  0  0  0  0  0  0
   -5.3742   -7.4206   -0.6581 H   0  0  0  0  0  0  0  0  0  0  0  0
   -5.0350   -8.7208   -0.0000 H   0  0  0  0  0  0  0  0  0  0  0  0
   -4.3749   -6.1108    2.3087 H   0  0  0  0  0  0  0  0  0  0  0  0
   -5.6415   -5.7400    1.1448 H   0  0  0  0  0  0  0  0  0  0  0  0
   -6.5955   -7.7590    1.0302 H   0  0  0  0  0  0  0  0  0  0  0  0
   -7.6461   -8.2979    2.6428 H   0  0  0  0  0  0  0  0  0  0  0  0
   -6.0683   -9.5166    1.4656 H   0  0  0  0  0  0  0  0  0  0  0  0
   -6.4838  -11.0035   -0.2296 H   0  0  0  0  0  0  0  0  0  0  0  0
   -5.7378  -14.0026    1.7802 H   0  0  0  0  0  0  0  0  0  0  0  0
   -4.9326  -15.1097   -1.0113 H   0  0  0  0  0  0  0  0  0  0  0  0
   -3.8695  -14.7945    0.3735 H   0  0  0  0  0  0  0  0  0  0  0  0
   -5.3212  -17.0000   -0.1785 H   0  0  0  0  0  0  0  0  0  0  0  0
   -7.7107  -14.9701    1.5119 H   0  0  0  0  0  0  0  0  0  0  0  0
   -8.2908  -16.2021   -0.1574 H   0  0  0  0  0  0  0  0  0  0  0  0
   -8.1192  -13.2873   -1.0366 H   0  0  0  0  0  0  0  0  0  0  0  0
  -10.2331  -13.1549   -0.1362 H   0  0  0  0  0  0  0  0  0  0  0  0
   -8.2191  -12.2553    1.8848 H   0  0  0  0  0  0  0  0  0  0  0  0
   -8.4877  -10.2074    0.4635 H   0  0  0  0  0  0  0  0  0  0  0  0
   -3.6764  -11.1869    0.9082 H   0  0  0  0  0  0  0  0  0  0  0  0
   -3.9855  -10.8274   -1.1014 H   0  0  0  0  0  0  0  0  0  0  0  0
   -4.1963  -11.6242    0.0000 H   0  0  0  0  0  0  0  0  0  0  0  0
   -0.6037  -10.1177   -1.1825 H   0  0  0  0  0  0  0  0  0  0  0  0
   -2.3079   -7.5844   -0.9282 H   0  0  0  0  0  0  0  0  0  0  0  0
   -1.3463   -8.2823    1.5415 H   0  0  0  0  0  0  0  0  0  0  0  0
   -2.0540   -8.1066    2.2248 H   0  0  0  0  0  0  0  0  0  0  0  0
   -0.1917   -6.6132    1.6580 H   0  0  0  0  0  0  0  0  0  0  0  0
   -0.4857   -7.3496    0.0454 H   0  0  0  0  0  0  0  0  0  0  0  0
    0.0164   -5.4911   -1.1152 H   0  0  0  0  0  0  0  0  0  0  0  0
    0.2757   -5.7322   -0.9710 H   0  0  0  0  0  0  0  0  0  0  0  0
    1.0700   -5.1962    0.0000 H   0  0  0  0  0  0  0  0  0  0  0  0
    1.2665   -3.6182   -1.2413 H   0  0  0  0  0  0  0  0  0  0  0  0
    1.1920   -3.6067   -1.5049 H   0  0  0  0  0  0  0  0  0  0  0  0
    0.9361   -0.6315   -1.6404 H   0  0  0  0  0  0  0  0  0  0  0  0
   -0.0877   -4.2941    2.3251 H   0  0  0  0  0  0  0  0  0  0  0  0
   -0.0862   -4.2944    2.3242 H   0  0  0  0  0  0  0  0  0  0  0  0
    1.9747   -2.8841    2.0483 H   0  0  0  0  0  0  0  0  0  0  0  0
    1.5869   -3.4214    1.0758 H   0  0  0  0  0  0  0  0  0  0  0  0
    5.0705    2.3850    1.0676 H   0  0  0  0  0  0  0  0  0  0  0  0
    6.2470    3.8151   -1.1108 H   0  0  0  0  0  0  0  0  0  0  0  0
    5.2505    4.3727    0.2235 H   0  0  0  0  0  0  0  0  0  0  0  0
    6.6736    4.6670    0.0000 H   0  0  0  0  0  0  0  0  0  0  0  0
   13.2325    6.7113    0.0089 H   0  0  0  0  0  0  0  0  0  0  0  0
   17.4562    6.7403   -1.0316 H   0  0  0  0  0  0  0  0  0  0  0  0
   17.4393    8.2243   -0.0270 H   0  0  0  0  0  0  0  0  0  0  0  0
   18.3681    7.1245    0.0000 H   0  0  0  0  0  0  0  0  0  0  0  0
   18.7041    3.5938    0.8976 H   0  0  0  0  0  0  0  0  0  0  0  0
   18.7024    3.5932   -0.8993 H   0  0  0  0  0  0  0  0  0  0  0  0
   18.5831    2.3008    0.0000 H   0  0  0  0  0  0  0  0  0  0  0  0
  1  2  1  0  0  0  0
  1133  1  0  0  0  0
  1134  1  0  0  0  0
  1135  1  0  0  0  0
  2  3  1  0  0  0  0
  3  4  2  0  0  0  0
  4  5  1  0  0  0  0
  4136  1  0  0  0  0
  5  6  1  0  0  0  0
  5126  2  0  0  0  0
  6  7  2  3  0  0  0
  6137  1  0  0  0  0
  7  8  1  0  0  0  0
  7138  1  0  0  0  0
  8  9  2  0  0  0  0
  8 10  1  0  0  0  0
 11 10  1  0  0  0  0
 11 12  1  0  0  0  0
 11139  1  1  0  0  0
 12 13  1  0  0  0  0
 12 25  1  0  0  0  0
 12140  1  1  0  0  0
 14 13  1  0  0  0  0
 14 15  1  0  0  0  0
 14141  1  6  0  0  0
 15 16  1  0  0  0  0
 16 17  1  0  0  0  0
 16 19  1  0  0  0  0
 16142  1  6  0  0  0
 17 18  1  0  0  0  0
 17143  1  0  0  0  0
 17144  1  0  0  0  0
 18145  1  0  0  0  0
 19 20  1  0  0  0  0
 19 21  1  0  0  0  0
 19146  1  1  0  0  0
 20147  1  0  0  0  0
 21 22  1  0  0  0  0
 21 23  1  0  0  0  0
 21148  1  6  0  0  0
 22149  1  0  0  0  0
 23 24  1  0  0  0  0
 23 14  1  0  0  0  0
 23150  1  1  0  0  0
 24151  1  0  0  0  0
 25 26  1  0  0  0  0
 25 74  1  0  0  0  0
 25152  1  6  0  0  0
 27 26  1  0  0  0  0
 27 28  1  0  0  0  0
 27153  1  1  0  0  0
 28 29  1  0  0  0  0
 29 30  1  0  0  0  0
 29 31  1  0  0  0  0
 29154  1  6  0  0  0
 30155  1  0  0  0  0
 30156  1  0  0  0  0
 30157  1  0  0  0  0
 31 32  1  0  0  0  0
 31 51  1  0  0  0  0
 31158  1  1  0  0  0
 33 32  1  0  0  0  0
 33 34  1  0  0  0  0
 33159  1  1  0  0  0
 34 35  1  0  0  0  0
 35 36  1  0  0  0  0
 35160  1  0  0  0  0
 35161  1  0  0  0  0
 36 37  1  0  0  0  0
 36 38  1  0  0  0  0
 36162  1  6  0  0  0
 37163  1  0  0  0  0
 38 39  1  0  0  0  0
 38 49  1  0  0  0  0
 38164  1  1  0  0  0
 40 39  1  0  0  0  0
 40 41  1  0  0  0  0
 40165  1  6  0  0  0
 41 42  1  0  0  0  0
 42 43  1  0  0  0  0
 42 45  1  0  0  0  0
 42166  1  6  0  0  0
 43 44  1  0  0  0  0
 43167  1  0  0  0  0
 43168  1  0  0  0  0
 44169  1  0  0  0  0
 45 46  1  0  0  0  0
 45 47  1  0  0  0  0
 45170  1  1  0  0  0
 46171  1  0  0  0  0
 47 48  1  0  0  0  0
 47 40  1  0  0  0  0
 47172  1  6  0  0  0
 48173  1  0  0  0  0
 49 50  1  0  0  0  0
 49 33  1  0  0  0  0
 49174  1  6  0  0  0
 50175  1  0  0  0  0
 51 52  1  0  0  0  0
 51 72  1  0  0  0  0
 51176  1  6  0  0  0
 53 52  1  0  0  0  0
 53 54  1  0  0  0  0
 53177  1  1  0  0  0
 54 55  1  0  0  0  0
 55 56  1  0  0  0  0
 55178  1  0  0  0  0
 55179  1  0  0  0  0
 56 57  1  1  0  0  0
 56 58  1  0  0  0  0
 56 70  1  0  0  0  0
 57180  1  0  0  0  0
 58 59  1  0  0  0  0
 58181  1  0  0  0  0
 58182  1  0  0  0  0
 59 60  1  0  0  0  0
 60 61  2  0  0  0  0
 60 62  1  0  0  0  0
 62 63  1  0  0  0  0
 62183  1  0  0  0  0
 62184  1  0  0  0  0
 63 64  1  0  0  0  0
 63 65  1  6  0  0  0
 63 66  1  0  0  0  0
 64185  1  0  0  0  0
 64186  1  0  0  0  0
 64187  1  0  0  0  0
 65188  1  0  0  0  0
 66 67  1  0  0  0  0
 66189  1  0  0  0  0
 66190  1  0  0  0  0
 67 68  2  0  0  0  0
 67 69  1  0  0  0  0
 69191  1  0  0  0  0
 70 71  1  0  0  0  0
 70 53  1  0  0  0  0
 70192  1  6  0  0  0
 71193  1  0  0  0  0
 72 73  1  0  0  0  0
 72 27  1  0  0  0  0
 72194  1  6  0  0  0
 73195  1  0  0  0  0
 74 75  1  0  0  0  0
 74123  1  0  0  0  0
 74196  1  1  0  0  0
 75 76  1  0  0  0  0
 76 77  2  0  0  0  0
 78 76  1  1  0  0  0
 78 79  1  0  0  0  0
 79 80  1  0  0  0  0
 79197  1  0  0  0  0
 79198  1  0  0  0  0
 80 81  1  0  0  0  0
 80199  1  0  0  0  0
 80200  1  0  0  0  0
 81 82  1  0  0  0  0
 81 83  1  0  0  0  0
 81 84  1  0  0  0  0
 82201  1  0  0  0  0
 82202  1  0  0  0  0
 82203  1  0  0  0  0
 83204  1  0  0  0  0
 83205  1  0  0  0  0
 83206  1  0  0  0  0
 84207  1  0  0  0  0
 84208  1  0  0  0  0
 85 84  1  0  0  0  0
 85 86  1  0  0  0  0
 85 78  1  0  0  0  0
 85209  1  1  0  0  0
 86 87  2  0  0  0  0
 87 88  1  0  0  0  0
 87210  1  0  0  0  0
 88211  1  0  0  0  0
 88212  1  0  0  0  0
 89 88  1  0  0  0  0
 89 90  1  0  0  0  0
 89213  1  6  0  0  0
 90 91  1  1  0  0  0
 90 92  1  0  0  0  0
 91214  1  0  0  0  0
 91215  1  0  0  0  0
 91216  1  0  0  0  0
 92 93  1  0  0  0  0
 92217  1  0  0  0  0
 92218  1  0  0  0  0
 93 94  1  0  0  0  0
 93 95  1  0  0  0  0
 93219  1  6  0  0  0
 94220  1  0  0  0  0
 95 96  1  0  0  0  0
 95108  1  0  0  0  0
 95221  1  6  0  0  0
 97 96  1  0  0  0  0
 97 98  1  0  0  0  0
 97222  1  1  0  0  0
 98 99  1  0  0  0  0
 99100  1  0  0  0  0
 99102  1  0  0  0  0
 99223  1  1  0  0  0
100101  1  0  0  0  0
100224  1  0  0  0  0
100225  1  0  0  0  0
101226  1  0  0  0  0
102103  1  0  0  0  0
102104  1  0  0  0  0
102227  1  6  0  0  0
103228  1  0  0  0  0
104105  1  0  0  0  0
104106  1  0  0  0  0
104229  1  1  0  0  0
105230  1  0  0  0  0
106107  1  0  0  0  0
106 97  1  0  0  0  0
106231  1  6  0  0  0
107232  1  0  0  0  0
108109  1  0  0  0  0
108110  1  6  0  0  0
108113  1  0  0  0  0
109233  1  0  0  0  0
109234  1  0  0  0  0
109235  1  0  0  0  0
110111  2  0  0  0  0
110112  1  0  0  0  0
112236  1  0  0  0  0
113114  1  0  0  0  0
113 90  1  0  0  0  0
113237  1  6  0  0  0
114115  1  0  0  0  0
114238  1  0  0  0  0
114239  1  0  0  0  0
115116  1  0  0  0  0
115240  1  0  0  0  0
115241  1  0  0  0  0
116117  1  1  0  0  0
116118  1  0  0  0  0
116 89  1  0  0  0  0
117242  1  0  0  0  0
117243  1  0  0  0  0
117244  1  0  0  0  0
118119  1  6  0  0  0
118121  1  0  0  0  0
118 86  1  0  0  0  0
119120  1  0  0  0  0
119245  1  0  0  0  0
119246  1  0  0  0  0
120247  1  0  0  0  0
121122  1  0  0  0  0
121248  1  0  0  0  0
121249  1  0  0  0  0
122 78  1  0  0  0  0
122250  1  0  0  0  0
122251  1  0  0  0  0
123124  1  0  0  0  0
124125  1  0  0  0  0
124 11  1  0  0  0  0
124252  1  1  0  0  0
125253  1  0  0  0  0
125254  1  0  0  0  0
125255  1  0  0  0  0
126127  1  0  0  0  0
126256  1  0  0  0  0
127128  1  0  0  0  0
127130  2  0  0  0  0
128129  1  0  0  0  0
129257  1  0  0  0  0
129258  1  0  0  0  0
129259  1  0  0  0  0
130131  1  0  0  0  0
130  3  1  0  0  0  0
131132  1  0  0  0  0
132260  1  0  0  0  0
132261  1  0  0  0  0
132262  1  0  0  0  0
M  END
>  <IDENTIFIER>
CNP0032351.1

>  <Energy>
7.51826e+36

$$$$
