
 OpenBabel09122519253D

 45 46  0  0  0  0  0  0  0  0999 V2000
    1.2879   -3.5507    0.1141 C   0  0  0  0  0  0  0  0  0  0  0  0
    1.1775   -2.2111    0.2029 C   0  0  0  0  0  0  0  0  0  0  0  0
    0.0296   -1.5544   -0.5405 C   0  0  0  0  0  0  0  0  0  0  0  0
   -0.9114   -0.7731    0.3901 C   0  0  0  0  0  0  0  0  0  0  0  0
   -1.8606    0.2659   -0.3096 C   0  0  1  0  0  0  0  0  0  0  0  0
   -2.7153    1.0160    0.8001 C   0  0  0  0  0  0  0  0  0  0  0  0
   -3.4901    0.0309    1.7053 C   0  0  0  0  0  0  0  0  0  0  0  0
   -3.7669    1.9922    0.2291 C   0  0  0  0  0  0  0  0  0  0  0  0
   -0.9962    1.2213   -1.2299 C   0  0  1  0  0  0  0  0  0  0  0  0
   -1.7382    2.2856   -1.7523 O   0  0  0  0  0  0  0  0  0  0  0  0
    0.2351    1.7312   -0.4437 C   0  0  2  0  0  0  0  0  0  0  0  0
    1.1180    2.6148   -1.0874 O   0  0  0  0  0  0  0  0  0  0  0  0
    1.5757    1.2829   -0.9738 C   0  0  2  0  0  0  0  0  0  0  0  0
    1.9491    0.8720   -2.4139 C   0  0  0  0  0  0  0  0  0  0  0  0
    2.6488    1.0757    0.1019 C   0  0  0  0  0  0  0  0  0  0  0  0
    3.1366   -0.3917    0.3054 C   0  0  0  0  0  0  0  0  0  0  0  0
    2.2288   -1.4328    1.0378 C   0  0  1  0  0  0  0  0  0  0  0  0
    1.6565   -0.8281    2.1749 O   0  0  0  0  0  0  0  0  0  0  0  0
    1.3987   -1.7949    3.0381 O   0  0  0  0  0  0  0  0  0  0  0  0
    0.5803   -4.1397   -0.4622 H   0  0  0  0  0  0  0  0  0  0  0  0
    2.0853   -4.0909    0.6143 H   0  0  0  0  0  0  0  0  0  0  0  0
   -0.5845   -2.2759   -1.1237 H   0  0  0  0  0  0  0  0  0  0  0  0
    0.5114   -0.9322   -1.2785 H   0  0  0  0  0  0  0  0  0  0  0  0
   -0.3159   -0.1915    1.1119 H   0  0  0  0  0  0  0  0  0  0  0  0
   -1.4680   -1.5364    0.9666 H   0  0  0  0  0  0  0  0  0  0  0  0
   -2.5750   -0.2774   -0.9671 H   0  0  0  0  0  0  0  0  0  0  0  0
   -2.0391    1.5988    1.4620 H   0  0  0  0  0  0  0  0  0  0  0  0
   -4.1701   -0.6069    1.1005 H   0  0  0  0  0  0  0  0  0  0  0  0
   -4.0974    0.5866    2.4521 H   0  0  0  0  0  0  0  0  0  0  0  0
   -2.8169   -0.6083    2.3067 H   0  0  0  0  0  0  0  0  0  0  0  0
   -4.4516    1.4667   -0.4706 H   0  0  0  0  0  0  0  0  0  0  0  0
   -3.3237    2.8716   -0.2648 H   0  0  0  0  0  0  0  0  0  0  0  0
   -4.3736    2.4259    1.0531 H   0  0  0  0  0  0  0  0  0  0  0  0
   -0.6901    0.6042   -2.0971 H   0  0  0  0  0  0  0  0  0  0  0  0
   -1.2075    2.6751   -2.4958 H   0  0  0  0  0  0  0  0  0  0  0  0
    0.0952    2.1350    0.5812 H   0  0  0  0  0  0  0  0  0  0  0  0
    2.8527    1.4370   -2.7265 H   0  0  0  0  0  0  0  0  0  0  0  0
    1.1516    1.1063   -3.1475 H   0  0  0  0  0  0  0  0  0  0  0  0
    2.1971   -0.2059   -2.4812 H   0  0  0  0  0  0  0  0  0  0  0  0
    2.3288    1.4898    1.0832 H   0  0  0  0  0  0  0  0  0  0  0  0
    3.5291    1.6735   -0.2212 H   0  0  0  0  0  0  0  0  0  0  0  0
    4.0104   -0.2622    0.9840 H   0  0  0  0  0  0  0  0  0  0  0  0
    3.5408   -0.8261   -0.6329 H   0  0  0  0  0  0  0  0  0  0  0  0
    2.9760   -2.1904    1.3822 H   0  0  0  0  0  0  0  0  0  0  0  0
    2.0586   -1.6656    3.7668 H   0  0  0  0  0  0  0  0  0  0  0  0
  1  2  2  0  0  0  0
  1 20  1  0  0  0  0
  1 21  1  0  0  0  0
  2  3  1  0  0  0  0
  3  4  1  0  0  0  0
  3 22  1  0  0  0  0
  3 23  1  0  0  0  0
  4  5  1  0  0  0  0
  4 24  1  0  0  0  0
  4 25  1  0  0  0  0
  5  6  1  0  0  0  0
  5  9  1  0  0  0  0
  5 26  1  6  0  0  0
  6  7  1  0  0  0  0
  6  8  1  0  0  0  0
  6 27  1  0  0  0  0
  7 28  1  0  0  0  0
  7 29  1  0  0  0  0
  7 30  1  0  0  0  0
  8 31  1  0  0  0  0
  8 32  1  0  0  0  0
  8 33  1  0  0  0  0
  9 10  1  0  0  0  0
  9 11  1  0  0  0  0
  9 34  1  6  0  0  0
 10 35  1  0  0  0  0
 11 12  1  0  0  0  0
 11 36  1  1  0  0  0
 12 13  1  0  0  0  0
 13 14  1  6  0  0  0
 13 15  1  0  0  0  0
 13 11  1  0  0  0  0
 14 37  1  0  0  0  0
 14 38  1  0  0  0  0
 14 39  1  0  0  0  0
 15 16  1  0  0  0  0
 15 40  1  0  0  0  0
 15 41  1  0  0  0  0
 16 17  1  0  0  0  0
 16 42  1  0  0  0  0
 16 43  1  0  0  0  0
 17 18  1  0  0  0  0
 17  2  1  0  0  0  0
 17 44  1  1  0  0  0
 18 19  1  0  0  0  0
 19 45  1  0  0  0  0
M  END
>  <IDENTIFIER>
CNP0550447.2

>  <Energy>
1887.39

$$$$
