
 OpenBabel09092502382D

158157  0  0  0  0  0  0  0  0999 V2000
   20.7846   12.0000    0.0000 C   0  0  0  0  0  0  0  0  0  0  0  0
   19.4856   11.2500    0.0000 C   0  0  0  0  0  0  0  0  0  0  0  0
   18.1865   10.5000    0.0000 C   0  0  0  0  0  0  0  0  0  0  0  0
   16.8875    9.7500    0.0000 C   0  0  0  0  0  2  0  0  0  0  0  0
   15.5885    9.0000    0.0000 C   0  0  0  0  0  0  0  0  0  0  0  0
   13.9532    8.6379   -0.1414 C   0  0  0  0  0  0  0  0  0  0  0  0
   13.3310    7.0817    0.1524 C   0  0  0  0  0  0  0  0  0  0  0  0
   11.6913    6.7500    0.0000 C   0  0  0  0  0  0  0  0  0  0  0  0
   10.3923    6.0000    0.0000 C   0  0  0  0  0  0  0  0  0  0  0  0
    9.0933    5.2500    0.0000 C   0  0  0  0  0  0  0  0  0  0  0  0
    7.7942    4.5000    0.0000 C   0  0  0  0  0  0  0  0  0  0  0  0
    6.4952    3.7500    0.0000 C   0  0  0  0  0  0  0  0  0  0  0  0
    5.1962    3.0000    0.0000 C   0  0  0  0  0  0  0  0  0  0  0  0
    3.5552    2.9453   -0.3375 C   0  0  0  0  0  0  0  0  0  0  0  0
    2.6968    1.5159   -0.0441 C   0  0  0  0  0  0  0  0  0  0  0  0
    1.0619    1.2459   -0.3606 C   0  0  0  0  0  0  0  0  0  0  0  0
    0.3115   -0.1894   -0.0262 C   0  0  0  0  0  0  0  0  0  0  0  0
    1.0263   -1.0368    0.4876 O   0  0  0  0  0  0  0  0  0  0  0  0
   -1.0732   -0.5536   -0.2739 O   0  0  0  0  0  0  0  0  0  0  0  0
   -1.7235   -1.8381    0.0604 C   0  0  0  0  0  0  0  0  0  0  0  0
   -3.3150   -2.2746   -0.3243 C   0  0  2  0  0  0  0  0  0  0  0  0
   -3.6839   -3.8795    0.0632 C   0  0  0  0  0  0  0  0  0  0  0  0
   -4.9705   -4.5744   -0.1666 O   0  0  0  0  0  0  0  0  0  0  0  0
   -5.1962   -6.0000    0.0000 C   0  0  0  0  0  0  0  0  0  0  0  0
   -4.1801   -6.6764    0.1604 O   0  0  0  0  0  0  0  0  0  0  0  0
   -6.4952   -6.7500    0.0000 C   0  0  0  0  0  0  0  0  0  0  0  0
   -7.7942   -7.5000    0.0000 C   0  0  0  0  0  0  0  0  0  0  0  0
   -9.0933   -8.2500    0.0000 C   0  0  0  0  0  0  0  0  0  0  0  0
  -10.3923   -9.0000    0.0000 C   0  0  0  0  0  0  0  0  0  0  0  0
  -11.6913   -9.7500    0.0000 C   0  0  0  0  0  0  0  0  0  0  0  0
  -13.3391  -10.0672   -0.0772 C   0  0  0  0  0  0  0  0  0  0  0  0
  -13.9462  -11.6495    0.0751 C   0  0  0  0  0  0  0  0  0  0  0  0
  -15.5885  -12.0000    0.0000 C   0  0  0  0  0  0  0  0  0  0  0  0
  -16.8875  -12.7500    0.0000 C   0  0  0  0  0  2  0  0  0  0  0  0
  -18.1865  -13.5000    0.0000 C   0  0  0  0  0  0  0  0  0  0  0  0
  -19.4856  -14.2500    0.0000 C   0  0  0  0  0  0  0  0  0  0  0  0
  -20.7846  -15.0000    0.0000 C   0  0  0  0  0  2  0  0  0  0  0  0
  -22.0836  -15.7500    0.0000 C   0  0  0  0  0  0  0  0  0  0  0  0
  -23.6536  -16.0196   -0.6383 C   0  0  0  0  0  0  0  0  0  0  0  0
  -24.6817  -17.2500    0.0000 C   0  0  0  0  0  0  0  0  0  0  0  0
  -25.9808  -18.0000    0.0000 C   0  0  0  0  0  0  0  0  0  0  0  0
  -23.9317  -18.5490    0.0000 C   0  0  0  0  0  0  0  0  0  0  0  0
   -4.2384   -1.3929    0.2816 O   0  0  0  0  0  0  0  0  0  0  0  0
   -5.0502   -0.4538   -0.3408 C   0  0  0  0  0  0  0  0  0  0  0  0
   -4.9489   -0.2546   -1.5424 O   0  0  0  0  0  0  0  0  0  0  0  0
   -6.0493    0.3892    0.4839 C   0  0  0  0  0  0  0  0  0  0  0  0
   -6.8120    1.5759   -0.2457 C   0  0  0  0  0  0  0  0  0  0  0  0
   -7.6677    2.4369    0.7608 C   0  0  0  0  0  0  0  0  0  0  0  0
   -8.0230    3.9384    0.4018 C   0  0  0  0  0  0  0  0  0  0  0  0
   -9.4609    4.5112   -0.0163 C   0  0  0  0  0  0  0  0  0  0  0  0
   -9.3481    6.0933    0.0000 C   0  0  0  0  0  0  0  0  0  0  0  0
  -10.0981    7.3923    0.0000 C   0  0  0  0  0  0  0  0  0  0  0  0
  -10.8481    8.6913    0.0000 C   0  0  0  0  0  0  0  0  0  0  0  0
  -11.2739   10.2777   -0.3659 C   0  0  0  0  0  0  0  0  0  0  0  0
  -12.7858   10.9376    0.0799 C   0  0  0  0  0  0  0  0  0  0  0  0
  -13.0981   12.5885    0.0000 C   0  0  0  0  0  0  0  0  0  0  0  0
  -13.8481   13.8875    0.0000 C   0  0  0  0  0  0  0  0  0  0  0  0
  -14.5981   15.1865    0.0000 C   0  0  0  0  0  0  0  0  0  0  0  0
  -15.3481   16.4856    0.0000 C   0  0  0  0  0  0  0  0  0  0  0  0
  -15.8971   14.4365    0.0000 C   0  0  0  0  0  0  0  0  0  0  0  0
   21.5360   11.1652   -0.0952 H   0  0  0  0  0  0  0  0  0  0  0  0
   20.6162   12.5560   -0.9526 H   0  0  0  0  0  0  0  0  0  0  0  0
   21.7112   12.5350    0.0000 H   0  0  0  0  0  0  0  0  0  0  0  0
   19.8037   10.7131    0.9345 H   0  0  0  0  0  0  0  0  0  0  0  0
   19.7761   10.6383   -0.9061 H   0  0  0  0  0  0  0  0  0  0  0  0
   17.7990   11.0613   -0.8889 H   0  0  0  0  0  0  0  0  0  0  0  0
   17.8018   11.0601    0.8891 H   0  0  0  0  0  0  0  0  0  0  0  0
   15.7036    8.6051    1.0310 H   0  0  0  0  0  0  0  0  0  0  0  0
   15.9421    8.1921   -0.6740 H   0  0  0  0  0  0  0  0  0  0  0  0
   13.6570    8.9078   -1.1768 H   0  0  0  0  0  0  0  0  0  0  0  0
   13.4158    9.3277    0.5429 H   0  0  0  0  0  0  0  0  0  0  0  0
   13.8650    6.3868   -0.5293 H   0  0  0  0  0  0  0  0  0  0  0  0
   13.6194    6.8115    1.1899 H   0  0  0  0  0  0  0  0  0  0  0  0
   11.3728    7.6102    0.6412 H   0  0  0  0  0  0  0  0  0  0  0  0
   11.6066    7.1731   -1.0330 H   0  0  0  0  0  0  0  0  0  0  0  0
   11.0008    5.2418   -0.5932 H   0  0  0  0  0  0  0  0  0  0  0  0
   10.4985    5.8214    1.1049 H   0  0  0  0  0  0  0  0  0  0  0  0
    9.0627    5.3450   -1.1290 H   0  0  0  0  0  0  0  0  0  0  0  0
    9.5656    4.2360    0.2314 H   0  0  0  0  0  0  0  0  0  0  0  0
    7.3181    5.5075   -0.2520 H   0  0  0  0  0  0  0  0  0  0  0  0
    7.8184    4.4200    1.1288 H   0  0  0  0  0  0  0  0  0  0  0  0
    5.8740    4.5223    0.5583 H   0  0  0  0  0  0  0  0  0  0  0  0
    6.4168    3.8713   -1.1127 H   0  0  0  0  0  0  0  0  0  0  0  0
    5.1698    2.6237    1.0531 H   0  0  0  0  0  0  0  0  0  0  0  0
    5.4956    2.0852   -0.5678 H   0  0  0  0  0  0  0  0  0  0  0  0
    3.4361    3.1831   -1.4152 H   0  0  0  0  0  0  0  0  0  0  0  0
    3.0644    3.7551    0.2416 H   0  0  0  0  0  0  0  0  0  0  0  0
    3.2375    0.7235   -0.6024 H   0  0  0  0  0  0  0  0  0  0  0  0
    2.8342    1.3018    1.0364 H   0  0  0  0  0  0  0  0  0  0  0  0
    0.4992    2.0297    0.1875 H   0  0  0  0  0  0  0  0  0  0  0  0
    0.9209    1.4298   -1.4455 H   0  0  0  0  0  0  0  0  0  0  0  0
   -1.0984   -2.6271   -0.4093 H   0  0  0  0  0  0  0  0  0  0  0  0
   -1.6269   -1.9755    1.1580 H   0  0  0  0  0  0  0  0  0  0  0  0
   -3.3995   -2.1943   -1.4293 H   0  0  0  0  0  0  0  0  0  0  0  0
   -2.9090   -4.4674   -0.4729 H   0  0  0  0  0  0  0  0  0  0  0  0
   -3.4598   -3.9879    1.1452 H   0  0  0  0  0  0  0  0  0  0  0  0
   -6.1222   -7.3960   -0.8362 H   0  0  0  0  0  0  0  0  0  0  0  0
   -6.1995   -7.0024    1.0704 H   0  0  0  0  0  0  0  0  0  0  0  0
   -8.1604   -6.8548    0.8603 H   0  0  0  0  0  0  0  0  0  0  0  0
   -7.3398   -8.4470    0.4476 H   0  0  0  0  0  0  0  0  0  0  0  0
   -9.5333   -7.2962   -0.4535 H   0  0  0  0  0  0  0  0  0  0  0  0
   -8.7435   -8.8945   -0.8623 H   0  0  0  0  0  0  0  0  0  0  0  0
  -10.7473   -8.6649   -1.0309 H   0  0  0  0  0  0  0  0  0  0  0  0
  -10.7973   -8.3239    0.7991 H   0  0  0  0  0  0  0  0  0  0  0  0
  -11.4200  -10.5446   -0.7450 H   0  0  0  0  0  0  0  0  0  0  0  0
  -11.5429  -10.2734    0.9759 H   0  0  0  0  0  0  0  0  0  0  0  0
  -13.8236   -9.4563    0.7133 H   0  0  0  0  0  0  0  0  0  0  0  0
  -13.6948   -9.6817   -1.0556 H   0  0  0  0  0  0  0  0  0  0  0  0
  -13.5834  -12.0361    1.0505 H   0  0  0  0  0  0  0  0  0  0  0  0
  -13.4575  -12.2533   -0.7183 H   0  0  0  0  0  0  0  0  0  0  0  0
  -15.7700  -11.4892   -0.9686 H   0  0  0  0  0  0  0  0  0  0  0  0
  -15.8940  -11.2767    0.7847 H   0  0  0  0  0  0  0  0  0  0  0  0
  -17.8174  -14.0558    0.8959 H   0  0  0  0  0  0  0  0  0  0  0  0
  -17.8175  -14.0555   -0.8961 H   0  0  0  0  0  0  0  0  0  0  0  0
  -19.8548  -13.6942   -0.8958 H   0  0  0  0  0  0  0  0  0  0  0  0
  -19.8546  -13.6945    0.8961 H   0  0  0  0  0  0  0  0  0  0  0  0
  -22.3305  -15.6697    1.0789 H   0  0  0  0  0  0  0  0  0  0  0  0
  -21.6463  -16.7566   -0.1371 H   0  0  0  0  0  0  0  0  0  0  0  0
  -24.2080  -15.0628   -0.5420 H   0  0  0  0  0  0  0  0  0  0  0  0
  -23.5308  -16.2185   -1.7236 H   0  0  0  0  0  0  0  0  0  0  0  0
  -24.6766  -16.9167    1.0678 H   0  0  0  0  0  0  0  0  0  0  0  0
  -26.6222  -17.1120    0.2026 H   0  0  0  0  0  0  0  0  0  0  0  0
  -26.0394  -18.1743   -1.1045 H   0  0  0  0  0  0  0  0  0  0  0  0
  -26.9075  -18.5350    0.0000 H   0  0  0  0  0  0  0  0  0  0  0  0
  -23.7336  -18.5907   -1.0974 H   0  0  0  0  0  0  0  0  0  0  0  0
  -23.0408  -18.2270    0.5726 H   0  0  0  0  0  0  0  0  0  0  0  0
  -23.3967  -19.4756    0.0000 H   0  0  0  0  0  0  0  0  0  0  0  0
   -5.4480    0.8437    1.3006 H   0  0  0  0  0  0  0  0  0  0  0  0
   -6.7919   -0.2947    0.9458 H   0  0  0  0  0  0  0  0  0  0  0  0
   -7.4498    1.2093   -1.0771 H   0  0  0  0  0  0  0  0  0  0  0  0
   -6.0239    2.2340   -0.6714 H   0  0  0  0  0  0  0  0  0  0  0  0
   -8.5290    1.8917    1.2001 H   0  0  0  0  0  0  0  0  0  0  0  0
   -6.9465    2.5554    1.6023 H   0  0  0  0  0  0  0  0  0  0  0  0
   -7.2291    4.3372   -0.2658 H   0  0  0  0  0  0  0  0  0  0  0  0
   -7.8562    4.4378    1.3828 H   0  0  0  0  0  0  0  0  0  0  0  0
  -10.1997    4.1935    0.7498 H   0  0  0  0  0  0  0  0  0  0  0  0
   -9.7807    4.1404   -1.0123 H   0  0  0  0  0  0  0  0  0  0  0  0
   -8.5428    6.2731   -0.7545 H   0  0  0  0  0  0  0  0  0  0  0  0
   -8.8312    6.2641    0.9745 H   0  0  0  0  0  0  0  0  0  0  0  0
  -10.3947    7.2061   -1.0638 H   0  0  0  0  0  0  0  0  0  0  0  0
  -10.8131    6.8893    0.7139 H   0  0  0  0  0  0  0  0  0  0  0  0
  -11.8921    8.3319   -0.2235 H   0  0  0  0  0  0  0  0  0  0  0  0
  -10.8001    8.8973    1.0983 H   0  0  0  0  0  0  0  0  0  0  0  0
  -10.4780   10.9199    0.0689 H   0  0  0  0  0  0  0  0  0  0  0  0
  -11.2129   10.3970   -1.4681 H   0  0  0  0  0  0  0  0  0  0  0  0
  -12.9899   10.6409    1.1307 H   0  0  0  0  0  0  0  0  0  0  0  0
  -13.5378   10.4198   -0.5515 H   0  0  0  0  0  0  0  0  0  0  0  0
  -12.4539   12.7166   -0.9164 H   0  0  0  0  0  0  0  0  0  0  0  0
  -12.3226   12.8503    0.7726 H   0  0  0  0  0  0  0  0  0  0  0  0
  -14.2288   13.4153    0.9853 H   0  0  0  0  0  0  0  0  0  0  0  0
  -14.1778   13.5905   -1.0549 H   0  0  0  0  0  0  0  0  0  0  0  0
  -14.0429   15.4021    0.9575 H   0  0  0  0  0  0  0  0  0  0  0  0
  -14.4864   17.1047   -0.3378 H   0  0  0  0  0  0  0  0  0  0  0  0
  -15.5484   16.6683    1.0948 H   0  0  0  0  0  0  0  0  0  0  0  0
  -15.8831   17.4123    0.0000 H   0  0  0  0  0  0  0  0  0  0  0  0
  -16.2979   14.6422   -1.0335 H   0  0  0  0  0  0  0  0  0  0  0  0
  -16.3670   14.6733    0.9967 H   0  0  0  0  0  0  0  0  0  0  0  0
  -16.8237   13.9015    0.0000 H   0  0  0  0  0  0  0  0  0  0  0  0
  1  2  1  0  0  0  0
  1 61  1  0  0  0  0
  1 62  1  0  0  0  0
  1 63  1  0  0  0  0
  2  3  1  0  0  0  0
  2 64  1  0  0  0  0
  2 65  1  0  0  0  0
  3  4  1  0  0  0  0
  3 66  1  0  0  0  0
  3 67  1  0  0  0  0
  4  5  1  0  0  0  0
  5  6  1  0  0  0  0
  5 68  1  0  0  0  0
  5 69  1  0  0  0  0
  6  7  1  0  0  0  0
  6 70  1  0  0  0  0
  6 71  1  0  0  0  0
  7  8  1  0  0  0  0
  7 72  1  0  0  0  0
  7 73  1  0  0  0  0
  8  9  1  0  0  0  0
  8 74  1  0  0  0  0
  8 75  1  0  0  0  0
  9 10  1  0  0  0  0
  9 76  1  0  0  0  0
  9 77  1  0  0  0  0
 10 11  1  0  0  0  0
 10 78  1  0  0  0  0
 10 79  1  0  0  0  0
 11 12  1  0  0  0  0
 11 80  1  0  0  0  0
 11 81  1  0  0  0  0
 12 13  1  0  0  0  0
 12 82  1  0  0  0  0
 12 83  1  0  0  0  0
 13 14  1  0  0  0  0
 13 84  1  0  0  0  0
 13 85  1  0  0  0  0
 14 15  1  0  0  0  0
 14 86  1  0  0  0  0
 14 87  1  0  0  0  0
 15 16  1  0  0  0  0
 15 88  1  0  0  0  0
 15 89  1  0  0  0  0
 16 17  1  0  0  0  0
 16 90  1  0  0  0  0
 16 91  1  0  0  0  0
 17 18  2  0  0  0  0
 17 19  1  0  0  0  0
 19 20  1  0  0  0  0
 20 92  1  0  0  0  0
 20 93  1  0  0  0  0
 21 20  1  0  0  0  0
 21 22  1  0  0  0  0
 21 43  1  0  0  0  0
 21 94  1  1  0  0  0
 22 23  1  0  0  0  0
 22 95  1  0  0  0  0
 22 96  1  0  0  0  0
 23 24  1  0  0  0  0
 24 25  2  0  0  0  0
 24 26  1  0  0  0  0
 26 27  1  0  0  0  0
 26 97  1  0  0  0  0
 26 98  1  0  0  0  0
 27 28  1  0  0  0  0
 27 99  1  0  0  0  0
 27100  1  0  0  0  0
 28 29  1  0  0  0  0
 28101  1  0  0  0  0
 28102  1  0  0  0  0
 29 30  1  0  0  0  0
 29103  1  0  0  0  0
 29104  1  0  0  0  0
 30 31  1  0  0  0  0
 30105  1  0  0  0  0
 30106  1  0  0  0  0
 31 32  1  0  0  0  0
 31107  1  0  0  0  0
 31108  1  0  0  0  0
 32 33  1  0  0  0  0
 32109  1  0  0  0  0
 32110  1  0  0  0  0
 33 34  1  0  0  0  0
 33111  1  0  0  0  0
 33112  1  0  0  0  0
 34 35  1  0  0  0  0
 35 36  1  0  0  0  0
 35113  1  0  0  0  0
 35114  1  0  0  0  0
 36 37  1  0  0  0  0
 36115  1  0  0  0  0
 36116  1  0  0  0  0
 37 38  1  0  0  0  0
 38 39  1  0  0  0  0
 38117  1  0  0  0  0
 38118  1  0  0  0  0
 39 40  1  0  0  0  0
 39119  1  0  0  0  0
 39120  1  0  0  0  0
 40 41  1  0  0  0  0
 40 42  1  0  0  0  0
 40121  1  0  0  0  0
 41122  1  0  0  0  0
 41123  1  0  0  0  0
 41124  1  0  0  0  0
 42125  1  0  0  0  0
 42126  1  0  0  0  0
 42127  1  0  0  0  0
 43 44  1  0  0  0  0
 44 45  2  0  0  0  0
 44 46  1  0  0  0  0
 46 47  1  0  0  0  0
 46128  1  0  0  0  0
 46129  1  0  0  0  0
 47 48  1  0  0  0  0
 47130  1  0  0  0  0
 47131  1  0  0  0  0
 48 49  1  0  0  0  0
 48132  1  0  0  0  0
 48133  1  0  0  0  0
 49 50  1  0  0  0  0
 49134  1  0  0  0  0
 49135  1  0  0  0  0
 50 51  1  0  0  0  0
 50136  1  0  0  0  0
 50137  1  0  0  0  0
 51 52  1  0  0  0  0
 51138  1  0  0  0  0
 51139  1  0  0  0  0
 52 53  1  0  0  0  0
 52140  1  0  0  0  0
 52141  1  0  0  0  0
 53 54  1  0  0  0  0
 53142  1  0  0  0  0
 53143  1  0  0  0  0
 54 55  1  0  0  0  0
 54144  1  0  0  0  0
 54145  1  0  0  0  0
 55 56  1  0  0  0  0
 55146  1  0  0  0  0
 55147  1  0  0  0  0
 56 57  1  0  0  0  0
 56148  1  0  0  0  0
 56149  1  0  0  0  0
 57 58  1  0  0  0  0
 57150  1  0  0  0  0
 57151  1  0  0  0  0
 58 59  1  0  0  0  0
 58 60  1  0  0  0  0
 58152  1  0  0  0  0
 59153  1  0  0  0  0
 59154  1  0  0  0  0
 59155  1  0  0  0  0
 60156  1  0  0  0  0
 60157  1  0  0  0  0
 60158  1  0  0  0  0
M  END
>  <IDENTIFIER>
CNP0539828.2

>  <Energy>
12481.5

$$$$
