
 OpenBabel09052518363D

 38 39  0  0  0  0  0  0  0  0999 V2000
   -2.7031   -0.3591    2.3696 C   0  0  0  0  0  0  0  0  0  0  0  0
   -2.0058   -0.4916    1.1522 O   0  0  0  0  0  0  0  0  0  0  0  0
   -2.4553    0.4432    0.1783 C   0  0  1  0  0  0  0  0  0  0  0  0
   -1.4275    1.6000    0.0142 C   0  0  1  0  0  0  0  0  0  0  0  0
   -1.8171    2.6739    0.8401 O   0  0  0  0  0  0  0  0  0  0  0  0
    0.0692    1.2515    0.3296 C   0  0  2  0  0  0  0  0  0  0  0  0
    0.8216    2.4367    0.2134 O   0  0  0  0  0  0  0  0  0  0  0  0
    0.7459    0.1286   -0.5094 C   0  0  1  0  0  0  0  0  0  0  0  0
    2.2059   -0.1398   -0.1506 C   0  0  0  0  0  0  0  0  0  0  0  0
    2.8731    0.4576    0.9463 C   0  0  0  0  0  0  0  0  0  0  0  0
    4.2051    0.1418    1.2254 C   0  0  0  0  0  0  0  0  0  0  0  0
    4.8939   -0.7724    0.4270 C   0  0  0  0  0  0  0  0  0  0  0  0
    4.2515   -1.3716   -0.6563 C   0  0  0  0  0  0  0  0  0  0  0  0
    2.9193   -1.0612   -0.9435 C   0  0  0  0  0  0  0  0  0  0  0  0
    0.0882   -1.0839   -0.3623 O   0  0  0  0  0  0  0  0  0  0  0  0
   -0.7179   -1.6408   -1.2969 C   0  0  0  0  0  0  0  0  0  0  0  0
   -0.6803   -2.8465   -1.4818 O   0  0  0  0  0  0  0  0  0  0  0  0
   -1.6940   -0.7972   -2.0567 C   0  0  0  0  0  0  0  0  0  0  0  0
   -2.8330   -0.2810   -1.1510 C   0  0  1  0  0  0  0  0  0  0  0  0
   -3.7503   -1.3133   -0.8779 O   0  0  0  0  0  0  0  0  0  0  0  0
   -2.2814   -1.0907    3.0894 H   0  0  0  0  0  0  0  0  0  0  0  0
   -3.7799   -0.6020    2.2424 H   0  0  0  0  0  0  0  0  0  0  0  0
   -2.5589    0.6460    2.8157 H   0  0  0  0  0  0  0  0  0  0  0  0
   -3.4376    0.9024    0.4580 H   0  0  0  0  0  0  0  0  0  0  0  0
   -1.5094    1.9914   -1.0232 H   0  0  0  0  0  0  0  0  0  0  0  0
   -1.6418    2.4238    1.7832 H   0  0  0  0  0  0  0  0  0  0  0  0
    0.1083    0.9303    1.3931 H   0  0  0  0  0  0  0  0  0  0  0  0
    0.7914    2.7196   -0.7384 H   0  0  0  0  0  0  0  0  0  0  0  0
    0.7360    0.4697   -1.5671 H   0  0  0  0  0  0  0  0  0  0  0  0
    2.3838    1.1595    1.6023 H   0  0  0  0  0  0  0  0  0  0  0  0
    4.7026    0.6018    2.0686 H   0  0  0  0  0  0  0  0  0  0  0  0
    5.9239   -1.0165    0.6503 H   0  0  0  0  0  0  0  0  0  0  0  0
    4.7856   -2.0828   -1.2734 H   0  0  0  0  0  0  0  0  0  0  0  0
    2.4388   -1.5419   -1.7862 H   0  0  0  0  0  0  0  0  0  0  0  0
   -2.1593   -1.3845   -2.8789 H   0  0  0  0  0  0  0  0  0  0  0  0
   -1.1619    0.0458   -2.5395 H   0  0  0  0  0  0  0  0  0  0  0  0
   -3.3744    0.4550   -1.7867 H   0  0  0  0  0  0  0  0  0  0  0  0
   -3.2640   -2.0382   -0.4062 H   0  0  0  0  0  0  0  0  0  0  0  0
  1  2  1  0  0  0  0
  1 21  1  0  0  0  0
  1 22  1  0  0  0  0
  1 23  1  0  0  0  0
  3  2  1  0  0  0  0
  3  4  1  0  0  0  0
  3 24  1  1  0  0  0
  4  5  1  0  0  0  0
  4  6  1  0  0  0  0
  4 25  1  6  0  0  0
  5 26  1  0  0  0  0
  6  7  1  0  0  0  0
  6  8  1  0  0  0  0
  6 27  1  1  0  0  0
  7 28  1  0  0  0  0
  8  9  1  0  0  0  0
  8 15  1  0  0  0  0
  8 29  1  6  0  0  0
  9 10  2  0  0  0  0
 10 11  1  0  0  0  0
 10 30  1  0  0  0  0
 11 12  2  0  0  0  0
 11 31  1  0  0  0  0
 12 13  1  0  0  0  0
 12 32  1  0  0  0  0
 13 14  2  0  0  0  0
 13 33  1  0  0  0  0
 14  9  1  0  0  0  0
 14 34  1  0  0  0  0
 15 16  1  0  0  0  0
 16 17  2  0  0  0  0
 16 18  1  0  0  0  0
 18 19  1  0  0  0  0
 18 35  1  0  0  0  0
 18 36  1  0  0  0  0
 19 20  1  0  0  0  0
 19  3  1  0  0  0  0
 19 37  1  6  0  0  0
 20 38  1  0  0  0  0
M  END
>  <IDENTIFIER>
CNP0106819.1

>  <Energy>
391.292

$$$$
