
 OpenBabel09132509573D

 78 81  0  0  0  0  0  0  0  0999 V2000
    7.8753    1.7138   -2.0971 C   0  0  0  0  0  0  0  0  0  0  0  0
    7.3694    0.5963   -1.2122 C   0  0  0  0  0  0  0  0  0  0  0  0
    6.4131   -0.2263   -1.7171 C   0  0  0  0  0  0  0  0  0  0  0  0
    5.7493   -1.3833   -1.0142 C   0  0  0  0  0  0  0  0  0  0  0  0
    4.7043   -1.0115    0.0731 C   0  0  0  0  0  0  0  0  0  0  0  0
    3.3814   -0.3911   -0.4910 C   0  0  2  0  0  0  0  0  0  0  0  0
    3.6019    1.0718   -0.9158 C   0  0  0  0  0  0  0  0  0  0  0  0
    2.1894   -0.5052    0.5374 C   0  0  2  0  0  0  0  0  0  0  0  0
    1.9693   -1.9663    1.0530 C   0  0  0  0  0  0  0  0  0  0  0  0
    0.4501   -2.1589    1.2702 C   0  0  0  0  0  0  0  0  0  0  0  0
   -0.1214   -0.7365    1.2806 C   0  0  2  0  0  0  0  0  0  0  0  0
    0.1018   -0.1715    2.7241 C   0  0  0  0  0  0  0  0  0  0  0  0
   -1.6292   -0.5676    1.0104 C   0  0  0  0  0  0  0  0  0  0  0  0
   -2.0979    0.4801    0.2533 C   0  0  0  0  0  0  0  0  0  0  0  0
   -1.1236    1.5443   -0.3066 C   0  0  0  0  0  0  0  0  0  0  0  0
    0.3579    1.3971    0.0920 C   0  0  0  0  0  0  0  0  0  0  0  0
    0.7380   -0.0972    0.1177 C   0  0  1  0  0  0  0  0  0  0  0  0
    0.4591   -0.7157   -1.3073 C   0  0  0  0  0  0  0  0  0  0  0  0
   -3.6135    0.5725   -0.1138 C   0  0  1  0  0  0  0  0  0  0  0  0
   -3.9264    1.9800   -0.7022 C   0  0  0  0  0  0  0  0  0  0  0  0
   -3.9520   -0.4837   -1.2003 C   0  0  0  0  0  0  0  0  0  0  0  0
   -5.4437   -0.4802   -1.5934 C   0  0  0  0  0  0  0  0  0  0  0  0
   -6.4358   -0.1732   -0.4755 C   0  0  0  0  0  0  0  0  0  0  0  0
   -7.6214   -0.1952   -0.7733 O   0  0  0  0  0  0  0  0  0  0  0  0
   -6.0468    0.2860    0.9367 C   0  0  0  0  0  0  0  0  0  0  0  0
   -6.8346   -0.5723    1.9710 C   0  0  0  0  0  0  0  0  0  0  0  0
   -6.5623    1.7359    1.1754 C   0  0  0  0  0  0  0  0  0  0  0  0
   -4.4716    0.2067    1.1578 C   0  0  1  0  0  0  0  0  0  0  0  0
   -4.0734   -1.2174    1.6669 C   0  0  0  0  0  0  0  0  0  0  0  0
   -2.6025   -1.4958    1.6552 C   0  0  0  0  0  0  0  0  0  0  0  0
   -2.2147   -2.5156    2.2016 O   0  0  0  0  0  0  0  0  0  0  0  0
    7.9747    0.4462    0.1554 C   0  0  0  0  0  0  0  0  0  0  0  0
    7.6169   -0.4452    0.9062 O   0  0  0  0  0  0  0  0  0  0  0  0
    8.9641    1.2666    0.5781 O   0  0  0  0  0  0  0  0  0  0  0  0
    7.3608    1.7501   -3.0815 H   0  0  0  0  0  0  0  0  0  0  0  0
    8.9610    1.5842   -2.2870 H   0  0  0  0  0  0  0  0  0  0  0  0
    7.7015    2.6892   -1.5953 H   0  0  0  0  0  0  0  0  0  0  0  0
    6.0838   -0.0699   -2.7420 H   0  0  0  0  0  0  0  0  0  0  0  0
    6.5383   -2.0475   -0.6032 H   0  0  0  0  0  0  0  0  0  0  0  0
    5.2129   -1.9897   -1.7766 H   0  0  0  0  0  0  0  0  0  0  0  0
    5.1231   -0.3856    0.8877 H   0  0  0  0  0  0  0  0  0  0  0  0
    4.4629   -1.9948    0.5208 H   0  0  0  0  0  0  0  0  0  0  0  0
    3.1098   -0.9935   -1.3824 H   0  0  0  0  0  0  0  0  0  0  0  0
    3.8200    1.7059   -0.0292 H   0  0  0  0  0  0  0  0  0  0  0  0
    2.7290    1.4588   -1.4565 H   0  0  0  0  0  0  0  0  0  0  0  0
    4.4184    1.1948   -1.6399 H   0  0  0  0  0  0  0  0  0  0  0  0
    2.4527    0.1187    1.4170 H   0  0  0  0  0  0  0  0  0  0  0  0
    2.5459   -2.0907    1.9957 H   0  0  0  0  0  0  0  0  0  0  0  0
    2.2885   -2.7497    0.3307 H   0  0  0  0  0  0  0  0  0  0  0  0
    0.2153   -2.8147    2.1352 H   0  0  0  0  0  0  0  0  0  0  0  0
    0.0284   -2.6794    0.3854 H   0  0  0  0  0  0  0  0  0  0  0  0
   -0.4880   -0.7672    3.4540 H   0  0  0  0  0  0  0  0  0  0  0  0
   -0.2553    0.8725    2.8292 H   0  0  0  0  0  0  0  0  0  0  0  0
    1.1496   -0.2210    3.0760 H   0  0  0  0  0  0  0  0  0  0  0  0
   -1.4314    2.5720   -0.0256 H   0  0  0  0  0  0  0  0  0  0  0  0
   -1.1815    1.4676   -1.4126 H   0  0  0  0  0  0  0  0  0  0  0  0
    0.5287    1.8409    1.0901 H   0  0  0  0  0  0  0  0  0  0  0  0
    0.9411    2.0243   -0.5990 H   0  0  0  0  0  0  0  0  0  0  0  0
    1.0214   -0.1532   -2.0812 H   0  0  0  0  0  0  0  0  0  0  0  0
   -0.6084   -0.6955   -1.5970 H   0  0  0  0  0  0  0  0  0  0  0  0
    0.7782   -1.7715   -1.4048 H   0  0  0  0  0  0  0  0  0  0  0  0
   -3.3011    2.1934   -1.5929 H   0  0  0  0  0  0  0  0  0  0  0  0
   -3.7588    2.7697    0.0600 H   0  0  0  0  0  0  0  0  0  0  0  0
   -4.9491    2.0713   -1.0978 H   0  0  0  0  0  0  0  0  0  0  0  0
   -3.6936   -1.4974   -0.8407 H   0  0  0  0  0  0  0  0  0  0  0  0
   -3.3342   -0.3508   -2.1153 H   0  0  0  0  0  0  0  0  0  0  0  0
   -5.6781   -1.4518   -2.0795 H   0  0  0  0  0  0  0  0  0  0  0  0
   -5.6048    0.3073   -2.3606 H   0  0  0  0  0  0  0  0  0  0  0  0
   -7.9315   -0.4462    1.8384 H   0  0  0  0  0  0  0  0  0  0  0  0
   -6.5838   -0.2680    3.0101 H   0  0  0  0  0  0  0  0  0  0  0  0
   -6.6400   -1.6578    1.8564 H   0  0  0  0  0  0  0  0  0  0  0  0
   -7.6659    1.7855    1.0479 H   0  0  0  0  0  0  0  0  0  0  0  0
   -6.1532    2.5092    0.5147 H   0  0  0  0  0  0  0  0  0  0  0  0
   -6.3306    2.0584    2.2129 H   0  0  0  0  0  0  0  0  0  0  0  0
   -4.1805    0.9006    1.9785 H   0  0  0  0  0  0  0  0  0  0  0  0
   -4.5514   -2.0228    1.0709 H   0  0  0  0  0  0  0  0  0  0  0  0
   -4.4300   -1.3184    2.7147 H   0  0  0  0  0  0  0  0  0  0  0  0
    9.3379    1.9767    0.0404 H   0  0  0  0  0  0  0  0  0  0  0  0
  1  2  1  0  0  0  0
  1 35  1  0  0  0  0
  1 36  1  0  0  0  0
  1 37  1  0  0  0  0
  2  3  2  0  0  0  0
  2 32  1  0  0  0  0
  3  4  1  0  0  0  0
  3 38  1  0  0  0  0
  4  5  1  0  0  0  0
  4 39  1  0  0  0  0
  4 40  1  0  0  0  0
  5  6  1  0  0  0  0
  5 41  1  0  0  0  0
  5 42  1  0  0  0  0
  6  7  1  0  0  0  0
  6  8  1  0  0  0  0
  6 43  1  6  0  0  0
  7 44  1  0  0  0  0
  7 45  1  0  0  0  0
  7 46  1  0  0  0  0
  8  9  1  0  0  0  0
  8 47  1  1  0  0  0
  9 10  1  0  0  0  0
  9 48  1  0  0  0  0
  9 49  1  0  0  0  0
 10 11  1  0  0  0  0
 10 50  1  0  0  0  0
 10 51  1  0  0  0  0
 11 12  1  1  0  0  0
 11 13  1  0  0  0  0
 12 52  1  0  0  0  0
 12 53  1  0  0  0  0
 12 54  1  0  0  0  0
 13 14  2  0  0  0  0
 14 15  1  0  0  0  0
 14 19  1  0  0  0  0
 15 16  1  0  0  0  0
 15 55  1  0  0  0  0
 15 56  1  0  0  0  0
 16 17  1  0  0  0  0
 16 57  1  0  0  0  0
 16 58  1  0  0  0  0
 17 18  1  6  0  0  0
 17  8  1  0  0  0  0
 17 11  1  0  0  0  0
 18 59  1  0  0  0  0
 18 60  1  0  0  0  0
 18 61  1  0  0  0  0
 19 20  1  6  0  0  0
 19 21  1  0  0  0  0
 20 62  1  0  0  0  0
 20 63  1  0  0  0  0
 20 64  1  0  0  0  0
 21 22  1  0  0  0  0
 21 65  1  0  0  0  0
 21 66  1  0  0  0  0
 22 23  1  0  0  0  0
 22 67  1  0  0  0  0
 22 68  1  0  0  0  0
 23 24  2  0  0  0  0
 23 25  1  0  0  0  0
 25 26  1  0  0  0  0
 25 27  1  0  0  0  0
 25 28  1  0  0  0  0
 26 69  1  0  0  0  0
 26 70  1  0  0  0  0
 26 71  1  0  0  0  0
 27 72  1  0  0  0  0
 27 73  1  0  0  0  0
 27 74  1  0  0  0  0
 28 29  1  0  0  0  0
 28 19  1  0  0  0  0
 28 75  1  1  0  0  0
 29 30  1  0  0  0  0
 29 76  1  0  0  0  0
 29 77  1  0  0  0  0
 30 31  2  0  0  0  0
 30 13  1  0  0  0  0
 32 33  2  0  0  0  0
 32 34  1  0  0  0  0
 34 78  1  0  0  0  0
M  END
>  <IDENTIFIER>
CNP0253686.4

>  <Energy>
876.152

$$$$
