
 OpenBabel09052505522D

150149  0  0  0  0  0  0  0  0999 V2000
   20.5836   15.3481    0.0000 C   0  0  0  0  0  0  0  0  0  0  0  0
   21.3336   14.0490    0.0000 C   0  0  0  0  0  0  0  0  0  0  0  0
   22.0836   12.7500    0.0000 C   0  0  3  0  0  3  0  0  0  0  0  0
   22.8336   11.4510    0.0000 C   0  0  0  0  0  0  0  0  0  0  0  0
   20.7846   12.0000    0.0000 C   0  0  0  0  0  2  0  0  0  0  0  0
   19.4856   11.2500    0.0000 C   0  0  0  0  0  0  0  0  0  0  0  0
   18.1865   10.5000    0.0000 C   0  0  0  0  0  0  0  0  0  0  0  0
   16.8875    9.7500    0.0000 C   0  0  0  0  0  2  0  0  0  0  0  0
   15.5885    9.0000    0.0000 C   0  0  0  0  0  0  0  0  0  0  0  0
   13.9480    8.6470   -0.0976 C   0  0  0  0  0  0  0  0  0  0  0  0
   13.3344    7.0761    0.1272 C   0  0  0  0  0  0  0  0  0  0  0  0
   11.6913    6.7500    0.0000 C   0  0  0  0  0  0  0  0  0  0  0  0
   10.3923    6.0000    0.0000 C   0  0  0  0  0  0  0  0  0  0  0  0
    9.0933    5.2500    0.0000 C   0  0  0  0  0  0  0  0  0  0  0  0
    7.7942    4.5000    0.0000 C   0  0  0  0  0  0  0  0  0  0  0  0
    6.4952    3.7500    0.0000 C   0  0  0  0  0  0  0  0  0  0  0  0
    5.1962    3.0000    0.0000 C   0  0  0  0  0  0  0  0  0  0  0  0
    3.6181    2.7127   -0.3575 C   0  0  0  0  0  0  0  0  0  0  0  0
    3.0188    1.2145    0.0727 C   0  0  0  0  0  0  0  0  0  0  0  0
    1.4821    0.7347   -0.2827 C   0  0  0  0  0  0  0  0  0  0  0  0
    0.7815   -0.5984    0.3430 C   0  0  0  0  0  0  0  0  0  0  0  0
    0.8190   -0.6997    1.5573 O   0  0  0  0  0  0  0  0  0  0  0  0
   -0.0496   -1.5258   -0.3789 O   0  0  0  0  0  0  0  0  0  0  0  0
   -1.2990   -2.2500    0.0000 C   0  0  1  0  0  0  0  0  0  0  0  0
   -2.0490   -0.9510   -0.0000 C   0  0  0  0  0  0  0  0  0  0  0  0
   -3.4868   -0.6394   -0.0213 O   0  0  0  0  0  0  0  0  0  0  0  0
   -4.0018    0.7195    0.0773 C   0  0  0  0  0  0  0  0  0  0  0  0
   -3.1997    1.5780    0.4182 O   0  0  0  0  0  0  0  0  0  0  0  0
   -5.5182    1.3059   -0.2254 C   0  0  0  0  0  0  0  0  0  0  0  0
   -5.7990    2.9462    0.0000 C   0  0  0  0  0  0  0  0  0  0  0  0
   -6.5490    4.2452    0.0000 C   0  0  0  0  0  0  0  0  0  0  0  0
   -7.2990    5.5442    0.0000 C   0  0  0  0  0  0  0  0  0  0  0  0
   -8.0490    6.8433    0.0000 C   0  0  0  0  0  0  0  0  0  0  0  0
   -8.7990    8.1423    0.0000 C   0  0  0  0  0  0  0  0  0  0  0  0
   -9.5490    9.4413    0.0000 C   0  0  0  0  0  0  0  0  0  0  0  0
   -9.9352   11.0555    0.2622 C   0  0  0  0  0  0  0  0  0  0  0  0
  -11.3695   11.7491   -0.3415 C   0  0  0  0  0  0  0  0  0  0  0  0
  -11.7990   13.3385    0.0000 C   0  0  0  0  0  0  0  0  0  0  0  0
  -12.5490   14.6375    0.0000 C   0  0  3  0  0  0  0  0  0  0  0  0
  -13.2990   15.9365    0.0000 C   0  0  0  0  0  0  0  0  0  0  0  0
  -13.8481   13.8875    0.0000 C   0  0  0  0  0  0  0  0  0  0  0  0
  -15.1471   13.1375    0.0000 C   0  0  0  0  0  0  0  0  0  0  0  0
   -0.5490   -3.5490    0.0000 C   0  0  0  0  0  0  0  0  0  0  0  0
    0.7235   -4.2046    0.4006 O   0  0  0  0  0  0  0  0  0  0  0  0
    1.7935   -4.7237   -0.4439 C   0  0  0  0  0  0  0  0  0  0  0  0
    2.3795   -3.8525   -1.0682 O   0  0  0  0  0  0  0  0  0  0  0  0
    2.3541   -6.2775   -0.8610 C   0  0  0  0  0  0  0  0  0  0  0  0
    3.2010   -7.4462    0.0000 C   0  0  0  0  0  0  0  0  0  0  0  0
    3.9510   -8.7452    0.0000 C   0  0  0  0  0  0  0  0  0  0  0  0
    4.7010  -10.0442    0.0000 C   0  0  0  0  0  0  0  0  0  0  0  0
    5.4510  -11.3433    0.0000 C   0  0  0  0  0  0  0  0  0  0  0  0
    6.2010  -12.6423    0.0000 C   0  0  0  0  0  0  0  0  0  0  0  0
    6.9510  -13.9413    0.0000 C   0  0  0  0  0  0  0  0  0  0  0  0
    7.2251  -15.5075   -0.6474 C   0  0  0  0  0  0  0  0  0  0  0  0
    8.4510  -16.5394    0.0000 C   0  0  0  0  0  0  0  0  0  0  0  0
    9.2010  -17.8385    0.0000 C   0  0  0  0  0  0  0  0  0  0  0  0
    9.7500  -15.7894    0.0000 C   0  0  0  0  0  0  0  0  0  0  0  0
   21.1032   15.8726   -0.8446 H   0  0  0  0  0  0  0  0  0  0  0  0
   19.5489   14.9643   -0.2166 H   0  0  0  0  0  0  0  0  0  0  0  0
   20.0486   16.2748    0.0000 H   0  0  0  0  0  0  0  0  0  0  0  0
   20.9442   13.9643    1.0625 H   0  0  0  0  0  0  0  0  0  0  0  0
   21.0569   13.9090   -1.1042 H   0  0  0  0  0  0  0  0  0  0  0  0
   22.9196   11.3735   -1.1106 H   0  0  0  0  0  0  0  0  0  0  0  0
   23.7754   11.9034    0.3743 H   0  0  0  0  0  0  0  0  0  0  0  0
   23.3686   10.5244    0.0000 H   0  0  0  0  0  0  0  0  0  0  0  0
   19.8547   10.6943    0.8959 H   0  0  0  0  0  0  0  0  0  0  0  0
   19.8545   10.6948   -0.8963 H   0  0  0  0  0  0  0  0  0  0  0  0
   17.8176   11.0556    0.8961 H   0  0  0  0  0  0  0  0  0  0  0  0
   17.8174   11.0560   -0.8957 H   0  0  0  0  0  0  0  0  0  0  0  0
   15.9123    8.2420   -0.7435 H   0  0  0  0  0  0  0  0  0  0  0  0
   15.7458    8.5335    0.9948 H   0  0  0  0  0  0  0  0  0  0  0  0
   13.6112    8.9814   -1.1012 H   0  0  0  0  0  0  0  0  0  0  0  0
   13.4399    9.2923    0.6497 H   0  0  0  0  0  0  0  0  0  0  0  0
   13.6523    6.7501    1.1396 H   0  0  0  0  0  0  0  0  0  0  0  0
   13.8485    6.4199   -0.6065 H   0  0  0  0  0  0  0  0  0  0  0  0
   11.5840    7.2063   -1.0162 H   0  0  0  0  0  0  0  0  0  0  0  0
   11.3886    7.5888    0.6766 H   0  0  0  0  0  0  0  0  0  0  0  0
   10.9948    5.2526   -0.6124 H   0  0  0  0  0  0  0  0  0  0  0  0
   10.5130    5.7977    1.0997 H   0  0  0  0  0  0  0  0  0  0  0  0
    9.5640    4.2341    0.2230 H   0  0  0  0  0  0  0  0  0  0  0  0
    9.0620    5.3504   -1.1299 H   0  0  0  0  0  0  0  0  0  0  0  0
    7.8101    4.4312    1.1283 H   0  0  0  0  0  0  0  0  0  0  0  0
    7.3218    5.5064   -0.2664 H   0  0  0  0  0  0  0  0  0  0  0  0
    6.4464    3.8353   -1.1184 H   0  0  0  0  0  0  0  0  0  0  0  0
    5.8611    4.5453    0.5113 H   0  0  0  0  0  0  0  0  0  0  0  0
    5.1569    2.6986    1.0783 H   0  0  0  0  0  0  0  0  0  0  0  0
    5.5759    2.0688   -0.4893 H   0  0  0  0  0  0  0  0  0  0  0  0
    3.4990    2.8150   -1.4543 H   0  0  0  0  0  0  0  0  0  0  0  0
    2.9953    3.4918    0.1301 H   0  0  0  0  0  0  0  0  0  0  0  0
    3.6912    0.4439   -0.3591 H   0  0  0  0  0  0  0  0  0  0  0  0
    3.1193    1.1636    1.1795 H   0  0  0  0  0  0  0  0  0  0  0  0
    1.3548    0.7207   -1.3817 H   0  0  0  0  0  0  0  0  0  0  0  0
    0.8549    1.5674    0.1015 H   0  0  0  0  0  0  0  0  0  0  0  0
   -1.9497   -2.5117   -0.8745 H   0  0  0  0  0  0  0  0  0  0  0  0
   -1.7311   -0.3193   -0.8802 H   0  0  0  0  0  0  0  0  0  0  0  0
   -1.6908   -0.4336    0.9188 H   0  0  0  0  0  0  0  0  0  0  0  0
   -5.7493    1.0711   -1.2856 H   0  0  0  0  0  0  0  0  0  0  0  0
   -6.2377    0.7501    0.4113 H   0  0  0  0  0  0  0  0  0  0  0  0
   -5.4518    2.9776    1.0630 H   0  0  0  0  0  0  0  0  0  0  0  0
   -4.8923    3.2839   -0.5628 H   0  0  0  0  0  0  0  0  0  0  0  0
   -6.6172    4.2049   -1.1219 H   0  0  0  0  0  0  0  0  0  0  0  0
   -7.3580    3.6049    0.4806 H   0  0  0  0  0  0  0  0  0  0  0  0
   -8.2807    5.0897   -0.3665 H   0  0  0  0  0  0  0  0  0  0  0  0
   -7.3279    5.5039    1.1328 H   0  0  0  0  0  0  0  0  0  0  0  0
   -7.0752    7.2962    0.3918 H   0  0  0  0  0  0  0  0  0  0  0  0
   -8.0033    6.8912   -1.1296 H   0  0  0  0  0  0  0  0  0  0  0  0
   -7.9647    8.7946   -0.4201 H   0  0  0  0  0  0  0  0  0  0  0  0
   -8.7961    8.1464    1.1233 H   0  0  0  0  0  0  0  0  0  0  0  0
   -9.7788    9.4719   -1.0962 H   0  0  0  0  0  0  0  0  0  0  0  0
  -10.5077    9.0570    0.4296 H   0  0  0  0  0  0  0  0  0  0  0  0
   -9.9394   11.2031    1.3628 H   0  0  0  0  0  0  0  0  0  0  0  0
   -9.0987   11.6605   -0.1462 H   0  0  0  0  0  0  0  0  0  0  0  0
  -12.2128   11.1140    0.0031 H   0  0  0  0  0  0  0  0  0  0  0  0
  -11.3202   11.6564   -1.4466 H   0  0  0  0  0  0  0  0  0  0  0  0
  -10.7686   13.7369   -0.1962 H   0  0  0  0  0  0  0  0  0  0  0  0
  -11.7583   13.2108    1.1104 H   0  0  0  0  0  0  0  0  0  0  0  0
  -12.2448   14.7548   -1.0865 H   0  0  0  0  0  0  0  0  0  0  0  0
  -12.4508   16.6020   -0.2989 H   0  0  0  0  0  0  0  0  0  0  0  0
  -13.3322   16.0651    1.1095 H   0  0  0  0  0  0  0  0  0  0  0  0
  -13.8340   16.8631    0.0000 H   0  0  0  0  0  0  0  0  0  0  0  0
  -14.0932   14.0614    1.0913 H   0  0  0  0  0  0  0  0  0  0  0  0
  -14.1601   14.2069   -1.0675 H   0  0  0  0  0  0  0  0  0  0  0  0
  -15.8853   13.9863   -0.0912 H   0  0  0  0  0  0  0  0  0  0  0  0
  -14.9979   12.4484   -0.8776 H   0  0  0  0  0  0  0  0  0  0  0  0
  -16.0737   12.6025    0.0000 H   0  0  0  0  0  0  0  0  0  0  0  0
   -1.3155   -4.2271    0.4352 H   0  0  0  0  0  0  0  0  0  0  0  0
   -0.5436   -3.8529   -1.0832 H   0  0  0  0  0  0  0  0  0  0  0  0
    1.4974   -6.7940   -1.3397 H   0  0  0  0  0  0  0  0  0  0  0  0
    3.0762   -6.0701   -1.6814 H   0  0  0  0  0  0  0  0  0  0  0  0
    3.9360   -6.7971    0.5276 H   0  0  0  0  0  0  0  0  0  0  0  0
    2.3523   -7.5927    0.7256 H   0  0  0  0  0  0  0  0  0  0  0  0
    3.7464   -8.9211    1.0978 H   0  0  0  0  0  0  0  0  0  0  0  0
    3.1168   -9.2049   -0.5888 H   0  0  0  0  0  0  0  0  0  0  0  0
    5.0567   -9.8032   -1.0459 H   0  0  0  0  0  0  0  0  0  0  0  0
    5.5459   -9.5822    0.5969 H   0  0  0  0  0  0  0  0  0  0  0  0
    4.6113  -11.7089   -0.6798 H   0  0  0  0  0  0  0  0  0  0  0  0
    5.1524  -11.5148    1.0728 H   0  0  0  0  0  0  0  0  0  0  0  0
    5.3006  -13.3216    0.1364 H   0  0  0  0  0  0  0  0  0  0  0  0
    6.4645  -12.4976   -1.0818 H   0  0  0  0  0  0  0  0  0  0  0  0
    6.9225  -14.2057    1.0866 H   0  0  0  0  0  0  0  0  0  0  0  0
    7.9790  -13.5315   -0.1192 H   0  0  0  0  0  0  0  0  0  0  0  0
    6.2675  -16.0621   -0.5626 H   0  0  0  0  0  0  0  0  0  0  0  0
    7.4326  -15.3779   -1.7305 H   0  0  0  0  0  0  0  0  0  0  0  0
    8.0957  -16.5472    1.0606 H   0  0  0  0  0  0  0  0  0  0  0  0
    8.3115  -18.4821    0.1893 H   0  0  0  0  0  0  0  0  0  0  0  0
    9.3860  -17.8929   -1.1032 H   0  0  0  0  0  0  0  0  0  0  0  0
    9.7360  -18.7652    0.0000 H   0  0  0  0  0  0  0  0  0  0  0  0
    9.7862  -15.5787   -1.0950 H   0  0  0  0  0  0  0  0  0  0  0  0
    9.4333  -14.9112    0.5932 H   0  0  0  0  0  0  0  0  0  0  0  0
   10.6766  -15.2544    0.0000 H   0  0  0  0  0  0  0  0  0  0  0  0
  1  2  1  0  0  0  0
  1 58  1  0  0  0  0
  1 59  1  0  0  0  0
  1 60  1  0  0  0  0
  2  3  1  0  0  0  0
  2 61  1  0  0  0  0
  2 62  1  0  0  0  0
  3  4  1  0  0  0  0
  3  5  1  0  0  0  0
  4 63  1  0  0  0  0
  4 64  1  0  0  0  0
  4 65  1  0  0  0  0
  5  6  1  0  0  0  0
  6  7  1  0  0  0  0
  6 66  1  0  0  0  0
  6 67  1  0  0  0  0
  7  8  1  0  0  0  0
  7 68  1  0  0  0  0
  7 69  1  0  0  0  0
  8  9  1  0  0  0  0
  9 10  1  0  0  0  0
  9 70  1  0  0  0  0
  9 71  1  0  0  0  0
 10 11  1  0  0  0  0
 10 72  1  0  0  0  0
 10 73  1  0  0  0  0
 11 12  1  0  0  0  0
 11 74  1  0  0  0  0
 11 75  1  0  0  0  0
 12 13  1  0  0  0  0
 12 76  1  0  0  0  0
 12 77  1  0  0  0  0
 13 14  1  0  0  0  0
 13 78  1  0  0  0  0
 13 79  1  0  0  0  0
 14 15  1  0  0  0  0
 14 80  1  0  0  0  0
 14 81  1  0  0  0  0
 15 16  1  0  0  0  0
 15 82  1  0  0  0  0
 15 83  1  0  0  0  0
 16 17  1  0  0  0  0
 16 84  1  0  0  0  0
 16 85  1  0  0  0  0
 17 18  1  0  0  0  0
 17 86  1  0  0  0  0
 17 87  1  0  0  0  0
 18 19  1  0  0  0  0
 18 88  1  0  0  0  0
 18 89  1  0  0  0  0
 19 20  1  0  0  0  0
 19 90  1  0  0  0  0
 19 91  1  0  0  0  0
 20 21  1  0  0  0  0
 20 92  1  0  0  0  0
 20 93  1  0  0  0  0
 21 22  2  0  0  0  0
 21 23  1  0  0  0  0
 23 24  1  0  0  0  0
 24 25  1  0  0  0  0
 24 43  1  0  0  0  0
 24 94  1  1  0  0  0
 25 26  1  0  0  0  0
 25 95  1  0  0  0  0
 25 96  1  0  0  0  0
 26 27  1  0  0  0  0
 27 28  2  0  0  0  0
 27 29  1  0  0  0  0
 29 30  1  0  0  0  0
 29 97  1  0  0  0  0
 29 98  1  0  0  0  0
 30 31  1  0  0  0  0
 30 99  1  0  0  0  0
 30100  1  0  0  0  0
 31 32  1  0  0  0  0
 31101  1  0  0  0  0
 31102  1  0  0  0  0
 32 33  1  0  0  0  0
 32103  1  0  0  0  0
 32104  1  0  0  0  0
 33 34  1  0  0  0  0
 33105  1  0  0  0  0
 33106  1  0  0  0  0
 34 35  1  0  0  0  0
 34107  1  0  0  0  0
 34108  1  0  0  0  0
 35 36  1  0  0  0  0
 35109  1  0  0  0  0
 35110  1  0  0  0  0
 36 37  1  0  0  0  0
 36111  1  0  0  0  0
 36112  1  0  0  0  0
 37 38  1  0  0  0  0
 37113  1  0  0  0  0
 37114  1  0  0  0  0
 38 39  1  0  0  0  0
 38115  1  0  0  0  0
 38116  1  0  0  0  0
 39 40  1  0  0  0  0
 39 41  1  0  0  0  0
 39117  1  0  0  0  0
 40118  1  0  0  0  0
 40119  1  0  0  0  0
 40120  1  0  0  0  0
 41 42  1  0  0  0  0
 41121  1  0  0  0  0
 41122  1  0  0  0  0
 42123  1  0  0  0  0
 42124  1  0  0  0  0
 42125  1  0  0  0  0
 43 44  1  0  0  0  0
 43126  1  0  0  0  0
 43127  1  0  0  0  0
 44 45  1  0  0  0  0
 45 46  2  0  0  0  0
 45 47  1  0  0  0  0
 47 48  1  0  0  0  0
 47128  1  0  0  0  0
 47129  1  0  0  0  0
 48 49  1  0  0  0  0
 48130  1  0  0  0  0
 48131  1  0  0  0  0
 49 50  1  0  0  0  0
 49132  1  0  0  0  0
 49133  1  0  0  0  0
 50 51  1  0  0  0  0
 50134  1  0  0  0  0
 50135  1  0  0  0  0
 51 52  1  0  0  0  0
 51136  1  0  0  0  0
 51137  1  0  0  0  0
 52 53  1  0  0  0  0
 52138  1  0  0  0  0
 52139  1  0  0  0  0
 53 54  1  0  0  0  0
 53140  1  0  0  0  0
 53141  1  0  0  0  0
 54 55  1  0  0  0  0
 54142  1  0  0  0  0
 54143  1  0  0  0  0
 55 56  1  0  0  0  0
 55 57  1  0  0  0  0
 55144  1  0  0  0  0
 56145  1  0  0  0  0
 56146  1  0  0  0  0
 56147  1  0  0  0  0
 57148  1  0  0  0  0
 57149  1  0  0  0  0
 57150  1  0  0  0  0
M  END
>  <IDENTIFIER>
CNP0518183.1

>  <Energy>
14200.5

$$$$
