
 OpenBabel09102515043D

 60 65  0  0  0  0  0  0  0  0999 V2000
    8.3851   -0.0680   -2.1274 C   0  0  0  0  0  0  0  0  0  0  0  0
    7.0448   -0.7855   -1.9810 C   0  0  0  0  0  0  0  0  0  0  0  0
    6.8101   -1.3606   -0.5749 C   0  0  0  0  0  0  0  0  0  0  0  0
    6.7692   -0.2985    0.5420 C   0  0  0  0  0  0  0  0  0  0  0  0
    5.8378    0.6970    0.2962 O   0  0  0  0  0  0  0  0  0  0  0  0
    4.4827    0.5871    0.2953 C   0  0  0  0  0  0  0  0  0  0  0  0
    3.8107   -0.5883    0.6558 C   0  0  0  0  0  0  0  0  0  0  0  0
    2.4164   -0.6457    0.6355 C   0  0  0  0  0  0  0  0  0  0  0  0
    1.6292    0.4748    0.2664 C   0  0  0  0  0  0  0  0  0  0  0  0
    0.1745    0.4158    0.2567 N   0  0  0  0  0  0  0  0  0  0  0  0
   -0.6131   -0.6484    0.6483 C   0  0  0  0  0  0  0  0  0  0  0  0
   -0.2208   -1.6831    1.1588 O   0  0  0  0  0  0  0  0  0  0  0  0
   -2.0056   -0.4311    0.1718 C   0  0  2  0  0  0  0  0  0  0  0  0
   -2.0667    1.0798    0.3493 C   0  0  1  0  0  0  0  0  0  0  0  0
   -0.6978    1.4126   -0.1361 C   0  0  0  0  0  0  0  0  0  0  0  0
   -0.3889    2.4830   -0.6307 O   0  0  0  0  0  0  0  0  0  0  0  0
   -3.5308    1.5937    0.1355 C   0  0  1  0  0  0  0  0  0  0  0  0
   -4.2145    0.8205   -0.9836 C   0  0  0  0  0  0  0  0  0  0  0  0
   -4.8597    1.4066   -2.0734 C   0  0  0  0  0  0  0  0  0  0  0  0
   -5.4920    0.5863   -3.0150 C   0  0  0  0  0  0  0  0  0  0  0  0
   -5.4819   -0.8088   -2.8651 C   0  0  0  0  0  0  0  0  0  0  0  0
   -4.8385   -1.4049   -1.7722 C   0  0  0  0  0  0  0  0  0  0  0  0
   -4.2027   -0.5943   -0.8198 C   0  0  0  0  0  0  0  0  0  0  0  0
   -3.4130   -1.0767    0.4274 C   0  0  1  0  0  0  0  0  0  0  0  0
   -3.3250   -2.6048    0.5584 C   0  0  0  0  0  0  0  0  0  0  0  0
   -4.1207   -0.3543    1.5841 C   0  0  0  0  0  0  0  0  0  0  0  0
   -4.6766   -0.9509    2.7238 C   0  0  0  0  0  0  0  0  0  0  0  0
   -5.3264   -0.1492    3.6709 C   0  0  0  0  0  0  0  0  0  0  0  0
   -5.4264    1.2382    3.4846 C   0  0  0  0  0  0  0  0  0  0  0  0
   -4.8750    1.8452    2.3494 C   0  0  0  0  0  0  0  0  0  0  0  0
   -4.2262    1.0539    1.3989 C   0  0  0  0  0  0  0  0  0  0  0  0
    2.3337    1.6550   -0.0837 C   0  0  0  0  0  0  0  0  0  0  0  0
    3.7307    1.7026   -0.0693 C   0  0  0  0  0  0  0  0  0  0  0  0
    8.5051    0.2718   -3.1775 H   0  0  0  0  0  0  0  0  0  0  0  0
    9.2197   -0.7568   -1.8777 H   0  0  0  0  0  0  0  0  0  0  0  0
    8.4320    0.8254   -1.4720 H   0  0  0  0  0  0  0  0  0  0  0  0
    7.0252   -1.6306   -2.7032 H   0  0  0  0  0  0  0  0  0  0  0  0
    6.2208   -0.0884   -2.2461 H   0  0  0  0  0  0  0  0  0  0  0  0
    7.6099   -2.0951   -0.3365 H   0  0  0  0  0  0  0  0  0  0  0  0
    5.8538   -1.9181   -0.6040 H   0  0  0  0  0  0  0  0  0  0  0  0
    7.7677    0.1778    0.6167 H   0  0  0  0  0  0  0  0  0  0  0  0
    6.5703   -0.7747    1.5262 H   0  0  0  0  0  0  0  0  0  0  0  0
    4.3501   -1.4726    0.9607 H   0  0  0  0  0  0  0  0  0  0  0  0
    1.9975   -1.5916    0.9165 H   0  0  0  0  0  0  0  0  0  0  0  0
   -1.8344   -0.6586   -0.9157 H   0  0  0  0  0  0  0  0  0  0  0  0
   -1.8921    1.3310    1.4312 H   0  0  0  0  0  0  0  0  0  0  0  0
   -3.5980    2.7006    0.0637 H   0  0  0  0  0  0  0  0  0  0  0  0
   -4.8785    2.4827   -2.1883 H   0  0  0  0  0  0  0  0  0  0  0  0
   -5.9955    1.0320   -3.8631 H   0  0  0  0  0  0  0  0  0  0  0  0
   -5.9744   -1.4304   -3.6016 H   0  0  0  0  0  0  0  0  0  0  0  0
   -4.8387   -2.4822   -1.6825 H   0  0  0  0  0  0  0  0  0  0  0  0
   -4.3383   -3.0477    0.6583 H   0  0  0  0  0  0  0  0  0  0  0  0
   -2.7277   -2.8751    1.4545 H   0  0  0  0  0  0  0  0  0  0  0  0
   -2.8289   -3.0416   -0.3347 H   0  0  0  0  0  0  0  0  0  0  0  0
   -4.6174   -2.0188    2.8831 H   0  0  0  0  0  0  0  0  0  0  0  0
   -5.7571   -0.6047    4.5532 H   0  0  0  0  0  0  0  0  0  0  0  0
   -5.9298    1.8441    4.2266 H   0  0  0  0  0  0  0  0  0  0  0  0
   -4.9455    2.9171    2.2175 H   0  0  0  0  0  0  0  0  0  0  0  0
    1.8443    2.5666   -0.3697 H   0  0  0  0  0  0  0  0  0  0  0  0
    4.2339    2.6222   -0.3429 H   0  0  0  0  0  0  0  0  0  0  0  0
  1  2  1  0  0  0  0
  1 34  1  0  0  0  0
  1 35  1  0  0  0  0
  1 36  1  0  0  0  0
  2  3  1  0  0  0  0
  2 37  1  0  0  0  0
  2 38  1  0  0  0  0
  3  4  1  0  0  0  0
  3 39  1  0  0  0  0
  3 40  1  0  0  0  0
  4  5  1  0  0  0  0
  4 41  1  0  0  0  0
  4 42  1  0  0  0  0
  5  6  1  0  0  0  0
  6  7  2  0  0  0  0
  7  8  1  0  0  0  0
  7 43  1  0  0  0  0
  8  9  2  0  0  0  0
  8 44  1  0  0  0  0
  9 10  1  0  0  0  0
  9 32  1  0  0  0  0
 10 11  1  0  0  0  0
 11 12  2  0  0  0  0
 13 11  1  0  0  0  0
 13 14  1  0  0  0  0
 13 45  1  6  0  0  0
 14 15  1  0  0  0  0
 14 17  1  0  0  0  0
 14 46  1  1  0  0  0
 15 16  2  0  0  0  0
 15 10  1  0  0  0  0
 17 18  1  0  0  0  0
 17 47  1  6  0  0  0
 18 19  2  0  0  0  0
 19 20  1  0  0  0  0
 19 48  1  0  0  0  0
 20 21  2  0  0  0  0
 20 49  1  0  0  0  0
 21 22  1  0  0  0  0
 21 50  1  0  0  0  0
 22 23  2  0  0  0  0
 22 51  1  0  0  0  0
 23 24  1  0  0  0  0
 23 18  1  0  0  0  0
 24 25  1  1  0  0  0
 24 26  1  0  0  0  0
 24 13  1  0  0  0  0
 25 52  1  0  0  0  0
 25 53  1  0  0  0  0
 25 54  1  0  0  0  0
 26 27  2  0  0  0  0
 27 28  1  0  0  0  0
 27 55  1  0  0  0  0
 28 29  2  0  0  0  0
 28 56  1  0  0  0  0
 29 30  1  0  0  0  0
 29 57  1  0  0  0  0
 30 31  2  0  0  0  0
 30 58  1  0  0  0  0
 31 17  1  0  0  0  0
 31 26  1  0  0  0  0
 32 33  2  0  0  0  0
 32 59  1  0  0  0  0
 33  6  1  0  0  0  0
 33 60  1  0  0  0  0
M  END
>  <IDENTIFIER>
CNP0146117.2

>  <Energy>
950.169

$$$$
