
 OpenBabel09052514453D

 76 79  0  0  0  0  0  0  0  0999 V2000
    6.6758    3.1670   -2.7564 C   0  0  0  0  0  0  0  0  0  0  0  0
    7.7649    2.8850   -1.9578 O   0  0  0  0  0  0  0  0  0  0  0  0
    7.8545    1.8603   -1.0682 C   0  0  0  0  0  0  0  0  0  0  0  0
    6.7860    0.9707   -0.8336 C   0  0  0  0  0  0  0  0  0  0  0  0
    6.9122   -0.0896    0.0817 C   0  0  0  0  0  0  0  0  0  0  0  0
    5.7367   -1.0412    0.2781 C   0  0  1  0  0  0  0  0  0  0  0  0
    6.0725   -2.1624    1.0635 O   0  0  0  0  0  0  0  0  0  0  0  0
    4.4271   -0.3654    0.7902 C   0  0  2  0  0  0  0  0  0  0  0  0
    4.5499    0.2043    2.2267 C   0  0  0  0  0  0  0  0  0  0  0  0
    5.5334    1.2034    2.2897 O   0  0  0  0  0  0  0  0  0  0  0  0
    3.4351   -1.3303    0.7350 O   0  0  0  0  0  0  0  0  0  0  0  0
    2.0916   -1.2086    0.9084 C   0  0  0  0  0  0  0  0  0  0  0  0
    1.4359    0.0329    1.0455 C   0  0  0  0  0  0  0  0  0  0  0  0
    0.0490    0.0849    1.2400 C   0  0  0  0  0  0  0  0  0  0  0  0
   -0.7029   -1.0979    1.2920 C   0  0  0  0  0  0  0  0  0  0  0  0
   -2.1948   -1.0821    1.5382 C   0  0  0  0  0  0  0  0  0  0  0  0
   -3.0138   -0.3586    0.4466 C   0  0  1  0  0  0  0  0  0  0  0  0
   -2.8271   -0.8576   -0.9657 C   0  0  0  0  0  0  0  0  0  0  0  0
   -3.8337   -0.2094   -1.7103 O   0  0  0  0  0  0  0  0  0  0  0  0
   -4.9867   -0.2711   -0.8878 C   0  0  2  0  0  0  0  0  0  0  0  0
   -5.8797    0.9364   -1.0659 C   0  0  0  0  0  0  0  0  0  0  0  0
   -5.4082    2.2347   -0.8198 C   0  0  0  0  0  0  0  0  0  0  0  0
   -6.2605    3.3323   -0.9677 C   0  0  0  0  0  0  0  0  0  0  0  0
   -7.5958    3.1478   -1.3580 C   0  0  0  0  0  0  0  0  0  0  0  0
   -8.4215    4.2072   -1.4910 O   0  0  0  0  0  0  0  0  0  0  0  0
   -8.0838    1.8569   -1.6068 C   0  0  0  0  0  0  0  0  0  0  0  0
   -9.3859    1.7114   -1.9712 O   0  0  0  0  0  0  0  0  0  0  0  0
  -10.0287    0.5124   -2.2091 C   0  0  0  0  0  0  0  0  0  0  0  0
   -7.2162    0.7555   -1.4627 C   0  0  0  0  0  0  0  0  0  0  0  0
   -4.5338   -0.4440    0.5856 C   0  0  1  0  0  0  0  0  0  0  0  0
   -5.0797   -1.7800    1.1521 C   0  0  0  0  0  0  0  0  0  0  0  0
   -6.4825   -1.7852    1.1382 O   0  0  0  0  0  0  0  0  0  0  0  0
   -0.0490   -2.3304    1.1348 C   0  0  0  0  0  0  0  0  0  0  0  0
    1.3417   -2.3927    0.9413 C   0  0  0  0  0  0  0  0  0  0  0  0
    1.9982   -3.5740    0.7863 O   0  0  0  0  0  0  0  0  0  0  0  0
    1.4186   -4.8256    0.7596 C   0  0  0  0  0  0  0  0  0  0  0  0
    8.1356   -0.2526    0.7624 C   0  0  0  0  0  0  0  0  0  0  0  0
    9.1928    0.6310    0.5398 C   0  0  0  0  0  0  0  0  0  0  0  0
    9.0575    1.6860   -0.3707 C   0  0  0  0  0  0  0  0  0  0  0  0
   10.0846    2.5339   -0.5888 O   0  0  0  0  0  0  0  0  0  0  0  0
    6.9045    4.0543   -3.3813 H   0  0  0  0  0  0  0  0  0  0  0  0
    5.7870    3.3930   -2.1299 H   0  0  0  0  0  0  0  0  0  0  0  0
    6.4614    2.3081   -3.4283 H   0  0  0  0  0  0  0  0  0  0  0  0
    5.8553    1.0895   -1.3711 H   0  0  0  0  0  0  0  0  0  0  0  0
    5.5118   -1.4391   -0.7360 H   0  0  0  0  0  0  0  0  0  0  0  0
    6.2645   -1.8568    1.9854 H   0  0  0  0  0  0  0  0  0  0  0  0
    4.1610    0.4586    0.0942 H   0  0  0  0  0  0  0  0  0  0  0  0
    4.7453   -0.6073    2.9642 H   0  0  0  0  0  0  0  0  0  0  0  0
    3.5966    0.6590    2.5558 H   0  0  0  0  0  0  0  0  0  0  0  0
    6.3018    0.8283    2.7941 H   0  0  0  0  0  0  0  0  0  0  0  0
    1.9849    0.9630    1.0073 H   0  0  0  0  0  0  0  0  0  0  0  0
   -0.4357    1.0457    1.3578 H   0  0  0  0  0  0  0  0  0  0  0  0
   -2.3976   -0.6054    2.5211 H   0  0  0  0  0  0  0  0  0  0  0  0
   -2.5403   -2.1342    1.5976 H   0  0  0  0  0  0  0  0  0  0  0  0
   -2.7357    0.7204    0.4185 H   0  0  0  0  0  0  0  0  0  0  0  0
   -2.9616   -1.9610   -1.0415 H   0  0  0  0  0  0  0  0  0  0  0  0
   -1.8169   -0.5927   -1.3455 H   0  0  0  0  0  0  0  0  0  0  0  0
   -5.5488   -1.1764   -1.2140 H   0  0  0  0  0  0  0  0  0  0  0  0
   -4.3836    2.3965   -0.5111 H   0  0  0  0  0  0  0  0  0  0  0  0
   -5.8837    4.3284   -0.7726 H   0  0  0  0  0  0  0  0  0  0  0  0
   -8.1289    5.1142   -1.3228 H   0  0  0  0  0  0  0  0  0  0  0  0
  -11.0857    0.7135   -2.4789 H   0  0  0  0  0  0  0  0  0  0  0  0
  -10.0124   -0.1191   -1.2950 H   0  0  0  0  0  0  0  0  0  0  0  0
   -9.5439   -0.0243   -3.0520 H   0  0  0  0  0  0  0  0  0  0  0  0
   -7.5802   -0.2467   -1.6452 H   0  0  0  0  0  0  0  0  0  0  0  0
   -4.8815    0.3630    1.2701 H   0  0  0  0  0  0  0  0  0  0  0  0
   -4.7264   -1.9457    2.1942 H   0  0  0  0  0  0  0  0  0  0  0  0
   -4.7220   -2.6373    0.5423 H   0  0  0  0  0  0  0  0  0  0  0  0
   -6.7770   -1.1782    1.8664 H   0  0  0  0  0  0  0  0  0  0  0  0
   -0.6284   -3.2431    1.1711 H   0  0  0  0  0  0  0  0  0  0  0  0
    2.2104   -5.5883    0.6128 H   0  0  0  0  0  0  0  0  0  0  0  0
    0.6993   -4.8958   -0.0844 H   0  0  0  0  0  0  0  0  0  0  0  0
    0.9019   -5.0315    1.7209 H   0  0  0  0  0  0  0  0  0  0  0  0
    8.2889   -1.0569    1.4672 H   0  0  0  0  0  0  0  0  0  0  0  0
   10.1235    0.4906    1.0756 H   0  0  0  0  0  0  0  0  0  0  0  0
   10.9324    2.4453   -0.1313 H   0  0  0  0  0  0  0  0  0  0  0  0
  1  2  1  0  0  0  0
  1 41  1  0  0  0  0
  1 42  1  0  0  0  0
  1 43  1  0  0  0  0
  2  3  1  0  0  0  0
  3  4  2  0  0  0  0
  4  5  1  0  0  0  0
  4 44  1  0  0  0  0
  5  6  1  0  0  0  0
  5 37  2  0  0  0  0
  6  7  1  0  0  0  0
  6  8  1  0  0  0  0
  6 45  1  6  0  0  0
  7 46  1  0  0  0  0
  8  9  1  0  0  0  0
  8 11  1  0  0  0  0
  8 47  1  6  0  0  0
  9 10  1  0  0  0  0
  9 48  1  0  0  0  0
  9 49  1  0  0  0  0
 10 50  1  0  0  0  0
 11 12  1  0  0  0  0
 12 13  2  0  0  0  0
 13 14  1  0  0  0  0
 13 51  1  0  0  0  0
 14 15  2  0  0  0  0
 14 52  1  0  0  0  0
 15 16  1  0  0  0  0
 15 33  1  0  0  0  0
 16 53  1  0  0  0  0
 16 54  1  0  0  0  0
 17 16  1  0  0  0  0
 17 18  1  0  0  0  0
 17 55  1  1  0  0  0
 18 19  1  0  0  0  0
 18 56  1  0  0  0  0
 18 57  1  0  0  0  0
 19 20  1  0  0  0  0
 20 21  1  0  0  0  0
 20 30  1  0  0  0  0
 20 58  1  6  0  0  0
 21 22  2  0  0  0  0
 22 23  1  0  0  0  0
 22 59  1  0  0  0  0
 23 24  2  0  0  0  0
 23 60  1  0  0  0  0
 24 25  1  0  0  0  0
 24 26  1  0  0  0  0
 25 61  1  0  0  0  0
 26 27  1  0  0  0  0
 26 29  2  0  0  0  0
 27 28  1  0  0  0  0
 28 62  1  0  0  0  0
 28 63  1  0  0  0  0
 28 64  1  0  0  0  0
 29 21  1  0  0  0  0
 29 65  1  0  0  0  0
 30 31  1  0  0  0  0
 30 17  1  0  0  0  0
 30 66  1  1  0  0  0
 31 32  1  0  0  0  0
 31 67  1  0  0  0  0
 31 68  1  0  0  0  0
 32 69  1  0  0  0  0
 33 34  2  0  0  0  0
 33 70  1  0  0  0  0
 34 35  1  0  0  0  0
 34 12  1  0  0  0  0
 35 36  1  0  0  0  0
 36 71  1  0  0  0  0
 36 72  1  0  0  0  0
 36 73  1  0  0  0  0
 37 38  1  0  0  0  0
 37 74  1  0  0  0  0
 38 39  2  0  0  0  0
 38 75  1  0  0  0  0
 39 40  1  0  0  0  0
 39  3  1  0  0  0  0
 40 76  1  0  0  0  0
M  END
>  <IDENTIFIER>
CNP0158473.3

>  <Energy>
569.29

$$$$
