
 OpenBabel09062507053D

 36 35  0  0  0  0  0  0  0  0999 V2000
    6.2723   -0.7059    1.9890 C   0  0  0  0  0  0  0  0  0  0  0  0
    4.8207   -0.8315    1.6446 C   0  0  0  0  0  0  0  0  0  0  0  0
    4.2569   -0.0325    0.7293 C   0  0  0  0  0  0  0  0  0  0  0  0
    2.8265   -0.1662    0.3859 C   0  0  0  0  0  0  0  0  0  0  0  0
    2.2640    0.6065   -0.5535 C   0  0  0  0  0  0  0  0  0  0  0  0
    0.8358    0.4511   -0.9031 C   0  0  0  0  0  0  0  0  0  0  0  0
    0.2807    1.1894   -1.8786 C   0  0  0  0  0  0  0  0  0  0  0  0
   -1.1383    1.1130   -2.3392 C   0  0  0  0  0  0  0  0  0  0  0  0
   -1.4573    1.8544   -3.2568 O   0  0  0  0  0  0  0  0  0  0  0  0
   -2.2213    0.1973   -1.7745 C   0  0  1  0  0  0  0  0  0  0  0  0
   -1.8708   -1.2837   -2.0146 C   0  0  0  0  0  0  0  0  0  0  0  0
   -2.5538    0.5598   -0.2958 C   0  0  1  0  0  0  0  0  0  0  0  0
   -2.8955    1.9233   -0.2119 O   0  0  0  0  0  0  0  0  0  0  0  0
   -3.6835   -0.3084    0.3096 C   0  0  0  0  0  0  0  0  0  0  0  0
   -4.0224    0.0945    1.7524 C   0  0  0  0  0  0  0  0  0  0  0  0
   -2.8999   -0.0124    2.5850 O   0  0  0  0  0  0  0  0  0  0  0  0
    6.5413   -1.4595    2.7585 H   0  0  0  0  0  0  0  0  0  0  0  0
    6.4807    0.3085    2.3894 H   0  0  0  0  0  0  0  0  0  0  0  0
    6.8921   -0.8801    1.0840 H   0  0  0  0  0  0  0  0  0  0  0  0
    4.2281   -1.5902    2.1495 H   0  0  0  0  0  0  0  0  0  0  0  0
    4.8607    0.7198    0.2270 H   0  0  0  0  0  0  0  0  0  0  0  0
    2.2265   -0.9139    0.9000 H   0  0  0  0  0  0  0  0  0  0  0  0
    2.8652    1.3480   -1.0747 H   0  0  0  0  0  0  0  0  0  0  0  0
    0.2678   -0.2815   -0.3541 H   0  0  0  0  0  0  0  0  0  0  0  0
    0.9137    1.9066   -2.3961 H   0  0  0  0  0  0  0  0  0  0  0  0
   -3.1492    0.3813   -2.3635 H   0  0  0  0  0  0  0  0  0  0  0  0
   -0.9888   -1.6223   -1.4444 H   0  0  0  0  0  0  0  0  0  0  0  0
   -1.6693   -1.4474   -3.0949 H   0  0  0  0  0  0  0  0  0  0  0  0
   -2.7233   -1.9389   -1.7452 H   0  0  0  0  0  0  0  0  0  0  0  0
   -1.6598    0.4076    0.3355 H   0  0  0  0  0  0  0  0  0  0  0  0
   -3.7295    2.0568   -0.7352 H   0  0  0  0  0  0  0  0  0  0  0  0
   -3.3780   -1.3753    0.3197 H   0  0  0  0  0  0  0  0  0  0  0  0
   -4.6015   -0.2111   -0.3104 H   0  0  0  0  0  0  0  0  0  0  0  0
   -4.8506   -0.5401    2.1413 H   0  0  0  0  0  0  0  0  0  0  0  0
   -4.3863    1.1436    1.7776 H   0  0  0  0  0  0  0  0  0  0  0  0
   -2.7650   -0.9807    2.7558 H   0  0  0  0  0  0  0  0  0  0  0  0
  1  2  1  0  0  0  0
  1 17  1  0  0  0  0
  1 18  1  0  0  0  0
  1 19  1  0  0  0  0
  2  3  2  0  0  0  0
  2 20  1  0  0  0  0
  3  4  1  0  0  0  0
  3 21  1  0  0  0  0
  4  5  2  0  0  0  0
  4 22  1  0  0  0  0
  5  6  1  0  0  0  0
  5 23  1  0  0  0  0
  6  7  2  0  0  0  0
  6 24  1  0  0  0  0
  7  8  1  0  0  0  0
  7 25  1  0  0  0  0
  8  9  2  0  0  0  0
  8 10  1  0  0  0  0
 10 11  1  0  0  0  0
 10 12  1  0  0  0  0
 10 26  1  6  0  0  0
 11 27  1  0  0  0  0
 11 28  1  0  0  0  0
 11 29  1  0  0  0  0
 12 13  1  0  0  0  0
 12 14  1  0  0  0  0
 12 30  1  1  0  0  0
 13 31  1  0  0  0  0
 14 15  1  0  0  0  0
 14 32  1  0  0  0  0
 14 33  1  0  0  0  0
 15 16  1  0  0  0  0
 15 34  1  0  0  0  0
 15 35  1  0  0  0  0
 16 36  1  0  0  0  0
M  END
>  <IDENTIFIER>
CNP0427035.2

>  <Energy>
122.23

$$$$
