
 OpenBabel09122503093D

 47 50  0  0  0  0  0  0  0  0999 V2000
    5.9704    1.4471   -0.1868 O   0  0  0  0  0  0  0  0  0  0  0  0
    4.9479    0.9271    0.6186 C   0  0  0  0  0  0  0  0  0  0  0  0
    4.0582   -0.0019   -0.2257 C   0  0  2  0  0  0  0  0  0  0  0  0
    3.5657    0.7814   -1.3202 O   0  0  0  0  0  0  0  0  0  0  0  0
    2.2991    0.3427   -1.7676 C   0  0  2  0  0  0  0  0  0  0  0  0
    1.9862    0.9402   -2.9983 O   0  0  0  0  0  0  0  0  0  0  0  0
    1.1796    0.6376   -0.7089 C   0  0  1  0  0  0  0  0  0  0  0  0
   -0.0288   -0.1123   -1.0680 N   0  0  0  0  0  0  0  0  0  0  0  0
   -1.3618   -0.1466   -0.4750 C   0  0  0  0  0  0  0  0  0  0  0  0
   -1.8797    0.8188    0.4802 C   0  0  0  0  0  0  0  0  0  0  0  0
   -1.1686    1.9409    0.9889 C   0  0  0  0  0  0  0  0  0  0  0  0
   -1.7379    2.8322    1.9009 C   0  0  0  0  0  0  0  0  0  0  0  0
   -3.0357    2.6503    2.3449 C   0  0  0  0  0  0  0  0  0  0  0  0
   -3.7721    1.5742    1.8778 C   0  0  0  0  0  0  0  0  0  0  0  0
   -3.2179    0.6648    0.9578 C   0  0  0  0  0  0  0  0  0  0  0  0
   -3.9946   -0.3614    0.5368 N   0  3  0  0  0  0  0  0  0  0  0  0
   -3.5591   -1.2896   -0.3432 C   0  0  0  0  0  0  0  0  0  0  0  0
   -4.4364   -2.3252   -0.7152 C   0  0  0  0  0  0  0  0  0  0  0  0
   -4.0364   -3.3109   -1.6063 C   0  0  0  0  0  0  0  0  0  0  0  0
   -2.7557   -3.2799   -2.1347 C   0  0  0  0  0  0  0  0  0  0  0  0
   -1.8693   -2.2614   -1.7817 C   0  0  0  0  0  0  0  0  0  0  0  0
   -2.2442   -1.2217   -0.8760 C   0  0  0  0  0  0  0  0  0  0  0  0
    1.7214    0.2846    0.7239 C   0  0  1  0  0  0  0  0  0  0  0  0
    0.7260   -0.2040    1.5881 O   0  0  0  0  0  0  0  0  0  0  0  0
    2.9247   -0.6791    0.6290 C   0  0  2  0  0  0  0  0  0  0  0  0
    3.3931   -1.1140    1.8836 O   0  0  0  0  0  0  0  0  0  0  0  0
    6.5741    1.9488    0.4205 H   0  0  0  0  0  0  0  0  0  0  0  0
    4.3456    1.7644    1.0320 H   0  0  0  0  0  0  0  0  0  0  0  0
    5.4058    0.3450    1.4494 H   0  0  0  0  0  0  0  0  0  0  0  0
    4.7239   -0.8072   -0.6079 H   0  0  0  0  0  0  0  0  0  0  0  0
    2.3761   -0.7512   -1.9698 H   0  0  0  0  0  0  0  0  0  0  0  0
    2.1090    1.9188   -2.8856 H   0  0  0  0  0  0  0  0  0  0  0  0
    0.9903    1.7209   -0.7943 H   0  0  0  0  0  0  0  0  0  0  0  0
    0.1175   -0.6974   -1.8899 H   0  0  0  0  0  0  0  0  0  0  0  0
   -0.1753    2.1916    0.7384 H   0  0  0  0  0  0  0  0  0  0  0  0
   -1.1624    3.6737    2.2665 H   0  0  0  0  0  0  0  0  0  0  0  0
   -3.4727    3.3442    3.0517 H   0  0  0  0  0  0  0  0  0  0  0  0
   -4.7875    1.4480    2.2342 H   0  0  0  0  0  0  0  0  0  0  0  0
   -4.9706   -0.4422    0.9099 H   0  0  0  0  0  0  0  0  0  0  0  0
   -5.4390   -2.3703   -0.3068 H   0  0  0  0  0  0  0  0  0  0  0  0
   -4.7189   -4.1043   -1.8828 H   0  0  0  0  0  0  0  0  0  0  0  0
   -2.4422   -4.0542   -2.8240 H   0  0  0  0  0  0  0  0  0  0  0  0
   -0.9055   -2.3548   -2.2448 H   0  0  0  0  0  0  0  0  0  0  0  0
    2.1198    1.2180    1.1751 H   0  0  0  0  0  0  0  0  0  0  0  0
    0.5329   -1.1418    1.3262 H   0  0  0  0  0  0  0  0  0  0  0  0
    2.5507   -1.5822    0.0986 H   0  0  0  0  0  0  0  0  0  0  0  0
    3.3791   -0.3394    2.5042 H   0  0  0  0  0  0  0  0  0  0  0  0
  1  2  1  0  0  0  0
  1 27  1  0  0  0  0
  2 28  1  0  0  0  0
  2 29  1  0  0  0  0
  3  2  1  0  0  0  0
  3  4  1  0  0  0  0
  3 30  1  6  0  0  0
  4  5  1  0  0  0  0
  5  6  1  0  0  0  0
  5  7  1  0  0  0  0
  5 31  1  6  0  0  0
  6 32  1  0  0  0  0
  7  8  1  0  0  0  0
  7 23  1  0  0  0  0
  7 33  1  6  0  0  0
  8  9  1  0  0  0  0
  8 34  1  0  0  0  0
  9 10  1  0  0  0  0
 10 11  2  0  0  0  0
 11 12  1  0  0  0  0
 11 35  1  0  0  0  0
 12 13  2  0  0  0  0
 12 36  1  0  0  0  0
 13 14  1  0  0  0  0
 13 37  1  0  0  0  0
 14 15  2  0  0  0  0
 14 38  1  0  0  0  0
 15 16  1  0  0  0  0
 15 10  1  0  0  0  0
 16 17  2  0  0  0  0
 16 39  1  0  0  0  0
 17 18  1  0  0  0  0
 18 19  2  0  0  0  0
 18 40  1  0  0  0  0
 19 20  1  0  0  0  0
 19 41  1  0  0  0  0
 20 21  2  0  0  0  0
 20 42  1  0  0  0  0
 21 22  1  0  0  0  0
 21 43  1  0  0  0  0
 22  9  2  0  0  0  0
 22 17  1  0  0  0  0
 23 24  1  0  0  0  0
 23 25  1  0  0  0  0
 23 44  1  1  0  0  0
 24 45  1  0  0  0  0
 25 26  1  0  0  0  0
 25  3  1  0  0  0  0
 25 46  1  6  0  0  0
 26 47  1  0  0  0  0
M  CHG  1  16   1
M  END
>  <IDENTIFIER>
CNP0546388.4

>  <Energy>
598.781

$$$$
